MODEL 1
REMARK VINA RESULT:      -8.3      0.000      0.000
REMARK  9 active torsions:
REMARK  status: ('A' for Active; 'I' for Inactive)
REMARK    1  A    between atoms: C_2  and  C_3 
REMARK    2  A    between atoms: C_7  and  C_8 
REMARK    3  A    between atoms: C_8  and  C_9 
REMARK       I    between atoms: C_9  and  N_10 
REMARK    4  A    between atoms: N_10  and  C_11 
REMARK    5  A    between atoms: C_11  and  C_12 
REMARK    6  A    between atoms: C_12  and  N_13 
REMARK    7  A    between atoms: C_21  and  C_22 
REMARK    8  A    between atoms: C_32  and  C_33 
REMARK    9  A    between atoms: C_33  and  O_34 
ROOT
HETATM    1  C   UNL     1       6.374  28.369  53.324  1.00  0.00     0.051 C 
HETATM    2  N   UNL     1       7.743  28.602  53.445  1.00  0.00    -0.228 NA
HETATM    3  C   UNL     1       8.252  28.371  54.610  1.00  0.00     0.170 C 
HETATM    4  N   UNL     1       7.425  27.748  55.764  1.00  0.00    -0.318 N 
HETATM    5  C   UNL     1       7.656  28.421  56.839  1.00  0.00     0.011 C 
HETATM    6  C   UNL     1       6.424  26.786  55.237  1.00  0.00     0.166 C 
HETATM    7  S   UNL     1       9.735  29.034  55.198  1.00  0.00    -0.086 SA
HETATM    8  C   UNL     1       9.027  29.077  56.890  1.00  0.00     0.135 C 
HETATM    9  C   UNL     1       5.709  27.535  54.160  1.00  0.00     0.069 C 
ENDROOT
BRANCH   5  10
HETATM   10  C   UNL     1       6.520  28.814  57.749  1.00  0.00     0.156 C 
BRANCH  10  11
HETATM   11  C   UNL     1       6.551  30.331  57.918  1.00  0.00     0.223 C 
HETATM   12  N   UNL     1       6.870  30.839  59.143  1.00  0.00    -0.359 N 
HETATM   13  H   UNL     1       6.987  30.202  59.928  1.00  0.00     0.162 HD
HETATM   14  O   UNL     1       6.286  31.071  56.970  1.00  0.00    -0.273 OA
BRANCH  12  15
HETATM   15  C   UNL     1       6.644  32.254  59.491  1.00  0.00     0.150 C 
BRANCH  15  16
HETATM   16  C   UNL     1       5.656  32.517  60.656  1.00  0.00     0.254 C 
BRANCH  16  17
HETATM   17  N   UNL     1       6.342  33.063  61.898  1.00  0.00    -0.070 N 
HETATM   18  H   UNL     1       6.992  33.799  61.567  1.00  0.00     0.279 HD
HETATM   19  C   UNL     1       5.399  33.757  62.857  1.00  0.00     0.235 C 
HETATM   20  C   UNL     1       6.216  34.450  63.942  1.00  0.00     0.028 C 
HETATM   21  C   UNL     1       7.132  33.473  64.672  1.00  0.00     0.003 C 
HETATM   22  C   UNL     1       8.002  32.692  63.695  1.00  0.00     0.028 C 
HETATM   23  C   UNL     1       7.174  32.020  62.607  1.00  0.00     0.235 C 
ENDBRANCH  16  17
ENDBRANCH  15  16
ENDBRANCH  12  15
ENDBRANCH  10  11
ENDBRANCH   5  10
BRANCH   6  24
HETATM   24  C   UNL     1       7.197  25.500  54.852  1.00  0.00    -0.024 C 
HETATM   25  C   UNL     1       7.862  24.609  55.730  1.00  0.00    -0.053 C 
HETATM   26  C   UNL     1       8.185  24.864  57.180  1.00  0.00     0.049 C 
HETATM   27  C   UNL     1       8.267  23.343  55.250  1.00  0.00     0.014 C 
HETATM   28  C   UNL     1       8.088  22.953  53.922  1.00  0.00    -0.061 C 
HETATM   29  C   UNL     1       8.508  21.587  53.465  1.00  0.00     0.048 C 
HETATM   30  C   UNL     1       7.575  23.881  53.025  1.00  0.00     0.007 C 
HETATM   31  C   UNL     1       7.152  25.132  53.478  1.00  0.00     0.011 C 
ENDBRANCH   6  24
BRANCH   9  32
HETATM   32  C   UNL     1       4.239  27.567  54.287  1.00  0.00     0.293 C 
HETATM   33  O   UNL     1       3.508  27.208  53.378  1.00  0.00    -0.259 OA
BRANCH  32  34
HETATM   34  O   UNL     1       3.894  28.190  55.427  1.00  0.00    -0.323 OA
HETATM   35  C   UNL     1       3.696  29.609  55.350  1.00  0.00     0.213 C 
ENDBRANCH  32  34
ENDBRANCH   9  32
BRANCH   1  36
HETATM   36  C   UNL     1       5.703  29.160  52.217  1.00  0.00     0.056 C 
HETATM   37  C   UNL     1       5.599  28.360  50.927  1.00  0.00     0.011 C 
ENDBRANCH   1  36
TORSDOF 9
ENDMDL
MODEL 2
REMARK VINA RESULT:      -8.3      1.411      2.142
REMARK  9 active torsions:
REMARK  status: ('A' for Active; 'I' for Inactive)
REMARK    1  A    between atoms: C_2  and  C_3 
REMARK    2  A    between atoms: C_7  and  C_8 
REMARK    3  A    between atoms: C_8  and  C_9 
REMARK       I    between atoms: C_9  and  N_10 
REMARK    4  A    between atoms: N_10  and  C_11 
REMARK    5  A    between atoms: C_11  and  C_12 
REMARK    6  A    between atoms: C_12  and  N_13 
REMARK    7  A    between atoms: C_21  and  C_22 
REMARK    8  A    between atoms: C_32  and  C_33 
REMARK    9  A    between atoms: C_33  and  O_34 
ROOT
HETATM    1  C   UNL     1       6.585  27.702  53.028  1.00  0.00     0.051 C 
HETATM    2  N   UNL     1       7.794  28.199  53.511  1.00  0.00    -0.228 NA
HETATM    3  C   UNL     1       7.929  28.202  54.797  1.00  0.00     0.170 C 
HETATM    4  N   UNL     1       6.871  27.572  55.739  1.00  0.00    -0.318 N 
HETATM    5  C   UNL     1       6.646  28.395  56.705  1.00  0.00     0.011 C 
HETATM    6  C   UNL     1       6.240  26.386  55.107  1.00  0.00     0.166 C 
HETATM    7  S   UNL     1       9.033  29.194  55.680  1.00  0.00    -0.086 SA
HETATM    8  C   UNL     1       7.819  29.298  57.052  1.00  0.00     0.135 C 
HETATM    9  C   UNL     1       5.811  26.860  53.756  1.00  0.00     0.069 C 
ENDROOT
BRANCH   5  10
HETATM   10  C   UNL     1       5.233  28.671  57.156  1.00  0.00     0.156 C 
BRANCH  10  11
HETATM   11  C   UNL     1       5.084  30.178  57.353  1.00  0.00     0.223 C 
HETATM   12  N   UNL     1       5.139  30.673  58.623  1.00  0.00    -0.359 N 
HETATM   13  H   UNL     1       5.184  30.024  59.406  1.00  0.00     0.162 HD
HETATM   14  O   UNL     1       4.910  30.920  56.386  1.00  0.00    -0.273 OA
BRANCH  12  15
HETATM   15  C   UNL     1       4.718  32.047  58.951  1.00  0.00     0.150 C 
BRANCH  15  16
HETATM   16  C   UNL     1       5.463  32.722  60.131  1.00  0.00     0.254 C 
BRANCH  16  17
HETATM   17  N   UNL     1       6.683  31.937  60.582  1.00  0.00    -0.070 N 
HETATM   18  H   UNL     1       6.477  30.942  60.378  1.00  0.00     0.279 HD
HETATM   19  C   UNL     1       7.937  32.260  59.799  1.00  0.00     0.235 C 
HETATM   20  C   UNL     1       9.031  31.269  60.182  1.00  0.00     0.028 C 
HETATM   21  C   UNL     1       9.298  31.272  61.683  1.00  0.00     0.003 C 
HETATM   22  C   UNL     1       8.013  31.060  62.476  1.00  0.00     0.028 C 
HETATM   23  C   UNL     1       6.925  32.045  62.070  1.00  0.00     0.235 C 
ENDBRANCH  16  17
ENDBRANCH  15  16
ENDBRANCH  12  15
ENDBRANCH  10  11
ENDBRANCH   5  10
BRANCH   6  24
HETATM   24  C   UNL     1       7.269  25.232  55.191  1.00  0.00    -0.024 C 
HETATM   25  C   UNL     1       7.902  24.737  56.357  1.00  0.00    -0.053 C 
HETATM   26  C   UNL     1       7.914  25.397  57.712  1.00  0.00     0.049 C 
HETATM   27  C   UNL     1       8.588  23.503  56.298  1.00  0.00     0.014 C 
HETATM   28  C   UNL     1       8.717  22.774  55.115  1.00  0.00    -0.061 C 
HETATM   29  C   UNL     1       9.430  21.454  55.106  1.00  0.00     0.048 C 
HETATM   30  C   UNL     1       8.228  23.330  53.940  1.00  0.00     0.007 C 
HETATM   31  C   UNL     1       7.532  24.540  53.975  1.00  0.00     0.011 C 
ENDBRANCH   6  24
BRANCH   9  32
HETATM   32  C   UNL     1       4.390  26.630  53.432  1.00  0.00     0.293 C 
HETATM   33  O   UNL     1       3.555  27.512  53.542  1.00  0.00    -0.259 OA
BRANCH  32  34
HETATM   34  O   UNL     1       4.184  25.323  53.193  1.00  0.00    -0.323 OA
HETATM   35  C   UNL     1       4.691  24.808  51.953  1.00  0.00     0.213 C 
ENDBRANCH  32  34
ENDBRANCH   9  32
BRANCH   1  36
HETATM   36  C   UNL     1       6.201  28.221  51.656  1.00  0.00     0.056 C 
HETATM   37  C   UNL     1       5.541  29.590  51.728  1.00  0.00     0.011 C 
ENDBRANCH   1  36
TORSDOF 9
ENDMDL
MODEL 3
REMARK VINA RESULT:      -8.1      0.792      1.429
REMARK  9 active torsions:
REMARK  status: ('A' for Active; 'I' for Inactive)
REMARK    1  A    between atoms: C_2  and  C_3 
REMARK    2  A    between atoms: C_7  and  C_8 
REMARK    3  A    between atoms: C_8  and  C_9 
REMARK       I    between atoms: C_9  and  N_10 
REMARK    4  A    between atoms: N_10  and  C_11 
REMARK    5  A    between atoms: C_11  and  C_12 
REMARK    6  A    between atoms: C_12  and  N_13 
REMARK    7  A    between atoms: C_21  and  C_22 
REMARK    8  A    between atoms: C_32  and  C_33 
REMARK    9  A    between atoms: C_33  and  O_34 
ROOT
HETATM    1  C   UNL     1       6.009  28.495  52.982  1.00  0.00     0.051 C 
HETATM    2  N   UNL     1       7.375  28.520  53.257  1.00  0.00    -0.228 NA
HETATM    3  C   UNL     1       7.710  28.235  54.472  1.00  0.00     0.170 C 
HETATM    4  N   UNL     1       6.674  27.766  55.526  1.00  0.00    -0.318 N 
HETATM    5  C   UNL     1       6.884  28.415  56.619  1.00  0.00     0.011 C 
HETATM    6  C   UNL     1       5.604  26.957  54.890  1.00  0.00     0.166 C 
HETATM    7  S   UNL     1       9.201  28.677  55.223  1.00  0.00    -0.086 SA
HETATM    8  C   UNL     1       8.325  28.857  56.825  1.00  0.00     0.135 C 
HETATM    9  C   UNL     1       5.136  27.787  53.739  1.00  0.00     0.069 C 
ENDROOT
BRANCH   5  10
HETATM   10  C   UNL     1       5.726  28.993  57.395  1.00  0.00     0.156 C 
BRANCH  10  11
HETATM   11  C   UNL     1       6.014  30.471  57.644  1.00  0.00     0.223 C 
HETATM   12  N   UNL     1       6.400  30.854  58.896  1.00  0.00    -0.359 N 
HETATM   13  H   UNL     1       6.397  30.166  59.646  1.00  0.00     0.162 HD
HETATM   14  O   UNL     1       5.889  31.294  56.737  1.00  0.00    -0.273 OA
BRANCH  12  15
HETATM   15  C   UNL     1       6.414  32.266  59.318  1.00  0.00     0.150 C 
BRANCH  15  16
HETATM   16  C   UNL     1       5.517  32.621  60.531  1.00  0.00     0.254 C 
BRANCH  16  17
HETATM   17  N   UNL     1       6.318  33.048  61.750  1.00  0.00    -0.070 N 
HETATM   18  H   UNL     1       6.946  33.808  61.430  1.00  0.00     0.279 HD
HETATM   19  C   UNL     1       5.475  33.658  62.849  1.00  0.00     0.235 C 
HETATM   20  C   UNL     1       6.394  34.244  63.914  1.00  0.00     0.028 C 
HETATM   21  C   UNL     1       7.358  33.201  64.467  1.00  0.00     0.003 C 
HETATM   22  C   UNL     1       8.127  32.506  63.350  1.00  0.00     0.028 C 
HETATM   23  C   UNL     1       7.196  31.941  62.285  1.00  0.00     0.235 C 
ENDBRANCH  16  17
ENDBRANCH  15  16
ENDBRANCH  12  15
ENDBRANCH  10  11
ENDBRANCH   5  10
BRANCH   6  24
HETATM   24  C   UNL     1       6.209  25.562  54.596  1.00  0.00    -0.024 C 
HETATM   25  C   UNL     1       6.055  24.798  53.413  1.00  0.00    -0.053 C 
HETATM   26  C   UNL     1       5.061  25.056  52.309  1.00  0.00     0.049 C 
HETATM   27  C   UNL     1       6.901  23.687  53.196  1.00  0.00     0.014 C 
HETATM   28  C   UNL     1       7.851  23.275  54.131  1.00  0.00    -0.061 C 
HETATM   29  C   UNL     1       8.747  22.106  53.845  1.00  0.00     0.048 C 
HETATM   30  C   UNL     1       7.899  23.929  55.355  1.00  0.00     0.007 C 
HETATM   31  C   UNL     1       7.086  25.040  55.588  1.00  0.00     0.011 C 
ENDBRANCH   6  24
BRANCH   9  32
HETATM   32  C   UNL     1       3.683  28.042  53.698  1.00  0.00     0.293 C 
HETATM   33  O   UNL     1       2.997  27.704  52.748  1.00  0.00    -0.259 OA
BRANCH  32  34
HETATM   34  O   UNL     1       3.329  28.821  54.737  1.00  0.00    -0.323 OA
HETATM   35  C   UNL     1       3.386  30.239  54.525  1.00  0.00     0.213 C 
ENDBRANCH  32  34
ENDBRANCH   9  32
BRANCH   1  36
HETATM   36  C   UNL     1       5.594  29.358  51.805  1.00  0.00     0.056 C 
HETATM   37  C   UNL     1       5.498  28.556  50.516  1.00  0.00     0.011 C 
ENDBRANCH   1  36
TORSDOF 9
ENDMDL
MODEL 4
REMARK VINA RESULT:      -7.8      5.844      9.542
REMARK  9 active torsions:
REMARK  status: ('A' for Active; 'I' for Inactive)
REMARK    1  A    between atoms: C_2  and  C_3 
REMARK    2  A    between atoms: C_7  and  C_8 
REMARK    3  A    between atoms: C_8  and  C_9 
REMARK       I    between atoms: C_9  and  N_10 
REMARK    4  A    between atoms: N_10  and  C_11 
REMARK    5  A    between atoms: C_11  and  C_12 
REMARK    6  A    between atoms: C_12  and  N_13 
REMARK    7  A    between atoms: C_21  and  C_22 
REMARK    8  A    between atoms: C_32  and  C_33 
REMARK    9  A    between atoms: C_33  and  O_34 
ROOT
HETATM    1  C   UNL     1       2.602  28.348  49.329  1.00  0.00     0.051 C 
HETATM    2  N   UNL     1       2.395  29.220  50.396  1.00  0.00    -0.228 NA
HETATM    3  C   UNL     1       3.416  29.428  51.160  1.00  0.00     0.170 C 
HETATM    4  N   UNL     1       4.819  28.852  50.839  1.00  0.00    -0.318 N 
HETATM    5  C   UNL     1       5.305  28.340  51.917  1.00  0.00     0.011 C 
HETATM    6  C   UNL     1       5.045  28.799  49.373  1.00  0.00     0.166 C 
HETATM    7  S   UNL     1       3.342  30.007  52.786  1.00  0.00    -0.086 SA
HETATM    8  C   UNL     1       4.807  28.984  53.202  1.00  0.00     0.135 C 
HETATM    9  C   UNL     1       3.838  28.106  48.828  1.00  0.00     0.069 C 
ENDROOT
BRANCH   5  10
HETATM   10  C   UNL     1       5.989  26.996  51.880  1.00  0.00     0.156 C 
BRANCH  10  11
HETATM   11  C   UNL     1       5.505  26.185  53.080  1.00  0.00     0.223 C 
HETATM   12  N   UNL     1       6.293  26.142  54.192  1.00  0.00    -0.359 N 
HETATM   13  H   UNL     1       7.216  26.570  54.162  1.00  0.00     0.162 HD
HETATM   14  O   UNL     1       4.433  25.581  53.034  1.00  0.00    -0.273 OA
BRANCH  12  15
HETATM   15  C   UNL     1       6.072  25.168  55.276  1.00  0.00     0.150 C 
BRANCH  15  16
HETATM   16  C   UNL     1       7.311  24.345  55.714  1.00  0.00     0.254 C 
BRANCH  16  17
HETATM   17  N   UNL     1       7.377  22.981  55.047  1.00  0.00    -0.070 N 
HETATM   18  H   UNL     1       6.396  22.708  54.854  1.00  0.00     0.279 HD
HETATM   19  C   UNL     1       8.065  22.995  53.700  1.00  0.00     0.235 C 
HETATM   20  C   UNL     1       7.880  21.637  53.033  1.00  0.00     0.028 C 
HETATM   21  C   UNL     1       8.396  20.501  53.909  1.00  0.00     0.003 C 
HETATM   22  C   UNL     1       7.786  20.554  55.304  1.00  0.00     0.028 C 
HETATM   23  C   UNL     1       7.964  21.921  55.951  1.00  0.00     0.235 C 
ENDBRANCH  16  17
ENDBRANCH  15  16
ENDBRANCH  12  15
ENDBRANCH  10  11
ENDBRANCH   5  10
BRANCH   6  24
HETATM   24  C   UNL     1       5.333  30.249  48.910  1.00  0.00    -0.024 C 
HETATM   25  C   UNL     1       4.769  30.916  47.795  1.00  0.00    -0.053 C 
HETATM   26  C   UNL     1       3.985  30.276  46.678  1.00  0.00     0.049 C 
HETATM   27  C   UNL     1       4.918  32.317  47.682  1.00  0.00     0.014 C 
HETATM   28  C   UNL     1       5.651  33.068  48.602  1.00  0.00    -0.061 C 
HETATM   29  C   UNL     1       5.758  34.558  48.457  1.00  0.00     0.048 C 
HETATM   30  C   UNL     1       6.330  32.398  49.610  1.00  0.00     0.007 C 
HETATM   31  C   UNL     1       6.185  31.016  49.753  1.00  0.00     0.011 C 
ENDBRANCH   6  24
BRANCH   9  32
HETATM   32  C   UNL     1       4.118  26.934  47.976  1.00  0.00     0.293 C 
HETATM   33  O   UNL     1       4.539  27.053  46.837  1.00  0.00    -0.259 OA
BRANCH  32  34
HETATM   34  O   UNL     1       3.679  25.816  48.581  1.00  0.00    -0.323 OA
HETATM   35  C   UNL     1       3.067  24.827  47.740  1.00  0.00     0.213 C 
ENDBRANCH  32  34
ENDBRANCH   9  32
BRANCH   1  36
HETATM   36  C   UNL     1       1.342  27.672  48.823  1.00  0.00     0.056 C 
HETATM   37  C   UNL     1       0.867  28.266  47.505  1.00  0.00     0.011 C 
ENDBRANCH   1  36
TORSDOF 9
ENDMDL
MODEL 5
REMARK VINA RESULT:      -7.6      3.575      7.962
REMARK  9 active torsions:
REMARK  status: ('A' for Active; 'I' for Inactive)
REMARK    1  A    between atoms: C_2  and  C_3 
REMARK    2  A    between atoms: C_7  and  C_8 
REMARK    3  A    between atoms: C_8  and  C_9 
REMARK       I    between atoms: C_9  and  N_10 
REMARK    4  A    between atoms: N_10  and  C_11 
REMARK    5  A    between atoms: C_11  and  C_12 
REMARK    6  A    between atoms: C_12  and  N_13 
REMARK    7  A    between atoms: C_21  and  C_22 
REMARK    8  A    between atoms: C_32  and  C_33 
REMARK    9  A    between atoms: C_33  and  O_34 
ROOT
HETATM    1  C   UNL     1       7.503  28.622  54.946  1.00  0.00     0.051 C 
HETATM    2  N   UNL     1       8.047  27.851  53.920  1.00  0.00    -0.228 NA
HETATM    3  C   UNL     1       7.279  26.931  53.438  1.00  0.00     0.170 C 
HETATM    4  N   UNL     1       5.800  26.776  53.878  1.00  0.00    -0.318 N 
HETATM    5  C   UNL     1       5.571  25.529  54.106  1.00  0.00     0.011 C 
HETATM    6  C   UNL     1       5.198  28.100  54.180  1.00  0.00     0.166 C 
HETATM    7  S   UNL     1       7.817  25.535  52.574  1.00  0.00    -0.086 SA
HETATM    8  C   UNL     1       6.434  24.571  53.299  1.00  0.00     0.135 C 
HETATM    9  C   UNL     1       6.164  28.750  55.116  1.00  0.00     0.069 C 
ENDROOT
BRANCH   5  10
HETATM   10  C   UNL     1       4.799  25.109  55.332  1.00  0.00     0.156 C 
BRANCH  10  11
HETATM   11  C   UNL     1       5.734  25.199  56.535  1.00  0.00     0.223 C 
HETATM   12  N   UNL     1       7.080  25.178  56.312  1.00  0.00    -0.359 N 
HETATM   13  H   UNL     1       7.423  25.012  55.367  1.00  0.00     0.162 HD
HETATM   14  O   UNL     1       5.279  25.279  57.676  1.00  0.00    -0.273 OA
BRANCH  12  15
HETATM   15  C   UNL     1       8.055  24.963  57.396  1.00  0.00     0.150 C 
BRANCH  15  16
HETATM   16  C   UNL     1       9.016  23.760  57.217  1.00  0.00     0.254 C 
BRANCH  16  17
HETATM   17  N   UNL     1       8.476  22.714  56.254  1.00  0.00    -0.070 N 
HETATM   18  H   UNL     1       7.510  23.009  56.021  1.00  0.00     0.279 HD
HETATM   19  C   UNL     1       9.214  22.665  54.934  1.00  0.00     0.235 C 
HETATM   20  C   UNL     1       8.460  21.749  53.977  1.00  0.00     0.028 C 
HETATM   21  C   UNL     1       8.271  20.353  54.559  1.00  0.00     0.003 C 
HETATM   22  C   UNL     1       7.630  20.410  55.941  1.00  0.00     0.028 C 
HETATM   23  C   UNL     1       8.384  21.342  56.880  1.00  0.00     0.235 C 
ENDBRANCH  16  17
ENDBRANCH  15  16
ENDBRANCH  12  15
ENDBRANCH  10  11
ENDBRANCH   5  10
BRANCH   6  24
HETATM   24  C   UNL     1       4.914  28.785  52.821  1.00  0.00    -0.024 C 
HETATM   25  C   UNL     1       4.338  30.062  52.614  1.00  0.00    -0.053 C 
HETATM   26  C   UNL     1       3.639  30.903  53.652  1.00  0.00     0.049 C 
HETATM   27  C   UNL     1       4.413  30.653  51.332  1.00  0.00     0.014 C 
HETATM   28  C   UNL     1       4.986  30.000  50.240  1.00  0.00    -0.061 C 
HETATM   29  C   UNL     1       5.069  30.678  48.903  1.00  0.00     0.048 C 
HETATM   30  C   UNL     1       5.414  28.690  50.404  1.00  0.00     0.007 C 
HETATM   31  C   UNL     1       5.366  28.090  51.664  1.00  0.00     0.011 C 
ENDBRANCH   6  24
BRANCH   9  32
HETATM   32  C   UNL     1       5.582  29.235  56.383  1.00  0.00     0.293 C 
HETATM   33  O   UNL     1       5.108  28.470  57.206  1.00  0.00    -0.259 OA
BRANCH  32  34
HETATM   34  O   UNL     1       5.513  30.578  56.366  1.00  0.00    -0.323 OA
HETATM   35  C   UNL     1       5.931  31.258  57.559  1.00  0.00     0.213 C 
ENDBRANCH  32  34
ENDBRANCH   9  32
BRANCH   1  36
HETATM   36  C   UNL     1       8.532  29.253  55.865  1.00  0.00     0.056 C 
HETATM   37  C   UNL     1       8.894  28.340  57.026  1.00  0.00     0.011 C 
ENDBRANCH   1  36
TORSDOF 9
ENDMDL
MODEL 6
REMARK VINA RESULT:      -7.4      5.961      9.885
REMARK  9 active torsions:
REMARK  status: ('A' for Active; 'I' for Inactive)
REMARK    1  A    between atoms: C_2  and  C_3 
REMARK    2  A    between atoms: C_7  and  C_8 
REMARK    3  A    between atoms: C_8  and  C_9 
REMARK       I    between atoms: C_9  and  N_10 
REMARK    4  A    between atoms: N_10  and  C_11 
REMARK    5  A    between atoms: C_11  and  C_12 
REMARK    6  A    between atoms: C_12  and  N_13 
REMARK    7  A    between atoms: C_21  and  C_22 
REMARK    8  A    between atoms: C_32  and  C_33 
REMARK    9  A    between atoms: C_33  and  O_34 
ROOT
HETATM    1  C   UNL     1       2.245  28.719  48.469  1.00  0.00     0.051 C 
HETATM    2  N   UNL     1       1.622  29.851  48.992  1.00  0.00    -0.228 NA
HETATM    3  C   UNL     1       2.399  30.704  49.573  1.00  0.00     0.170 C 
HETATM    4  N   UNL     1       3.942  30.548  49.576  1.00  0.00    -0.318 N 
HETATM    5  C   UNL     1       4.371  30.764  50.771  1.00  0.00     0.011 C 
HETATM    6  C   UNL     1       4.411  29.925  48.312  1.00  0.00     0.166 C 
HETATM    7  S   UNL     1       1.895  31.884  50.729  1.00  0.00    -0.086 SA
HETATM    8  C   UNL     1       3.504  31.706  51.593  1.00  0.00     0.135 C 
HETATM    9  C   UNL     1       3.563  28.705  48.153  1.00  0.00     0.069 C 
ENDROOT
BRANCH   5  10
HETATM   10  C   UNL     1       5.410  29.857  51.383  1.00  0.00     0.156 C 
BRANCH  10  11
HETATM   11  C   UNL     1       4.684  28.753  52.147  1.00  0.00     0.223 C 
HETATM   12  N   UNL     1       5.394  28.018  53.052  1.00  0.00    -0.359 N 
HETATM   13  H   UNL     1       6.399  28.161  53.127  1.00  0.00     0.162 HD
HETATM   14  O   UNL     1       3.491  28.531  51.941  1.00  0.00    -0.273 OA
BRANCH  12  15
HETATM   15  C   UNL     1       4.880  26.758  53.617  1.00  0.00     0.150 C 
BRANCH  15  16
HETATM   16  C   UNL     1       5.739  26.116  54.738  1.00  0.00     0.254 C 
BRANCH  16  17
HETATM   17  N   UNL     1       6.411  24.826  54.298  1.00  0.00    -0.070 N 
HETATM   18  H   UNL     1       5.665  24.239  53.883  1.00  0.00     0.279 HD
HETATM   19  C   UNL     1       7.433  25.018  53.198  1.00  0.00     0.235 C 
HETATM   20  C   UNL     1       7.877  23.651  52.688  1.00  0.00     0.028 C 
HETATM   21  C   UNL     1       8.426  22.779  53.812  1.00  0.00     0.003 C 
HETATM   22  C   UNL     1       7.441  22.679  54.970  1.00  0.00     0.028 C 
HETATM   23  C   UNL     1       6.994  24.051  55.457  1.00  0.00     0.235 C 
ENDBRANCH  16  17
ENDBRANCH  15  16
ENDBRANCH  12  15
ENDBRANCH  10  11
ENDBRANCH   5  10
BRANCH   6  24
HETATM   24  C   UNL     1       4.340  31.020  47.219  1.00  0.00    -0.024 C 
HETATM   25  C   UNL     1       5.115  32.204  47.146  1.00  0.00    -0.053 C 
HETATM   26  C   UNL     1       5.971  32.777  48.246  1.00  0.00     0.049 C 
HETATM   27  C   UNL     1       5.129  32.945  45.942  1.00  0.00     0.014 C 
HETATM   28  C   UNL     1       4.361  32.587  44.834  1.00  0.00    -0.061 C 
HETATM   29  C   UNL     1       4.430  33.389  43.567  1.00  0.00     0.048 C 
HETATM   30  C   UNL     1       3.487  31.515  44.954  1.00  0.00     0.007 C 
HETATM   31  C   UNL     1       3.467  30.756  46.127  1.00  0.00     0.011 C 
ENDBRANCH   6  24
BRANCH   9  32
HETATM   32  C   UNL     1       4.306  27.444  47.962  1.00  0.00     0.293 C 
HETATM   33  O   UNL     1       4.159  26.757  46.965  1.00  0.00    -0.259 OA
BRANCH  32  34
HETATM   34  O   UNL     1       4.974  27.135  49.087  1.00  0.00    -0.323 OA
HETATM   35  C   UNL     1       4.540  25.961  49.790  1.00  0.00     0.213 C 
ENDBRANCH  32  34
ENDBRANCH   9  32
BRANCH   1  36
HETATM   36  C   UNL     1       1.336  27.513  48.334  1.00  0.00     0.056 C 
HETATM   37  C   UNL     1       0.632  27.477  46.986  1.00  0.00     0.011 C 
ENDBRANCH   1  36
TORSDOF 9
ENDMDL
MODEL 7
REMARK VINA RESULT:      -7.4      3.427      5.128
REMARK  9 active torsions:
REMARK  status: ('A' for Active; 'I' for Inactive)
REMARK    1  A    between atoms: C_2  and  C_3 
REMARK    2  A    between atoms: C_7  and  C_8 
REMARK    3  A    between atoms: C_8  and  C_9 
REMARK       I    between atoms: C_9  and  N_10 
REMARK    4  A    between atoms: N_10  and  C_11 
REMARK    5  A    between atoms: C_11  and  C_12 
REMARK    6  A    between atoms: C_12  and  N_13 
REMARK    7  A    between atoms: C_21  and  C_22 
REMARK    8  A    between atoms: C_32  and  C_33 
REMARK    9  A    between atoms: C_33  and  O_34 
ROOT
HETATM    1  C   UNL     1       5.853  25.882  55.992  1.00  0.00     0.051 C 
HETATM    2  N   UNL     1       5.032  25.103  55.179  1.00  0.00    -0.228 NA
HETATM    3  C   UNL     1       5.360  25.054  53.930  1.00  0.00     0.170 C 
HETATM    4  N   UNL     1       6.656  25.710  53.390  1.00  0.00    -0.318 N 
HETATM    5  C   UNL     1       6.366  26.361  52.316  1.00  0.00     0.011 C 
HETATM    6  C   UNL     1       7.743  25.639  54.399  1.00  0.00     0.166 C 
HETATM    7  S   UNL     1       4.295  24.631  52.637  1.00  0.00    -0.086 SA
HETATM    8  C   UNL     1       5.181  25.806  51.542  1.00  0.00     0.135 C 
HETATM    9  C   UNL     1       7.132  26.176  55.652  1.00  0.00     0.069 C 
ENDROOT
BRANCH   5  10
HETATM   10  C   UNL     1       6.919  27.747  52.095  1.00  0.00     0.156 C 
BRANCH  10  11
HETATM   11  C   UNL     1       5.788  28.749  52.315  1.00  0.00     0.223 C 
HETATM   12  N   UNL     1       5.349  28.959  53.590  1.00  0.00    -0.359 N 
HETATM   13  H   UNL     1       5.719  28.382  54.343  1.00  0.00     0.162 HD
HETATM   14  O   UNL     1       5.284  29.342  51.362  1.00  0.00    -0.273 OA
BRANCH  12  15
HETATM   15  C   UNL     1       4.089  29.665  53.882  1.00  0.00     0.150 C 
BRANCH  15  16
HETATM   16  C   UNL     1       4.219  31.171  54.229  1.00  0.00     0.254 C 
BRANCH  16  17
HETATM   17  N   UNL     1       4.380  31.419  55.720  1.00  0.00    -0.070 N 
HETATM   18  H   UNL     1       5.165  30.817  56.029  1.00  0.00     0.279 HD
HETATM   19  C   UNL     1       4.796  32.833  56.059  1.00  0.00     0.235 C 
HETATM   20  C   UNL     1       5.138  32.908  57.543  1.00  0.00     0.028 C 
HETATM   21  C   UNL     1       3.977  32.446  58.416  1.00  0.00     0.003 C 
HETATM   22  C   UNL     1       3.483  31.066  57.999  1.00  0.00     0.028 C 
HETATM   23  C   UNL     1       3.162  31.002  56.512  1.00  0.00     0.235 C 
ENDBRANCH  16  17
ENDBRANCH  15  16
ENDBRANCH  12  15
ENDBRANCH  10  11
ENDBRANCH   5  10
BRANCH   6  24
HETATM   24  C   UNL     1       8.263  24.180  54.398  1.00  0.00    -0.024 C 
HETATM   25  C   UNL     1       8.721  23.438  55.514  1.00  0.00    -0.053 C 
HETATM   26  C   UNL     1       9.049  23.990  56.878  1.00  0.00     0.049 C 
HETATM   27  C   UNL     1       8.886  22.039  55.391  1.00  0.00     0.014 C 
HETATM   28  C   UNL     1       8.670  21.363  54.189  1.00  0.00    -0.061 C 
HETATM   29  C   UNL     1       8.830  19.873  54.112  1.00  0.00     0.048 C 
HETATM   30  C   UNL     1       8.369  22.109  53.057  1.00  0.00     0.007 C 
HETATM   31  C   UNL     1       8.183  23.489  53.157  1.00  0.00     0.011 C 
ENDBRANCH   6  24
BRANCH   9  32
HETATM   32  C   UNL     1       7.875  27.279  56.291  1.00  0.00     0.293 C 
HETATM   33  O   UNL     1       8.453  27.133  57.355  1.00  0.00    -0.259 OA
BRANCH  32  34
HETATM   34  O   UNL     1       7.651  28.425  55.623  1.00  0.00    -0.323 OA
HETATM   35  C   UNL     1       7.458  29.605  56.418  1.00  0.00     0.213 C 
ENDBRANCH  32  34
ENDBRANCH   9  32
BRANCH   1  36
HETATM   36  C   UNL     1       5.176  26.401  57.247  1.00  0.00     0.056 C 
HETATM   37  C   UNL     1       4.386  27.674  56.983  1.00  0.00     0.011 C 
ENDBRANCH   1  36
TORSDOF 9
ENDMDL
MODEL 8
REMARK VINA RESULT:      -7.0      2.395      4.334
REMARK  9 active torsions:
REMARK  status: ('A' for Active; 'I' for Inactive)
REMARK    1  A    between atoms: C_2  and  C_3 
REMARK    2  A    between atoms: C_7  and  C_8 
REMARK    3  A    between atoms: C_8  and  C_9 
REMARK       I    between atoms: C_9  and  N_10 
REMARK    4  A    between atoms: N_10  and  C_11 
REMARK    5  A    between atoms: C_11  and  C_12 
REMARK    6  A    between atoms: C_12  and  N_13 
REMARK    7  A    between atoms: C_21  and  C_22 
REMARK    8  A    between atoms: C_32  and  C_33 
REMARK    9  A    between atoms: C_33  and  O_34 
ROOT
HETATM    1  C   UNL     1       5.985  25.744  56.128  1.00  0.00     0.051 C 
HETATM    2  N   UNL     1       5.201  26.896  56.101  1.00  0.00    -0.228 NA
HETATM    3  C   UNL     1       5.812  27.987  55.774  1.00  0.00     0.170 C 
HETATM    4  N   UNL     1       7.292  27.996  55.311  1.00  0.00    -0.318 N 
HETATM    5  C   UNL     1       7.904  28.951  55.925  1.00  0.00     0.011 C 
HETATM    6  C   UNL     1       7.617  26.761  54.555  1.00  0.00     0.166 C 
HETATM    7  S   UNL     1       5.270  29.583  56.148  1.00  0.00    -0.086 SA
HETATM    8  C   UNL     1       7.016  30.122  56.315  1.00  0.00     0.135 C 
HETATM    9  C   UNL     1       7.142  25.646  55.428  1.00  0.00     0.069 C 
ENDROOT
BRANCH   5  10
HETATM   10  C   UNL     1       9.271  28.720  56.519  1.00  0.00     0.156 C 
BRANCH  10  11
HETATM   11  C   UNL     1       9.591  29.893  57.441  1.00  0.00     0.223 C 
HETATM   12  N   UNL     1       8.945  29.970  58.640  1.00  0.00    -0.359 N 
HETATM   13  H   UNL     1       8.206  29.301  58.848  1.00  0.00     0.162 HD
HETATM   14  O   UNL     1      10.407  30.750  57.101  1.00  0.00    -0.273 OA
BRANCH  12  15
HETATM   15  C   UNL     1       8.954  31.193  59.462  1.00  0.00     0.150 C 
BRANCH  15  16
HETATM   16  C   UNL     1       8.911  30.979  60.997  1.00  0.00     0.254 C 
BRANCH  16  17
HETATM   17  N   UNL     1       8.205  32.110  61.729  1.00  0.00    -0.070 N 
HETATM   18  H   UNL     1       8.778  32.958  61.569  1.00  0.00     0.279 HD
HETATM   19  C   UNL     1       6.837  32.435  61.169  1.00  0.00     0.235 C 
HETATM   20  C   UNL     1       6.322  33.710  61.826  1.00  0.00     0.028 C 
HETATM   21  C   UNL     1       6.286  33.590  63.345  1.00  0.00     0.003 C 
HETATM   22  C   UNL     1       7.636  33.152  63.900  1.00  0.00     0.028 C 
HETATM   23  C   UNL     1       8.146  31.887  63.222  1.00  0.00     0.235 C 
ENDBRANCH  16  17
ENDBRANCH  15  16
ENDBRANCH  12  15
ENDBRANCH  10  11
ENDBRANCH   5  10
BRANCH   6  24
HETATM   24  C   UNL     1       6.985  26.916  53.149  1.00  0.00    -0.024 C 
HETATM   25  C   UNL     1       6.924  25.936  52.128  1.00  0.00    -0.053 C 
HETATM   26  C   UNL     1       7.689  24.638  52.094  1.00  0.00     0.049 C 
HETATM   27  C   UNL     1       6.066  26.143  51.024  1.00  0.00     0.014 C 
HETATM   28  C   UNL     1       5.314  27.308  50.869  1.00  0.00    -0.061 C 
HETATM   29  C   UNL     1       4.395  27.472  49.693  1.00  0.00     0.048 C 
HETATM   30  C   UNL     1       5.488  28.334  51.788  1.00  0.00     0.007 C 
HETATM   31  C   UNL     1       6.316  28.147  52.897  1.00  0.00     0.011 C 
ENDBRANCH   6  24
BRANCH   9  32
HETATM   32  C   UNL     1       8.151  24.612  55.731  1.00  0.00     0.293 C 
HETATM   33  O   UNL     1       9.020  24.789  56.569  1.00  0.00    -0.259 OA
BRANCH  32  34
HETATM   34  O   UNL     1       8.048  23.604  54.848  1.00  0.00    -0.323 OA
HETATM   35  C   UNL     1       7.923  22.282  55.394  1.00  0.00     0.213 C 
ENDBRANCH  32  34
ENDBRANCH   9  32
BRANCH   1  36
HETATM   36  C   UNL     1       5.455  24.650  57.034  1.00  0.00     0.056 C 
HETATM   37  C   UNL     1       4.174  25.066  57.741  1.00  0.00     0.011 C 
ENDBRANCH   1  36
TORSDOF 9
ENDMDL
MODEL 9
REMARK VINA RESULT:      -7.0      3.509      5.766
REMARK  9 active torsions:
REMARK  status: ('A' for Active; 'I' for Inactive)
REMARK    1  A    between atoms: C_2  and  C_3 
REMARK    2  A    between atoms: C_7  and  C_8 
REMARK    3  A    between atoms: C_8  and  C_9 
REMARK       I    between atoms: C_9  and  N_10 
REMARK    4  A    between atoms: N_10  and  C_11 
REMARK    5  A    between atoms: C_11  and  C_12 
REMARK    6  A    between atoms: C_12  and  N_13 
REMARK    7  A    between atoms: C_21  and  C_22 
REMARK    8  A    between atoms: C_32  and  C_33 
REMARK    9  A    between atoms: C_33  and  O_34 
ROOT
HETATM    1  C   UNL     1       6.485  27.923  53.127  1.00  0.00     0.051 C 
HETATM    2  N   UNL     1       7.707  28.394  53.606  1.00  0.00    -0.228 NA
HETATM    3  C   UNL     1       7.891  28.285  54.881  1.00  0.00     0.170 C 
HETATM    4  N   UNL     1       6.878  27.560  55.803  1.00  0.00    -0.318 N 
HETATM    5  C   UNL     1       6.681  28.290  56.846  1.00  0.00     0.011 C 
HETATM    6  C   UNL     1       6.236  26.425  55.092  1.00  0.00     0.166 C 
HETATM    7  S   UNL     1       9.017  29.212  55.806  1.00  0.00    -0.086 SA
HETATM    8  C   UNL     1       7.857  29.176  57.227  1.00  0.00     0.135 C 
HETATM    9  C   UNL     1       5.750  27.009  53.806  1.00  0.00     0.069 C 
ENDROOT
BRANCH   5  10
HETATM   10  C   UNL     1       5.284  28.505  57.372  1.00  0.00     0.156 C 
BRANCH  10  11
HETATM   11  C   UNL     1       4.778  29.844  56.842  1.00  0.00     0.223 C 
HETATM   12  N   UNL     1       4.588  29.977  55.497  1.00  0.00    -0.359 N 
HETATM   13  H   UNL     1       4.873  29.220  54.879  1.00  0.00     0.162 HD
HETATM   14  O   UNL     1       4.557  30.778  57.612  1.00  0.00    -0.273 OA
BRANCH  12  15
HETATM   15  C   UNL     1       4.392  31.290  54.857  1.00  0.00     0.150 C 
BRANCH  15  16
HETATM   16  C   UNL     1       2.986  31.552  54.259  1.00  0.00     0.254 C 
BRANCH  16  17
HETATM   17  N   UNL     1       3.034  31.939  52.790  1.00  0.00    -0.070 N 
HETATM   18  H   UNL     1       3.929  32.443  52.655  1.00  0.00     0.279 HD
HETATM   19  C   UNL     1       3.090  30.755  51.851  1.00  0.00     0.235 C 
HETATM   20  C   UNL     1       3.355  31.255  50.435  1.00  0.00     0.028 C 
HETATM   21  C   UNL     1       2.309  32.270  49.988  1.00  0.00     0.003 C 
HETATM   22  C   UNL     1       2.172  33.407  50.994  1.00  0.00     0.028 C 
HETATM   23  C   UNL     1       1.925  32.891  52.405  1.00  0.00     0.235 C 
ENDBRANCH  16  17
ENDBRANCH  15  16
ENDBRANCH  12  15
ENDBRANCH  10  11
ENDBRANCH   5  10
BRANCH   6  24
HETATM   24  C   UNL     1       7.281  25.283  55.034  1.00  0.00    -0.024 C 
HETATM   25  C   UNL     1       7.948  24.681  56.129  1.00  0.00    -0.053 C 
HETATM   26  C   UNL     1       7.984  25.200  57.544  1.00  0.00     0.049 C 
HETATM   27  C   UNL     1       8.648  23.469  55.929  1.00  0.00     0.014 C 
HETATM   28  C   UNL     1       8.756  22.866  54.675  1.00  0.00    -0.061 C 
HETATM   29  C   UNL     1       9.485  21.564  54.515  1.00  0.00     0.048 C 
HETATM   30  C   UNL     1       8.233  23.532  53.574  1.00  0.00     0.007 C 
HETATM   31  C   UNL     1       7.523  24.722  53.749  1.00  0.00     0.011 C 
ENDBRANCH   6  24
BRANCH   9  32
HETATM   32  C   UNL     1       4.320  26.788  53.516  1.00  0.00     0.293 C 
HETATM   33  O   UNL     1       3.511  27.701  53.539  1.00  0.00    -0.259 OA
BRANCH  32  34
HETATM   34  O   UNL     1       4.075  25.469  53.417  1.00  0.00    -0.323 OA
HETATM   35  C   UNL     1       4.605  24.802  52.261  1.00  0.00     0.213 C 
ENDBRANCH  32  34
ENDBRANCH   9  32
BRANCH   1  36
HETATM   36  C   UNL     1       6.043  28.556  51.821  1.00  0.00     0.056 C 
HETATM   37  C   UNL     1       5.769  27.514  50.747  1.00  0.00     0.011 C 
ENDBRANCH   1  36
TORSDOF 9
ENDMDL
MODEL 10
REMARK VINA RESULT:      -6.9      3.030      9.455
REMARK  9 active torsions:
REMARK  status: ('A' for Active; 'I' for Inactive)
REMARK    1  A    between atoms: C_2  and  C_3 
REMARK    2  A    between atoms: C_7  and  C_8 
REMARK    3  A    between atoms: C_8  and  C_9 
REMARK       I    between atoms: C_9  and  N_10 
REMARK    4  A    between atoms: N_10  and  C_11 
REMARK    5  A    between atoms: C_11  and  C_12 
REMARK    6  A    between atoms: C_12  and  N_13 
REMARK    7  A    between atoms: C_21  and  C_22 
REMARK    8  A    between atoms: C_32  and  C_33 
REMARK    9  A    between atoms: C_33  and  O_34 
ROOT
HETATM    1  C   UNL     1       5.589  32.284  59.987  1.00  0.00     0.051 C 
HETATM    2  N   UNL     1       6.838  32.130  59.386  1.00  0.00    -0.228 NA
HETATM    3  C   UNL     1       6.850  31.478  58.271  1.00  0.00     0.170 C 
HETATM    4  N   UNL     1       5.547  31.010  57.574  1.00  0.00    -0.318 N 
HETATM    5  C   UNL     1       5.700  29.785  57.204  1.00  0.00     0.011 C 
HETATM    6  C   UNL     1       4.448  31.982  57.802  1.00  0.00     0.166 C 
HETATM    7  S   UNL     1       8.232  30.698  57.588  1.00  0.00    -0.086 SA
HETATM    8  C   UNL     1       7.139  29.392  56.905  1.00  0.00     0.135 C 
HETATM    9  C   UNL     1       4.436  32.202  59.279  1.00  0.00     0.069 C 
ENDROOT
BRANCH   5  10
HETATM   10  C   UNL     1       4.601  28.777  57.431  1.00  0.00     0.156 C 
BRANCH  10  11
HETATM   11  C   UNL     1       4.822  27.610  56.473  1.00  0.00     0.223 C 
HETATM   12  N   UNL     1       4.896  26.351  56.992  1.00  0.00    -0.359 N 
HETATM   13  H   UNL     1       4.894  26.231  58.003  1.00  0.00     0.162 HD
HETATM   14  O   UNL     1       4.940  27.808  55.264  1.00  0.00    -0.273 OA
BRANCH  12  15
HETATM   15  C   UNL     1       5.395  25.205  56.211  1.00  0.00     0.150 C 
BRANCH  15  16
HETATM   16  C   UNL     1       6.863  24.786  56.480  1.00  0.00     0.254 C 
BRANCH  16  17
HETATM   17  N   UNL     1       7.484  24.034  55.314  1.00  0.00    -0.070 N 
HETATM   18  H   UNL     1       8.480  24.318  55.286  1.00  0.00     0.279 HD
HETATM   19  C   UNL     1       7.495  22.532  55.497  1.00  0.00     0.235 C 
HETATM   20  C   UNL     1       8.328  21.903  54.385  1.00  0.00     0.028 C 
HETATM   21  C   UNL     1       7.813  22.290  53.003  1.00  0.00     0.003 C 
HETATM   22  C   UNL     1       7.694  23.803  52.859  1.00  0.00     0.028 C 
HETATM   23  C   UNL     1       6.875  24.419  53.985  1.00  0.00     0.235 C 
ENDBRANCH  16  17
ENDBRANCH  15  16
ENDBRANCH  12  15
ENDBRANCH  10  11
ENDBRANCH   5  10
BRANCH   6  24
HETATM   24  C   UNL     1       4.723  33.195  56.878  1.00  0.00    -0.024 C 
HETATM   25  C   UNL     1       4.756  33.198  55.462  1.00  0.00    -0.053 C 
HETATM   26  C   UNL     1       4.798  31.984  54.570  1.00  0.00     0.049 C 
HETATM   27  C   UNL     1       4.734  34.433  54.775  1.00  0.00     0.014 C 
HETATM   28  C   UNL     1       4.739  35.660  55.440  1.00  0.00    -0.061 C 
HETATM   29  C   UNL     1       4.687  36.946  54.669  1.00  0.00     0.048 C 
HETATM   30  C   UNL     1       4.860  35.660  56.823  1.00  0.00     0.007 C 
HETATM   31  C   UNL     1       4.866  34.454  57.526  1.00  0.00     0.011 C 
ENDBRANCH   6  24
BRANCH   9  32
HETATM   32  C   UNL     1       3.132  31.988  59.936  1.00  0.00     0.293 C 
HETATM   33  O   UNL     1       2.779  30.886  60.320  1.00  0.00    -0.259 OA
BRANCH  32  34
HETATM   34  O   UNL     1       2.397  33.112  59.863  1.00  0.00    -0.323 OA
HETATM   35  C   UNL     1       2.416  33.968  61.015  1.00  0.00     0.213 C 
ENDBRANCH  32  34
ENDBRANCH   9  32
BRANCH   1  36
HETATM   36  C   UNL     1       5.642  32.500  61.487  1.00  0.00     0.056 C 
HETATM   37  C   UNL     1       6.158  33.885  61.846  1.00  0.00     0.011 C 
ENDBRANCH   1  36
TORSDOF 9
ENDMDL
