MODEL 1
REMARK VINA RESULT:      -8.5      0.000      0.000
REMARK  9 active torsions:
REMARK  status: ('A' for Active; 'I' for Inactive)
REMARK    1  A    between atoms: C_3  and  C_4 
REMARK    2  A    between atoms: C_4  and  O_5 
REMARK    3  A    between atoms: C_8  and  N_9 
REMARK       I    between atoms: N_9  and  C_10 
REMARK    4  A    between atoms: C_10  and  C_11 
REMARK    5  A    between atoms: C_11  and  N_12 
REMARK    6  A    between atoms: C_14  and  C_15 
REMARK    7  A    between atoms: C_16  and  O_17 
REMARK    8  A    between atoms: C_21  and  O_22 
REMARK    9  A    between atoms: C_26  and  O_27 
ROOT
HETATM    1  N   UNL     1       4.863  27.916  51.774  1.00  0.00    -0.054 N 
HETATM    2  H   UNL     1       5.527  28.609  52.144  1.00  0.00     0.281 HD
HETATM    3  C   UNL     1       3.807  28.815  51.113  1.00  0.00     0.231 C 
HETATM    4  C   UNL     1       3.075  28.074  49.955  1.00  0.00     0.055 C 
HETATM    5  C   UNL     1       3.925  27.166  49.045  1.00  0.00     0.065 C 
HETATM    6  C   UNL     1       4.834  26.274  49.886  1.00  0.00     0.066 C 
HETATM    7  C   UNL     1       5.689  27.097  50.831  1.00  0.00     0.239 C 
HETATM    8  C   UNL     1       2.150  28.983  49.128  1.00  0.00     0.010 C 
HETATM    9  C   UNL     1       1.237  28.147  48.229  1.00  0.00     0.001 C 
HETATM   10  C   UNL     1       2.016  27.175  47.349  1.00  0.00     0.003 C 
HETATM   11  C   UNL     1       2.996  26.314  48.154  1.00  0.00     0.038 C 
ENDROOT
BRANCH   1  12
HETATM   12  C   UNL     1       4.411  27.220  53.065  1.00  0.00     0.338 C 
BRANCH  12  13
HETATM   13  C   UNL     1       4.964  25.821  53.314  1.00  0.00     0.248 C 
HETATM   14  N   UNL     1       6.298  25.796  53.694  1.00  0.00    -0.319 N 
HETATM   15  H   UNL     1       6.932  26.498  53.336  1.00  0.00     0.169 HD
HETATM   16  O   UNL     1       4.272  24.828  53.094  1.00  0.00    -0.271 OA
BRANCH  14  17
HETATM   17  C   UNL     1       6.886  24.595  54.035  1.00  0.00     0.094 C 
HETATM   18  C   UNL     1       7.085  23.951  55.242  1.00  0.00     0.080 C 
HETATM   19  C   UNL     1       7.618  22.611  54.997  1.00  0.00    -0.030 C 
HETATM   20  C   UNL     1       7.903  21.592  56.062  1.00  0.00     0.050 C 
HETATM   21  C   UNL     1       7.868  22.397  53.645  1.00  0.00    -0.012 C 
HETATM   22  S   UNL     1       7.525  23.777  52.701  1.00  0.00    -0.076 SA
HETATM   23  C   UNL     1       8.410  21.169  52.981  1.00  0.00     0.057 C 
BRANCH  18  24
HETATM   24  C   UNL     1       6.849  24.610  56.538  1.00  0.00     0.296 C 
HETATM   25  O   UNL     1       7.733  24.793  57.371  1.00  0.00    -0.259 OA
BRANCH  24  26
HETATM   26  O   UNL     1       5.539  24.920  56.752  1.00  0.00    -0.322 OA
HETATM   27  C   UNL     1       5.271  26.298  57.018  1.00  0.00     0.213 C 
ENDBRANCH  24  26
ENDBRANCH  18  24
ENDBRANCH  14  17
ENDBRANCH  12  13
ENDBRANCH   1  12
BRANCH   3  28
HETATM   28  C   UNL     1       4.370  30.227  50.927  1.00  0.00     0.009 A 
HETATM   29  C   UNL     1       3.984  31.254  51.823  1.00  0.00     0.076 A 
HETATM   30  C   UNL     1       4.528  32.537  51.707  1.00  0.00     0.040 A 
HETATM   31  C   UNL     1       5.459  32.817  50.709  1.00  0.00     0.039 A 
HETATM   32  C   UNL     1       5.854  31.825  49.819  1.00  0.00     0.069 A 
HETATM   33  C   UNL     1       5.326  30.539  49.945  1.00  0.00     0.048 A 
BRANCH  29  34
HETATM   34  O   UNL     1       3.117  30.894  52.824  1.00  0.00    -0.355 OA
HETATM   35  C   UNL     1       3.639  30.904  54.153  1.00  0.00     0.210 C 
ENDBRANCH  29  34
BRANCH  32  36
HETATM   36  O   UNL     1       6.789  32.214  48.901  1.00  0.00    -0.356 OA
HETATM   37  C   UNL     1       6.699  33.552  48.423  1.00  0.00     0.210 C 
ENDBRANCH  32  36
ENDBRANCH   3  28
BRANCH   5  38
HETATM   38  O   UNL     1       4.782  27.942  48.213  1.00  0.00    -0.389 OA
HETATM   39  H   UNL     1       4.263  28.373  47.508  1.00  0.00     0.210 HD
ENDBRANCH   5  38
TORSDOF 9
ENDMDL
MODEL 2
REMARK VINA RESULT:      -8.3      4.223      8.384
REMARK  9 active torsions:
REMARK  status: ('A' for Active; 'I' for Inactive)
REMARK    1  A    between atoms: C_3  and  C_4 
REMARK    2  A    between atoms: C_4  and  O_5 
REMARK    3  A    between atoms: C_8  and  N_9 
REMARK       I    between atoms: N_9  and  C_10 
REMARK    4  A    between atoms: C_10  and  C_11 
REMARK    5  A    between atoms: C_11  and  N_12 
REMARK    6  A    between atoms: C_14  and  C_15 
REMARK    7  A    between atoms: C_16  and  O_17 
REMARK    8  A    between atoms: C_21  and  O_22 
REMARK    9  A    between atoms: C_26  and  O_27 
ROOT
HETATM    1  N   UNL     1       6.982  26.847  55.521  1.00  0.00    -0.054 N 
HETATM    2  H   UNL     1       7.298  26.171  56.229  1.00  0.00     0.281 HD
HETATM    3  C   UNL     1       7.370  26.138  54.214  1.00  0.00     0.231 C 
HETATM    4  C   UNL     1       6.460  26.588  53.034  1.00  0.00     0.055 C 
HETATM    5  C   UNL     1       4.960  26.790  53.331  1.00  0.00     0.065 C 
HETATM    6  C   UNL     1       4.778  27.604  54.608  1.00  0.00     0.066 C 
HETATM    7  C   UNL     1       5.511  26.967  55.774  1.00  0.00     0.239 C 
HETATM    8  C   UNL     1       6.667  25.769  51.748  1.00  0.00     0.010 C 
HETATM    9  C   UNL     1       5.990  26.452  50.558  1.00  0.00     0.001 C 
HETATM   10  C   UNL     1       4.514  26.744  50.816  1.00  0.00     0.003 C 
HETATM   11  C   UNL     1       4.289  27.495  52.133  1.00  0.00     0.038 C 
ENDROOT
BRANCH   1  12
HETATM   12  C   UNL     1       7.836  28.071  55.878  1.00  0.00     0.338 C 
BRANCH  12  13
HETATM   13  C   UNL     1       7.481  28.796  57.172  1.00  0.00     0.248 C 
HETATM   14  N   UNL     1       7.163  30.136  57.003  1.00  0.00    -0.319 N 
HETATM   15  H   UNL     1       7.616  30.668  56.271  1.00  0.00     0.169 HD
HETATM   16  O   UNL     1       7.572  28.221  58.255  1.00  0.00    -0.271 OA
BRANCH  14  17
HETATM   17  C   UNL     1       6.737  30.876  58.087  1.00  0.00     0.094 C 
HETATM   18  C   UNL     1       7.402  31.480  59.137  1.00  0.00     0.080 C 
HETATM   19  C   UNL     1       6.459  32.284  59.915  1.00  0.00    -0.030 C 
HETATM   20  C   UNL     1       6.826  33.135  61.095  1.00  0.00     0.050 C 
HETATM   21  C   UNL     1       5.156  32.140  59.448  1.00  0.00    -0.012 C 
HETATM   22  S   UNL     1       5.055  31.034  58.152  1.00  0.00    -0.076 SA
HETATM   23  C   UNL     1       3.907  32.786  59.961  1.00  0.00     0.057 C 
BRANCH  18  24
HETATM   24  C   UNL     1       8.829  31.236  59.413  1.00  0.00     0.296 C 
HETATM   25  O   UNL     1       9.225  30.568  60.364  1.00  0.00    -0.259 OA
BRANCH  24  26
HETATM   26  O   UNL     1       9.661  31.894  58.558  1.00  0.00    -0.322 OA
HETATM   27  C   UNL     1      10.543  31.062  57.801  1.00  0.00     0.213 C 
ENDBRANCH  24  26
ENDBRANCH  18  24
ENDBRANCH  14  17
ENDBRANCH  12  13
ENDBRANCH   1  12
BRANCH   3  28
HETATM   28  C   UNL     1       7.648  24.658  54.490  1.00  0.00     0.009 A 
HETATM   29  C   UNL     1       8.114  24.263  55.767  1.00  0.00     0.076 A 
HETATM   30  C   UNL     1       8.321  22.911  56.060  1.00  0.00     0.040 A 
HETATM   31  C   UNL     1       8.068  21.938  55.095  1.00  0.00     0.039 A 
HETATM   32  C   UNL     1       7.608  22.301  53.835  1.00  0.00     0.069 A 
HETATM   33  C   UNL     1       7.383  23.649  53.548  1.00  0.00     0.048 A 
BRANCH  29  34
HETATM   34  O   UNL     1       8.278  25.264  56.691  1.00  0.00    -0.355 OA
HETATM   35  C   UNL     1       8.777  24.876  57.971  1.00  0.00     0.210 C 
ENDBRANCH  29  34
BRANCH  32  36
HETATM   36  O   UNL     1       7.373  21.257  52.984  1.00  0.00    -0.356 OA
HETATM   37  C   UNL     1       8.464  20.378  52.735  1.00  0.00     0.210 C 
ENDBRANCH  32  36
ENDBRANCH   3  28
BRANCH   5  38
HETATM   38  O   UNL     1       4.315  25.540  53.555  1.00  0.00    -0.389 OA
HETATM   39  H   UNL     1       3.592  25.418  52.910  1.00  0.00     0.210 HD
ENDBRANCH   5  38
TORSDOF 9
ENDMDL
MODEL 3
REMARK VINA RESULT:      -8.3      4.110      8.458
REMARK  9 active torsions:
REMARK  status: ('A' for Active; 'I' for Inactive)
REMARK    1  A    between atoms: C_3  and  C_4 
REMARK    2  A    between atoms: C_4  and  O_5 
REMARK    3  A    between atoms: C_8  and  N_9 
REMARK       I    between atoms: N_9  and  C_10 
REMARK    4  A    between atoms: C_10  and  C_11 
REMARK    5  A    between atoms: C_11  and  N_12 
REMARK    6  A    between atoms: C_14  and  C_15 
REMARK    7  A    between atoms: C_16  and  O_17 
REMARK    8  A    between atoms: C_21  and  O_22 
REMARK    9  A    between atoms: C_26  and  O_27 
ROOT
HETATM    1  N   UNL     1       7.236  26.759  55.644  1.00  0.00    -0.054 N 
HETATM    2  H   UNL     1       7.582  26.063  56.318  1.00  0.00     0.281 HD
HETATM    3  C   UNL     1       7.518  26.064  54.303  1.00  0.00     0.231 C 
HETATM    4  C   UNL     1       6.542  26.557  53.194  1.00  0.00     0.055 C 
HETATM    5  C   UNL     1       5.072  26.791  53.594  1.00  0.00     0.065 C 
HETATM    6  C   UNL     1       4.996  27.586  54.894  1.00  0.00     0.066 C 
HETATM    7  C   UNL     1       5.789  26.910  55.998  1.00  0.00     0.239 C 
HETATM    8  C   UNL     1       6.642  25.756  51.884  1.00  0.00     0.010 C 
HETATM    9  C   UNL     1       5.904  26.477  50.754  1.00  0.00     0.001 C 
HETATM   10  C   UNL     1       4.457  26.800  51.115  1.00  0.00     0.003 C 
HETATM   11  C   UNL     1       4.340  27.533  52.456  1.00  0.00     0.038 C 
ENDROOT
BRANCH   1  12
HETATM   12  C   UNL     1       8.144  27.955  55.962  1.00  0.00     0.338 C 
BRANCH  12  13
HETATM   13  C   UNL     1       7.926  28.637  57.309  1.00  0.00     0.248 C 
HETATM   14  N   UNL     1       8.167  30.003  57.299  1.00  0.00    -0.319 N 
HETATM   15  H   UNL     1       8.880  30.380  56.688  1.00  0.00     0.169 HD
HETATM   16  O   UNL     1       7.648  27.974  58.306  1.00  0.00    -0.271 OA
BRANCH  14  17
HETATM   17  C   UNL     1       7.918  30.746  58.435  1.00  0.00     0.094 C 
HETATM   18  C   UNL     1       6.827  31.481  58.861  1.00  0.00     0.080 C 
HETATM   19  C   UNL     1       7.048  31.930  60.236  1.00  0.00    -0.030 C 
HETATM   20  C   UNL     1       6.056  32.702  61.057  1.00  0.00     0.050 C 
HETATM   21  C   UNL     1       8.316  31.582  60.691  1.00  0.00    -0.012 C 
HETATM   22  S   UNL     1       9.236  30.791  59.491  1.00  0.00    -0.076 SA
HETATM   23  C   UNL     1       8.931  31.851  62.029  1.00  0.00     0.057 C 
BRANCH  18  24
HETATM   24  C   UNL     1       5.690  31.792  57.977  1.00  0.00     0.296 C 
HETATM   25  O   UNL     1       4.928  30.936  57.534  1.00  0.00    -0.259 OA
BRANCH  24  26
HETATM   26  O   UNL     1       5.620  33.110  57.636  1.00  0.00    -0.322 OA
HETATM   27  C   UNL     1       4.693  33.424  56.595  1.00  0.00     0.213 C 
ENDBRANCH  24  26
ENDBRANCH  18  24
ENDBRANCH  14  17
ENDBRANCH  12  13
ENDBRANCH   1  12
BRANCH   3  28
HETATM   28  C   UNL     1       7.775  24.573  54.535  1.00  0.00     0.009 A 
HETATM   29  C   UNL     1       8.255  24.137  55.794  1.00  0.00     0.076 A 
HETATM   30  C   UNL     1       8.443  22.775  56.048  1.00  0.00     0.040 A 
HETATM   31  C   UNL     1       8.159  21.832  55.063  1.00  0.00     0.039 A 
HETATM   32  C   UNL     1       7.686  22.235  53.820  1.00  0.00     0.069 A 
HETATM   33  C   UNL     1       7.479  23.593  53.571  1.00  0.00     0.048 A 
BRANCH  29  34
HETATM   34  O   UNL     1       8.449  25.111  56.741  1.00  0.00    -0.355 OA
HETATM   35  C   UNL     1       8.957  24.680  58.005  1.00  0.00     0.210 C 
ENDBRANCH  29  34
BRANCH  32  36
HETATM   36  O   UNL     1       7.421  21.218  52.946  1.00  0.00    -0.356 OA
HETATM   37  C   UNL     1       8.433  20.230  52.788  1.00  0.00     0.210 C 
ENDBRANCH  32  36
ENDBRANCH   3  28
BRANCH   5  38
HETATM   38  O   UNL     1       4.411  25.553  53.841  1.00  0.00    -0.389 OA
HETATM   39  H   UNL     1       4.151  25.140  52.996  1.00  0.00     0.210 HD
ENDBRANCH   5  38
TORSDOF 9
ENDMDL
MODEL 4
REMARK VINA RESULT:      -8.2      1.442      1.557
REMARK  9 active torsions:
REMARK  status: ('A' for Active; 'I' for Inactive)
REMARK    1  A    between atoms: C_3  and  C_4 
REMARK    2  A    between atoms: C_4  and  O_5 
REMARK    3  A    between atoms: C_8  and  N_9 
REMARK       I    between atoms: N_9  and  C_10 
REMARK    4  A    between atoms: C_10  and  C_11 
REMARK    5  A    between atoms: C_11  and  N_12 
REMARK    6  A    between atoms: C_14  and  C_15 
REMARK    7  A    between atoms: C_16  and  O_17 
REMARK    8  A    between atoms: C_21  and  O_22 
REMARK    9  A    between atoms: C_26  and  O_27 
ROOT
HETATM    1  N   UNL     1       4.507  28.361  50.941  1.00  0.00    -0.054 N 
HETATM    2  H   UNL     1       5.094  29.182  51.143  1.00  0.00     0.281 HD
HETATM    3  C   UNL     1       3.329  28.996  50.186  1.00  0.00     0.231 C 
HETATM    4  C   UNL     1       2.655  27.973  49.224  1.00  0.00     0.055 C 
HETATM    5  C   UNL     1       3.579  27.012  48.450  1.00  0.00     0.065 C 
HETATM    6  C   UNL     1       4.615  26.401  49.389  1.00  0.00     0.066 C 
HETATM    7  C   UNL     1       5.395  27.479  50.121  1.00  0.00     0.239 C 
HETATM    8  C   UNL     1       1.601  28.601  48.296  1.00  0.00     0.010 C 
HETATM    9  C   UNL     1       0.767  27.514  47.615  1.00  0.00     0.001 C 
HETATM   10  C   UNL     1       1.629  26.488  46.886  1.00  0.00     0.003 C 
HETATM   11  C   UNL     1       2.731  25.910  47.780  1.00  0.00     0.038 C 
ENDROOT
BRANCH   1  12
HETATM   12  C   UNL     1       4.184  27.873  52.360  1.00  0.00     0.338 C 
BRANCH  12  13
HETATM   13  C   UNL     1       5.301  27.147  53.102  1.00  0.00     0.248 C 
HETATM   14  N   UNL     1       4.978  25.856  53.492  1.00  0.00    -0.319 N 
HETATM   15  H   UNL     1       4.023  25.634  53.742  1.00  0.00     0.169 HD
HETATM   16  O   UNL     1       6.347  27.731  53.383  1.00  0.00    -0.271 OA
BRANCH  14  17
HETATM   17  C   UNL     1       5.938  25.066  54.092  1.00  0.00     0.094 C 
HETATM   18  C   UNL     1       6.278  24.831  55.410  1.00  0.00     0.080 C 
HETATM   19  C   UNL     1       7.275  23.762  55.475  1.00  0.00    -0.030 C 
HETATM   20  C   UNL     1       7.839  23.189  56.742  1.00  0.00     0.050 C 
HETATM   21  C   UNL     1       7.671  23.353  54.205  1.00  0.00    -0.012 C 
HETATM   22  S   UNL     1       6.914  24.259  52.972  1.00  0.00    -0.076 SA
HETATM   23  C   UNL     1       8.661  22.293  53.835  1.00  0.00     0.057 C 
BRANCH  18  24
HETATM   24  C   UNL     1       5.737  25.634  56.521  1.00  0.00     0.296 C 
HETATM   25  O   UNL     1       4.903  25.208  57.316  1.00  0.00    -0.259 OA
BRANCH  24  26
HETATM   26  O   UNL     1       6.192  26.919  56.526  1.00  0.00    -0.322 OA
HETATM   27  C   UNL     1       5.208  27.916  56.812  1.00  0.00     0.213 C 
ENDBRANCH  24  26
ENDBRANCH  18  24
ENDBRANCH  14  17
ENDBRANCH  12  13
ENDBRANCH   1  12
BRANCH   3  28
HETATM   28  C   UNL     1       3.711  30.402  49.716  1.00  0.00     0.009 A 
HETATM   29  C   UNL     1       3.511  31.505  50.582  1.00  0.00     0.076 A 
HETATM   30  C   UNL     1       3.905  32.790  50.197  1.00  0.00     0.040 A 
HETATM   31  C   UNL     1       4.500  32.998  48.954  1.00  0.00     0.039 A 
HETATM   32  C   UNL     1       4.708  31.932  48.087  1.00  0.00     0.069 A 
HETATM   33  C   UNL     1       4.333  30.645  48.478  1.00  0.00     0.048 A 
BRANCH  29  34
HETATM   34  O   UNL     1       2.984  31.219  51.817  1.00  0.00    -0.355 OA
HETATM   35  C   UNL     1       3.767  31.601  52.948  1.00  0.00     0.210 C 
ENDBRANCH  29  34
BRANCH  32  36
HETATM   36  O   UNL     1       5.320  32.258  46.910  1.00  0.00    -0.356 OA
HETATM   37  C   UNL     1       5.395  33.642  46.588  1.00  0.00     0.210 C 
ENDBRANCH  32  36
ENDBRANCH   3  28
BRANCH   5  38
HETATM   38  O   UNL     1       4.309  27.710  47.445  1.00  0.00    -0.389 OA
HETATM   39  H   UNL     1       4.375  27.162  46.640  1.00  0.00     0.210 HD
ENDBRANCH   5  38
TORSDOF 9
ENDMDL
MODEL 5
REMARK VINA RESULT:      -7.7      3.026      8.282
REMARK  9 active torsions:
REMARK  status: ('A' for Active; 'I' for Inactive)
REMARK    1  A    between atoms: C_3  and  C_4 
REMARK    2  A    between atoms: C_4  and  O_5 
REMARK    3  A    between atoms: C_8  and  N_9 
REMARK       I    between atoms: N_9  and  C_10 
REMARK    4  A    between atoms: C_10  and  C_11 
REMARK    5  A    between atoms: C_11  and  N_12 
REMARK    6  A    between atoms: C_14  and  C_15 
REMARK    7  A    between atoms: C_16  and  O_17 
REMARK    8  A    between atoms: C_21  and  O_22 
REMARK    9  A    between atoms: C_26  and  O_27 
ROOT
HETATM    1  N   UNL     1       5.985  27.740  54.018  1.00  0.00    -0.054 N 
HETATM    2  H   UNL     1       5.502  28.637  54.163  1.00  0.00     0.281 HD
HETATM    3  C   UNL     1       7.004  27.742  55.168  1.00  0.00     0.231 C 
HETATM    4  C   UNL     1       7.394  26.293  55.582  1.00  0.00     0.055 C 
HETATM    5  C   UNL     1       6.271  25.236  55.611  1.00  0.00     0.065 C 
HETATM    6  C   UNL     1       5.432  25.321  54.340  1.00  0.00     0.066 C 
HETATM    7  C   UNL     1       4.891  26.724  54.131  1.00  0.00     0.239 C 
HETATM    8  C   UNL     1       8.254  26.226  56.856  1.00  0.00     0.010 C 
HETATM    9  C   UNL     1       8.859  24.830  57.025  1.00  0.00     0.001 C 
HETATM   10  C   UNL     1       7.802  23.729  56.993  1.00  0.00     0.003 C 
HETATM   11  C   UNL     1       6.891  23.831  55.765  1.00  0.00     0.038 C 
ENDROOT
BRANCH   1  12
HETATM   12  C   UNL     1       6.580  27.947  52.619  1.00  0.00     0.338 C 
BRANCH  12  13
HETATM   13  C   UNL     1       5.678  28.615  51.586  1.00  0.00     0.248 C 
HETATM   14  N   UNL     1       4.554  27.874  51.251  1.00  0.00    -0.319 N 
HETATM   15  H   UNL     1       4.603  26.864  51.252  1.00  0.00     0.169 HD
HETATM   16  O   UNL     1       6.009  29.677  51.062  1.00  0.00    -0.271 OA
BRANCH  14  17
HETATM   17  C   UNL     1       3.615  28.413  50.395  1.00  0.00     0.094 C 
HETATM   18  C   UNL     1       3.228  28.105  49.104  1.00  0.00     0.080 C 
HETATM   19  C   UNL     1       2.056  28.903  48.742  1.00  0.00    -0.030 C 
HETATM   20  C   UNL     1       1.315  28.799  47.441  1.00  0.00     0.050 C 
HETATM   21  C   UNL     1       1.722  29.808  49.745  1.00  0.00    -0.012 C 
HETATM   22  S   UNL     1       2.811  29.743  51.058  1.00  0.00    -0.076 SA
HETATM   23  C   UNL     1       0.599  30.797  49.770  1.00  0.00     0.057 C 
BRANCH  18  24
HETATM   24  C   UNL     1       3.982  27.165  48.256  1.00  0.00     0.296 C 
HETATM   25  O   UNL     1       4.544  27.500  47.216  1.00  0.00    -0.259 OA
BRANCH  24  26
HETATM   26  O   UNL     1       3.923  25.877  48.698  1.00  0.00    -0.322 OA
HETATM   27  C   UNL     1       3.011  25.031  47.995  1.00  0.00     0.213 C 
ENDBRANCH  24  26
ENDBRANCH  18  24
ENDBRANCH  14  17
ENDBRANCH  12  13
ENDBRANCH   1  12
BRANCH   3  28
HETATM   28  C   UNL     1       6.608  28.791  56.210  1.00  0.00     0.009 A 
HETATM   29  C   UNL     1       7.604  29.633  56.764  1.00  0.00     0.076 A 
HETATM   30  C   UNL     1       7.258  30.636  57.675  1.00  0.00     0.040 A 
HETATM   31  C   UNL     1       5.928  30.818  58.046  1.00  0.00     0.039 A 
HETATM   32  C   UNL     1       4.933  30.005  57.516  1.00  0.00     0.069 A 
HETATM   33  C   UNL     1       5.274  29.016  56.592  1.00  0.00     0.048 A 
BRANCH  29  34
HETATM   34  O   UNL     1       8.883  29.446  56.303  1.00  0.00    -0.355 OA
HETATM   35  C   UNL     1       9.940  29.765  57.209  1.00  0.00     0.210 C 
ENDBRANCH  29  34
BRANCH  32  36
HETATM   36  O   UNL     1       3.666  30.296  57.938  1.00  0.00    -0.356 OA
HETATM   37  C   UNL     1       3.537  31.310  58.927  1.00  0.00     0.210 C 
ENDBRANCH  32  36
ENDBRANCH   3  28
BRANCH   5  38
HETATM   38  O   UNL     1       5.381  25.472  56.698  1.00  0.00    -0.389 OA
HETATM   39  H   UNL     1       4.474  25.211  56.449  1.00  0.00     0.210 HD
ENDBRANCH   5  38
TORSDOF 9
ENDMDL
MODEL 6
REMARK VINA RESULT:      -7.7      5.057      8.320
REMARK  9 active torsions:
REMARK  status: ('A' for Active; 'I' for Inactive)
REMARK    1  A    between atoms: C_3  and  C_4 
REMARK    2  A    between atoms: C_4  and  O_5 
REMARK    3  A    between atoms: C_8  and  N_9 
REMARK       I    between atoms: N_9  and  C_10 
REMARK    4  A    between atoms: C_10  and  C_11 
REMARK    5  A    between atoms: C_11  and  N_12 
REMARK    6  A    between atoms: C_14  and  C_15 
REMARK    7  A    between atoms: C_16  and  O_17 
REMARK    8  A    between atoms: C_21  and  O_22 
REMARK    9  A    between atoms: C_26  and  O_27 
ROOT
HETATM    1  N   UNL     1       5.346  29.018  55.523  1.00  0.00    -0.054 N 
HETATM    2  H   UNL     1       5.664  28.457  56.325  1.00  0.00     0.281 HD
HETATM    3  C   UNL     1       6.160  28.409  54.371  1.00  0.00     0.231 C 
HETATM    4  C   UNL     1       5.434  28.593  53.005  1.00  0.00     0.055 C 
HETATM    5  C   UNL     1       3.903  28.412  52.986  1.00  0.00     0.065 C 
HETATM    6  C   UNL     1       3.264  29.174  54.142  1.00  0.00     0.066 C 
HETATM    7  C   UNL     1       3.871  28.764  55.472  1.00  0.00     0.239 C 
HETATM    8  C   UNL     1       6.100  27.832  51.846  1.00  0.00     0.010 C 
HETATM    9  C   UNL     1       5.539  28.300  50.501  1.00  0.00     0.001 C 
HETATM   10  C   UNL     1       4.016  28.211  50.442  1.00  0.00     0.003 C 
HETATM   11  C   UNL     1       3.344  28.902  51.633  1.00  0.00     0.038 C 
ENDROOT
BRANCH   1  12
HETATM   12  C   UNL     1       5.780  30.425  55.956  1.00  0.00     0.338 C 
BRANCH  12  13
HETATM   13  C   UNL     1       5.703  30.733  57.448  1.00  0.00     0.248 C 
HETATM   14  N   UNL     1       5.934  32.064  57.765  1.00  0.00    -0.319 N 
HETATM   15  H   UNL     1       6.576  32.607  57.202  1.00  0.00     0.169 HD
HETATM   16  O   UNL     1       5.537  29.829  58.264  1.00  0.00    -0.271 OA
BRANCH  14  17
HETATM   17  C   UNL     1       5.803  32.484  59.073  1.00  0.00     0.094 C 
HETATM   18  C   UNL     1       6.695  32.593  60.123  1.00  0.00     0.080 C 
HETATM   19  C   UNL     1       6.043  33.262  61.249  1.00  0.00    -0.030 C 
HETATM   20  C   UNL     1       6.716  33.614  62.545  1.00  0.00     0.050 C 
HETATM   21  C   UNL     1       4.699  33.509  60.991  1.00  0.00    -0.012 C 
HETATM   22  S   UNL     1       4.215  32.909  59.468  1.00  0.00    -0.076 SA
HETATM   23  C   UNL     1       3.687  34.169  61.875  1.00  0.00     0.057 C 
BRANCH  18  24
HETATM   24  C   UNL     1       8.053  32.024  60.069  1.00  0.00     0.296 C 
HETATM   25  O   UNL     1       8.956  32.501  59.386  1.00  0.00    -0.259 OA
BRANCH  24  26
HETATM   26  O   UNL     1       8.181  30.871  60.785  1.00  0.00    -0.322 OA
HETATM   27  C   UNL     1       9.340  30.794  61.617  1.00  0.00     0.213 C 
ENDBRANCH  24  26
ENDBRANCH  18  24
ENDBRANCH  14  17
ENDBRANCH  12  13
ENDBRANCH   1  12
BRANCH   3  28
HETATM   28  C   UNL     1       6.729  27.053  54.797  1.00  0.00     0.009 A 
HETATM   29  C   UNL     1       7.525  26.968  55.965  1.00  0.00     0.076 A 
HETATM   30  C   UNL     1       8.008  25.732  56.405  1.00  0.00     0.040 A 
HETATM   31  C   UNL     1       7.709  24.570  55.698  1.00  0.00     0.039 A 
HETATM   32  C   UNL     1       6.928  24.627  54.550  1.00  0.00     0.069 A 
HETATM   33  C   UNL     1       6.429  25.858  54.120  1.00  0.00     0.048 A 
BRANCH  29  34
HETATM   34  O   UNL     1       7.725  28.140  56.651  1.00  0.00    -0.355 OA
HETATM   35  C   UNL     1       9.076  28.464  56.981  1.00  0.00     0.210 C 
ENDBRANCH  29  34
BRANCH  32  36
HETATM   36  O   UNL     1       6.684  23.420  53.958  1.00  0.00    -0.356 OA
HETATM   37  C   UNL     1       7.811  22.586  53.717  1.00  0.00     0.210 C 
ENDBRANCH  32  36
ENDBRANCH   3  28
BRANCH   5  38
HETATM   38  O   UNL     1       3.552  27.043  53.163  1.00  0.00    -0.389 OA
HETATM   39  H   UNL     1       2.592  26.925  53.032  1.00  0.00     0.210 HD
ENDBRANCH   5  38
TORSDOF 9
ENDMDL
MODEL 7
REMARK VINA RESULT:      -7.6      2.683      7.902
REMARK  9 active torsions:
REMARK  status: ('A' for Active; 'I' for Inactive)
REMARK    1  A    between atoms: C_3  and  C_4 
REMARK    2  A    between atoms: C_4  and  O_5 
REMARK    3  A    between atoms: C_8  and  N_9 
REMARK       I    between atoms: N_9  and  C_10 
REMARK    4  A    between atoms: C_10  and  C_11 
REMARK    5  A    between atoms: C_11  and  N_12 
REMARK    6  A    between atoms: C_14  and  C_15 
REMARK    7  A    between atoms: C_16  and  O_17 
REMARK    8  A    between atoms: C_21  and  O_22 
REMARK    9  A    between atoms: C_26  and  O_27 
ROOT
HETATM    1  N   UNL     1       5.059  27.650  52.714  1.00  0.00    -0.054 N 
HETATM    2  H   UNL     1       4.214  28.179  52.459  1.00  0.00     0.281 HD
HETATM    3  C   UNL     1       5.711  28.581  53.748  1.00  0.00     0.231 C 
HETATM    4  C   UNL     1       6.602  27.784  54.747  1.00  0.00     0.055 C 
HETATM    5  C   UNL     1       6.077  26.418  55.231  1.00  0.00     0.065 C 
HETATM    6  C   UNL     1       5.569  25.596  54.050  1.00  0.00     0.066 C 
HETATM    7  C   UNL     1       4.525  26.362  53.257  1.00  0.00     0.239 C 
HETATM    8  C   UNL     1       7.119  28.630  55.922  1.00  0.00     0.010 C 
HETATM    9  C   UNL     1       8.224  27.887  56.676  1.00  0.00     0.001 C 
HETATM   10  C   UNL     1       7.789  26.494  57.124  1.00  0.00     0.003 C 
HETATM   11  C   UNL     1       7.202  25.668  55.975  1.00  0.00     0.038 C 
ENDROOT
BRANCH   1  12
HETATM   12  C   UNL     1       5.780  27.573  51.361  1.00  0.00     0.338 C 
BRANCH  12  13
HETATM   13  C   UNL     1       4.961  27.949  50.131  1.00  0.00     0.248 C 
HETATM   14  N   UNL     1       3.592  27.787  50.288  1.00  0.00    -0.319 N 
HETATM   15  H   UNL     1       3.242  27.045  50.881  1.00  0.00     0.169 HD
HETATM   16  O   UNL     1       5.519  28.276  49.085  1.00  0.00    -0.271 OA
BRANCH  14  17
HETATM   17  C   UNL     1       2.739  28.180  49.277  1.00  0.00     0.094 C 
HETATM   18  C   UNL     1       2.290  27.558  48.128  1.00  0.00     0.080 C 
HETATM   19  C   UNL     1       1.256  28.381  47.500  1.00  0.00    -0.030 C 
HETATM   20  C   UNL     1       0.489  28.003  46.266  1.00  0.00     0.050 C 
HETATM   21  C   UNL     1       1.086  29.589  48.169  1.00  0.00    -0.012 C 
HETATM   22  S   UNL     1       2.168  29.758  49.477  1.00  0.00    -0.076 SA
HETATM   23  C   UNL     1       0.136  30.703  47.852  1.00  0.00     0.057 C 
BRANCH  18  24
HETATM   24  C   UNL     1       2.871  26.298  47.631  1.00  0.00     0.296 C 
HETATM   25  O   UNL     1       3.063  26.069  46.440  1.00  0.00    -0.259 OA
BRANCH  24  26
HETATM   26  O   UNL     1       3.096  25.386  48.618  1.00  0.00    -0.322 OA
HETATM   27  C   UNL     1       2.977  24.017  48.225  1.00  0.00     0.213 C 
ENDBRANCH  24  26
ENDBRANCH  18  24
ENDBRANCH  14  17
ENDBRANCH  12  13
ENDBRANCH   1  12
BRANCH   3  28
HETATM   28  C   UNL     1       4.689  29.611  54.236  1.00  0.00     0.009 A 
HETATM   29  C   UNL     1       4.144  30.541  53.318  1.00  0.00     0.076 A 
HETATM   30  C   UNL     1       3.167  31.454  53.728  1.00  0.00     0.040 A 
HETATM   31  C   UNL     1       2.720  31.456  55.047  1.00  0.00     0.039 A 
HETATM   32  C   UNL     1       3.238  30.553  55.967  1.00  0.00     0.069 A 
HETATM   33  C   UNL     1       4.199  29.628  55.554  1.00  0.00     0.048 A 
BRANCH  29  34
HETATM   34  O   UNL     1       4.579  30.440  52.020  1.00  0.00    -0.355 OA
HETATM   35  C   UNL     1       4.727  31.664  51.299  1.00  0.00     0.210 C 
ENDBRANCH  29  34
BRANCH  32  36
HETATM   36  O   UNL     1       2.703  30.636  57.222  1.00  0.00    -0.356 OA
HETATM   37  C   UNL     1       3.613  30.867  58.291  1.00  0.00     0.210 C 
ENDBRANCH  32  36
ENDBRANCH   3  28
BRANCH   5  38
HETATM   38  O   UNL     1       4.969  26.583  56.111  1.00  0.00    -0.389 OA
HETATM   39  H   UNL     1       4.575  25.715  56.318  1.00  0.00     0.210 HD
ENDBRANCH   5  38
TORSDOF 9
ENDMDL
MODEL 8
REMARK VINA RESULT:      -7.5      5.175      8.307
REMARK  9 active torsions:
REMARK  status: ('A' for Active; 'I' for Inactive)
REMARK    1  A    between atoms: C_3  and  C_4 
REMARK    2  A    between atoms: C_4  and  O_5 
REMARK    3  A    between atoms: C_8  and  N_9 
REMARK       I    between atoms: N_9  and  C_10 
REMARK    4  A    between atoms: C_10  and  C_11 
REMARK    5  A    between atoms: C_11  and  N_12 
REMARK    6  A    between atoms: C_14  and  C_15 
REMARK    7  A    between atoms: C_16  and  O_17 
REMARK    8  A    between atoms: C_21  and  O_22 
REMARK    9  A    between atoms: C_26  and  O_27 
ROOT
HETATM    1  N   UNL     1       5.420  30.876  57.555  1.00  0.00    -0.054 N 
HETATM    2  H   UNL     1       6.387  30.555  57.699  1.00  0.00     0.281 HD
HETATM    3  C   UNL     1       5.149  31.649  58.855  1.00  0.00     0.231 C 
HETATM    4  C   UNL     1       4.070  32.751  58.645  1.00  0.00     0.055 C 
HETATM    5  C   UNL     1       4.116  33.547  57.325  1.00  0.00     0.065 C 
HETATM    6  C   UNL     1       4.284  32.600  56.141  1.00  0.00     0.066 C 
HETATM    7  C   UNL     1       5.503  31.713  56.316  1.00  0.00     0.239 C 
HETATM    8  C   UNL     1       3.900  33.687  59.854  1.00  0.00     0.010 C 
HETATM    9  C   UNL     1       2.630  34.528  59.710  1.00  0.00     0.001 C 
HETATM   10  C   UNL     1       2.582  35.290  58.388  1.00  0.00     0.003 C 
HETATM   11  C   UNL     1       2.824  34.379  57.180  1.00  0.00     0.038 C 
ENDROOT
BRANCH   1  12
HETATM   12  C   UNL     1       4.680  29.538  57.425  1.00  0.00     0.338 C 
BRANCH  12  13
HETATM   13  C   UNL     1       5.472  28.375  56.836  1.00  0.00     0.248 C 
HETATM   14  N   UNL     1       4.693  27.433  56.181  1.00  0.00    -0.319 N 
HETATM   15  H   UNL     1       3.753  27.248  56.506  1.00  0.00     0.169 HD
HETATM   16  O   UNL     1       6.682  28.282  57.031  1.00  0.00    -0.271 OA
BRANCH  14  17
HETATM   17  C   UNL     1       5.303  26.381  55.528  1.00  0.00     0.094 C 
HETATM   18  C   UNL     1       5.608  26.143  54.201  1.00  0.00     0.080 C 
HETATM   19  C   UNL     1       6.415  24.927  54.096  1.00  0.00    -0.030 C 
HETATM   20  C   UNL     1       6.988  24.385  52.819  1.00  0.00     0.050 C 
HETATM   21  C   UNL     1       6.565  24.303  55.330  1.00  0.00    -0.012 C 
HETATM   22  S   UNL     1       5.721  25.117  56.570  1.00  0.00    -0.076 SA
HETATM   23  C   UNL     1       7.313  23.047  55.653  1.00  0.00     0.057 C 
BRANCH  18  24
HETATM   24  C   UNL     1       5.092  26.986  53.109  1.00  0.00     0.296 C 
HETATM   25  O   UNL     1       5.762  27.303  52.129  1.00  0.00    -0.259 OA
BRANCH  24  26
HETATM   26  O   UNL     1       3.829  27.446  53.336  1.00  0.00    -0.322 OA
HETATM   27  C   UNL     1       3.476  28.638  52.631  1.00  0.00     0.213 C 
ENDBRANCH  24  26
ENDBRANCH  18  24
ENDBRANCH  14  17
ENDBRANCH  12  13
ENDBRANCH   1  12
BRANCH   3  28
HETATM   28  C   UNL     1       6.472  31.952  59.564  1.00  0.00     0.009 A 
HETATM   29  C   UNL     1       6.490  32.093  60.973  1.00  0.00     0.076 A 
HETATM   30  C   UNL     1       7.695  32.314  61.648  1.00  0.00     0.040 A 
HETATM   31  C   UNL     1       8.891  32.395  60.939  1.00  0.00     0.039 A 
HETATM   32  C   UNL     1       8.900  32.258  59.557  1.00  0.00     0.069 A 
HETATM   33  C   UNL     1       7.700  32.019  58.883  1.00  0.00     0.048 A 
BRANCH  29  34
HETATM   34  O   UNL     1       5.288  31.934  61.616  1.00  0.00    -0.355 OA
HETATM   35  C   UNL     1       5.324  31.924  63.043  1.00  0.00     0.210 C 
ENDBRANCH  29  34
BRANCH  32  36
HETATM   36  O   UNL     1      10.135  32.333  58.977  1.00  0.00    -0.356 OA
HETATM   37  C   UNL     1      10.467  31.310  58.045  1.00  0.00     0.210 C 
ENDBRANCH  32  36
ENDBRANCH   3  28
BRANCH   5  38
HETATM   38  O   UNL     1       5.238  34.424  57.301  1.00  0.00    -0.389 OA
HETATM   39  H   UNL     1       5.852  34.161  56.589  1.00  0.00     0.210 HD
ENDBRANCH   5  38
TORSDOF 9
ENDMDL
MODEL 9
REMARK VINA RESULT:      -7.5      2.445      5.052
REMARK  9 active torsions:
REMARK  status: ('A' for Active; 'I' for Inactive)
REMARK    1  A    between atoms: C_3  and  C_4 
REMARK    2  A    between atoms: C_4  and  O_5 
REMARK    3  A    between atoms: C_8  and  N_9 
REMARK       I    between atoms: N_9  and  C_10 
REMARK    4  A    between atoms: C_10  and  C_11 
REMARK    5  A    between atoms: C_11  and  N_12 
REMARK    6  A    between atoms: C_14  and  C_15 
REMARK    7  A    between atoms: C_16  and  O_17 
REMARK    8  A    between atoms: C_21  and  O_22 
REMARK    9  A    between atoms: C_26  and  O_27 
ROOT
HETATM    1  N   UNL     1       3.414  30.052  50.825  1.00  0.00    -0.054 N 
HETATM    2  H   UNL     1       2.916  29.179  51.046  1.00  0.00     0.281 HD
HETATM    3  C   UNL     1       3.996  29.740  49.438  1.00  0.00     0.231 C 
HETATM    4  C   UNL     1       4.218  31.041  48.611  1.00  0.00     0.055 C 
HETATM    5  C   UNL     1       3.142  32.140  48.715  1.00  0.00     0.065 C 
HETATM    6  C   UNL     1       2.770  32.381  50.174  1.00  0.00     0.066 C 
HETATM    7  C   UNL     1       2.338  31.093  50.851  1.00  0.00     0.239 C 
HETATM    8  C   UNL     1       4.609  30.781  47.146  1.00  0.00     0.010 C 
HETATM    9  C   UNL     1       5.115  32.066  46.487  1.00  0.00     0.001 C 
HETATM   10  C   UNL     1       4.121  33.218  46.616  1.00  0.00     0.003 C 
HETATM   11  C   UNL     1       3.667  33.438  48.063  1.00  0.00     0.038 C 
ENDROOT
BRANCH   1  12
HETATM   12  C   UNL     1       4.439  30.104  51.966  1.00  0.00     0.338 C 
BRANCH  12  13
HETATM   13  C   UNL     1       4.642  28.817  52.759  1.00  0.00     0.248 C 
HETATM   14  N   UNL     1       5.887  28.712  53.361  1.00  0.00    -0.319 N 
HETATM   15  H   UNL     1       6.696  29.124  52.912  1.00  0.00     0.169 HD
HETATM   16  O   UNL     1       3.779  27.941  52.758  1.00  0.00    -0.271 OA
BRANCH  14  17
HETATM   17  C   UNL     1       6.158  27.635  54.180  1.00  0.00     0.094 C 
HETATM   18  C   UNL     1       5.737  27.285  55.449  1.00  0.00     0.080 C 
HETATM   19  C   UNL     1       6.212  25.938  55.767  1.00  0.00    -0.030 C 
HETATM   20  C   UNL     1       5.900  25.195  57.033  1.00  0.00     0.050 C 
HETATM   21  C   UNL     1       7.027  25.431  54.760  1.00  0.00    -0.012 C 
HETATM   22  S   UNL     1       7.262  26.553  53.496  1.00  0.00    -0.076 SA
HETATM   23  C   UNL     1       7.709  24.100  54.696  1.00  0.00     0.057 C 
BRANCH  18  24
HETATM   24  C   UNL     1       4.995  28.214  56.320  1.00  0.00     0.296 C 
HETATM   25  O   UNL     1       3.868  28.626  56.059  1.00  0.00    -0.259 OA
BRANCH  24  26
HETATM   26  O   UNL     1       5.718  28.633  57.397  1.00  0.00    -0.322 OA
HETATM   27  C   UNL     1       6.441  29.852  57.212  1.00  0.00     0.213 C 
ENDBRANCH  24  26
ENDBRANCH  18  24
ENDBRANCH  14  17
ENDBRANCH  12  13
ENDBRANCH   1  12
BRANCH   3  28
HETATM   28  C   UNL     1       3.285  28.524  48.838  1.00  0.00     0.009 A 
HETATM   29  C   UNL     1       3.914  27.256  48.886  1.00  0.00     0.076 A 
HETATM   30  C   UNL     1       3.260  26.121  48.396  1.00  0.00     0.040 A 
HETATM   31  C   UNL     1       1.980  26.228  47.855  1.00  0.00     0.039 A 
HETATM   32  C   UNL     1       1.342  27.461  47.798  1.00  0.00     0.069 A 
HETATM   33  C   UNL     1       1.986  28.592  48.305  1.00  0.00     0.048 A 
BRANCH  29  34
HETATM   34  O   UNL     1       5.144  27.210  49.493  1.00  0.00    -0.355 OA
HETATM   35  C   UNL     1       5.367  26.131  50.401  1.00  0.00     0.210 C 
ENDBRANCH  29  34
BRANCH  32  36
HETATM   36  O   UNL     1       0.082  27.435  47.269  1.00  0.00    -0.356 OA
HETATM   37  C   UNL     1      -0.016  27.454  45.850  1.00  0.00     0.210 C 
ENDBRANCH  32  36
ENDBRANCH   3  28
BRANCH   5  38
HETATM   38  O   UNL     1       1.945  31.742  48.055  1.00  0.00    -0.389 OA
HETATM   39  H   UNL     1       1.175  31.904  48.633  1.00  0.00     0.210 HD
ENDBRANCH   5  38
TORSDOF 9
ENDMDL
MODEL 10
REMARK VINA RESULT:      -7.2      5.045      8.980
REMARK  9 active torsions:
REMARK  status: ('A' for Active; 'I' for Inactive)
REMARK    1  A    between atoms: C_3  and  C_4 
REMARK    2  A    between atoms: C_4  and  O_5 
REMARK    3  A    between atoms: C_8  and  N_9 
REMARK       I    between atoms: N_9  and  C_10 
REMARK    4  A    between atoms: C_10  and  C_11 
REMARK    5  A    between atoms: C_11  and  N_12 
REMARK    6  A    between atoms: C_14  and  C_15 
REMARK    7  A    between atoms: C_16  and  O_17 
REMARK    8  A    between atoms: C_21  and  O_22 
REMARK    9  A    between atoms: C_26  and  O_27 
ROOT
HETATM    1  N   UNL     1       5.530  30.778  57.452  1.00  0.00    -0.054 N 
HETATM    2  H   UNL     1       4.794  31.059  58.113  1.00  0.00     0.281 HD
HETATM    3  C   UNL     1       6.744  31.556  57.985  1.00  0.00     0.231 C 
HETATM    4  C   UNL     1       8.079  30.846  57.615  1.00  0.00     0.055 C 
HETATM    5  C   UNL     1       8.111  29.307  57.698  1.00  0.00     0.065 C 
HETATM    6  C   UNL     1       6.878  28.714  57.024  1.00  0.00     0.066 C 
HETATM    7  C   UNL     1       5.602  29.291  57.608  1.00  0.00     0.239 C 
HETATM    8  C   UNL     1       9.315  31.466  58.290  1.00  0.00     0.010 C 
HETATM    9  C   UNL     1      10.600  30.938  57.649  1.00  0.00     0.001 C 
HETATM   10  C   UNL     1      10.662  29.413  57.637  1.00  0.00     0.003 C 
HETATM   11  C   UNL     1       9.403  28.782  57.035  1.00  0.00     0.038 C 
ENDROOT
BRANCH   1  12
HETATM   12  C   UNL     1       4.954  31.298  56.128  1.00  0.00     0.338 C 
BRANCH  12  13
HETATM   13  C   UNL     1       4.515  30.244  55.116  1.00  0.00     0.248 C 
HETATM   14  N   UNL     1       5.549  29.730  54.347  1.00  0.00    -0.319 N 
HETATM   15  H   UNL     1       6.333  30.323  54.104  1.00  0.00     0.169 HD
HETATM   16  O   UNL     1       3.324  29.976  54.972  1.00  0.00    -0.271 OA
BRANCH  14  17
HETATM   17  C   UNL     1       5.293  28.706  53.459  1.00  0.00     0.094 C 
HETATM   18  C   UNL     1       5.193  28.653  52.082  1.00  0.00     0.080 C 
HETATM   19  C   UNL     1       5.070  27.260  51.654  1.00  0.00    -0.030 C 
HETATM   20  C   UNL     1       5.003  26.803  50.225  1.00  0.00     0.050 C 
HETATM   21  C   UNL     1       4.988  26.395  52.741  1.00  0.00    -0.012 C 
HETATM   22  S   UNL     1       5.003  27.229  54.229  1.00  0.00    -0.076 SA
HETATM   23  C   UNL     1       4.856  24.904  52.735  1.00  0.00     0.057 C 
BRANCH  18  24
HETATM   24  C   UNL     1       5.144  29.866  51.247  1.00  0.00     0.296 C 
HETATM   25  O   UNL     1       6.029  30.173  50.452  1.00  0.00    -0.259 OA
BRANCH  24  26
HETATM   26  O   UNL     1       4.060  30.652  51.506  1.00  0.00    -0.322 OA
HETATM   27  C   UNL     1       4.347  32.032  51.740  1.00  0.00     0.213 C 
ENDBRANCH  24  26
ENDBRANCH  18  24
ENDBRANCH  14  17
ENDBRANCH  12  13
ENDBRANCH   1  12
BRANCH   3  28
HETATM   28  C   UNL     1       6.465  32.039  59.411  1.00  0.00     0.009 A 
HETATM   29  C   UNL     1       5.335  32.855  59.662  1.00  0.00     0.076 A 
HETATM   30  C   UNL     1       5.027  33.261  60.964  1.00  0.00     0.040 A 
HETATM   31  C   UNL     1       5.832  32.865  62.030  1.00  0.00     0.039 A 
HETATM   32  C   UNL     1       6.945  32.063  61.810  1.00  0.00     0.069 A 
HETATM   33  C   UNL     1       7.242  31.641  60.513  1.00  0.00     0.048 A 
BRANCH  29  34
HETATM   34  O   UNL     1       4.547  33.152  58.577  1.00  0.00    -0.355 OA
HETATM   35  C   UNL     1       3.834  34.388  58.626  1.00  0.00     0.210 C 
ENDBRANCH  29  34
BRANCH  32  36
HETATM   36  O   UNL     1       7.641  31.721  62.936  1.00  0.00    -0.356 OA
HETATM   37  C   UNL     1       7.652  32.671  63.995  1.00  0.00     0.210 C 
ENDBRANCH  32  36
ENDBRANCH   3  28
BRANCH   5  38
HETATM   38  O   UNL     1       8.077  28.871  59.054  1.00  0.00    -0.389 OA
HETATM   39  H   UNL     1       7.278  29.217  59.495  1.00  0.00     0.210 HD
ENDBRANCH   5  38
TORSDOF 9
ENDMDL
