MODEL 1
REMARK VINA RESULT:      -9.0      0.000      0.000
REMARK  4 active torsions:
REMARK  status: ('A' for Active; 'I' for Inactive)
REMARK    1  A    between atoms: C_2  and  C_3 
REMARK    2  A    between atoms: C_11  and  C_12 
REMARK       I    between atoms: C_12  and  N_13 
REMARK    3  A    between atoms: N_13  and  C_14 
REMARK    4  A    between atoms: C_21  and  C_22 
REMARK       I    between atoms: C_22  and  N_23 
ROOT
HETATM    1  C   UNL     1       7.733  28.160  57.659  1.00  0.00     0.035 A 
HETATM    2  C   UNL     1       7.629  29.333  58.416  1.00  0.00     0.046 A 
HETATM    3  C   UNL     1       8.670  30.288  58.375  1.00  0.00     0.030 A 
HETATM    4  C   UNL     1       9.773  30.048  57.568  1.00  0.00     0.063 A 
HETATM    5  N   UNL     1      10.588  31.134  57.735  1.00  0.00    -0.277 N 
HETATM    6  H   UNL     1      11.485  31.302  57.296  1.00  0.00     0.189 HD
HETATM    7  N   UNL     1      10.110  32.062  58.582  1.00  0.00    -0.168 NA
HETATM    8  C   UNL     1       8.924  31.553  58.984  1.00  0.00     0.156 A 
HETATM    9  C   UNL     1       9.907  28.902  56.788  1.00  0.00     0.034 A 
HETATM   10  C   UNL     1       8.864  27.969  56.851  1.00  0.00     0.032 A 
ENDROOT
BRANCH   1  11
HETATM   11  N   UNL     1       6.759  27.145  57.608  1.00  0.00    -0.324 N 
HETATM   12  C   UNL     1       5.676  26.904  56.816  1.00  0.00     0.246 C 
HETATM   13  O   UNL     1       5.069  25.841  56.939  1.00  0.00    -0.268 OA
HETATM   14  H   UNL     1       6.872  26.385  58.270  1.00  0.00     0.169 HD
BRANCH  12  15
HETATM   15  C   UNL     1       5.190  27.941  55.883  1.00  0.00     0.082 C 
HETATM   16  C   UNL     1       5.299  27.841  54.545  1.00  0.00    -0.043 C 
HETATM   17  C   UNL     1       4.753  28.886  53.615  1.00  0.00     0.049 C 
BRANCH  16  18
HETATM   18  C   UNL     1       5.976  26.707  53.893  1.00  0.00     0.009 A 
HETATM   19  C   UNL     1       7.330  26.778  53.538  1.00  0.00     0.130 A 
HETATM   20  F   UNL     1       8.047  27.877  53.819  1.00  0.00    -0.205 F 
HETATM   21  C   UNL     1       7.961  25.719  52.894  1.00  0.00     0.085 A 
HETATM   22  C   UNL     1       7.231  24.574  52.611  1.00  0.00     0.119 A 
HETATM   23  F   UNL     1       7.829  23.546  51.994  1.00  0.00    -0.206 F 
HETATM   24  C   UNL     1       5.887  24.471  52.960  1.00  0.00     0.043 A 
HETATM   25  C   UNL     1       5.256  25.540  53.600  1.00  0.00     0.018 A 
ENDBRANCH  16  18
ENDBRANCH  12  15
ENDBRANCH   1  11
BRANCH   8  26
HETATM   26  C   UNL     1       8.062  32.269  59.936  1.00  0.00     0.270 C 
HETATM   27  N   UNL     1       8.571  32.345  61.203  1.00  0.00    -0.365 N 
HETATM   28  H   UNL     1       9.469  31.915  61.392  1.00  0.00     0.159 HD
HETATM   29  H   UNL     1       8.048  32.810  61.928  1.00  0.00     0.159 HD
HETATM   30  O   UNL     1       6.976  32.763  59.650  1.00  0.00    -0.266 OA
ENDBRANCH   8  26
TORSDOF 4
ENDMDL
MODEL 2
REMARK VINA RESULT:      -8.7      2.447      2.959
REMARK  4 active torsions:
REMARK  status: ('A' for Active; 'I' for Inactive)
REMARK    1  A    between atoms: C_2  and  C_3 
REMARK    2  A    between atoms: C_11  and  C_12 
REMARK       I    between atoms: C_12  and  N_13 
REMARK    3  A    between atoms: N_13  and  C_14 
REMARK    4  A    between atoms: C_21  and  C_22 
REMARK       I    between atoms: C_22  and  N_23 
ROOT
HETATM    1  C   UNL     1       7.875  29.002  55.908  1.00  0.00     0.035 A 
HETATM    2  C   UNL     1       7.087  29.928  56.599  1.00  0.00     0.046 A 
HETATM    3  C   UNL     1       7.587  30.538  57.771  1.00  0.00     0.030 A 
HETATM    4  C   UNL     1       8.864  30.216  58.207  1.00  0.00     0.063 A 
HETATM    5  N   UNL     1       9.061  30.958  59.339  1.00  0.00    -0.277 N 
HETATM    6  H   UNL     1       9.887  30.978  59.925  1.00  0.00     0.189 HD
HETATM    7  N   UNL     1       8.020  31.737  59.680  1.00  0.00    -0.168 NA
HETATM    8  C   UNL     1       7.102  31.490  58.719  1.00  0.00     0.156 A 
HETATM    9  C   UNL     1       9.687  29.311  57.538  1.00  0.00     0.034 A 
HETATM   10  C   UNL     1       9.165  28.717  56.382  1.00  0.00     0.032 A 
ENDROOT
BRANCH   1  11
HETATM   11  N   UNL     1       7.493  28.340  54.726  1.00  0.00    -0.324 N 
HETATM   12  C   UNL     1       6.437  27.552  54.375  1.00  0.00     0.246 C 
HETATM   13  O   UNL     1       6.310  27.210  53.200  1.00  0.00    -0.268 OA
HETATM   14  H   UNL     1       8.093  28.484  53.920  1.00  0.00     0.169 HD
BRANCH  12  15
HETATM   15  C   UNL     1       5.508  27.050  55.406  1.00  0.00     0.082 C 
HETATM   16  C   UNL     1       5.682  25.883  56.053  1.00  0.00    -0.043 C 
HETATM   17  C   UNL     1       4.749  25.417  57.133  1.00  0.00     0.049 C 
BRANCH  16  18
HETATM   18  C   UNL     1       6.794  24.968  55.740  1.00  0.00     0.009 A 
HETATM   19  C   UNL     1       6.749  24.133  54.616  1.00  0.00     0.130 A 
HETATM   20  F   UNL     1       5.700  24.178  53.780  1.00  0.00    -0.205 F 
HETATM   21  C   UNL     1       7.784  23.247  54.337  1.00  0.00     0.085 A 
HETATM   22  C   UNL     1       8.879  23.203  55.189  1.00  0.00     0.119 A 
HETATM   23  F   UNL     1       9.883  22.356  54.929  1.00  0.00    -0.206 F 
HETATM   24  C   UNL     1       8.955  24.028  56.308  1.00  0.00     0.043 A 
HETATM   25  C   UNL     1       7.910  24.911  56.588  1.00  0.00     0.018 A 
ENDBRANCH  16  18
ENDBRANCH  12  15
ENDBRANCH   1  11
BRANCH   8  26
HETATM   26  C   UNL     1       5.790  32.152  58.719  1.00  0.00     0.270 C 
HETATM   27  N   UNL     1       4.813  31.455  59.376  1.00  0.00    -0.365 N 
HETATM   28  H   UNL     1       5.051  30.563  59.796  1.00  0.00     0.159 HD
HETATM   29  H   UNL     1       3.876  31.824  59.423  1.00  0.00     0.159 HD
HETATM   30  O   UNL     1       5.558  33.231  58.185  1.00  0.00    -0.266 OA
ENDBRANCH   8  26
TORSDOF 4
ENDMDL
MODEL 3
REMARK VINA RESULT:      -8.7      3.930      6.908
REMARK  4 active torsions:
REMARK  status: ('A' for Active; 'I' for Inactive)
REMARK    1  A    between atoms: C_2  and  C_3 
REMARK    2  A    between atoms: C_11  and  C_12 
REMARK       I    between atoms: C_12  and  N_13 
REMARK    3  A    between atoms: N_13  and  C_14 
REMARK    4  A    between atoms: C_21  and  C_22 
REMARK       I    between atoms: C_22  and  N_23 
ROOT
HETATM    1  C   UNL     1       5.794  28.681  53.741  1.00  0.00     0.035 A 
HETATM    2  C   UNL     1       5.707  28.261  52.409  1.00  0.00     0.046 A 
HETATM    3  C   UNL     1       4.491  28.408  51.705  1.00  0.00     0.030 A 
HETATM    4  C   UNL     1       3.405  28.984  52.348  1.00  0.00     0.063 A 
HETATM    5  N   UNL     1       2.397  28.993  51.424  1.00  0.00    -0.277 N 
HETATM    6  H   UNL     1       1.454  29.343  51.546  1.00  0.00     0.189 HD
HETATM    7  N   UNL     1       2.733  28.471  50.231  1.00  0.00    -0.168 NA
HETATM    8  C   UNL     1       4.025  28.107  50.389  1.00  0.00     0.156 A 
HETATM    9  C   UNL     1       3.454  29.430  53.668  1.00  0.00     0.034 A 
HETATM   10  C   UNL     1       4.671  29.267  54.345  1.00  0.00     0.032 A 
ENDROOT
BRANCH   1  11
HETATM   11  N   UNL     1       6.950  28.599  54.538  1.00  0.00    -0.324 N 
HETATM   12  C   UNL     1       7.269  27.940  55.689  1.00  0.00     0.246 C 
HETATM   13  O   UNL     1       8.430  27.968  56.093  1.00  0.00    -0.268 OA
HETATM   14  H   UNL     1       7.763  29.101  54.198  1.00  0.00     0.169 HD
BRANCH  12  15
HETATM   15  C   UNL     1       6.216  27.274  56.481  1.00  0.00     0.082 C 
HETATM   16  C   UNL     1       5.872  25.983  56.317  1.00  0.00    -0.043 C 
HETATM   17  C   UNL     1       4.832  25.315  57.169  1.00  0.00     0.049 C 
BRANCH  16  18
HETATM   18  C   UNL     1       6.481  25.133  55.279  1.00  0.00     0.009 A 
HETATM   19  C   UNL     1       5.850  24.936  54.043  1.00  0.00     0.130 A 
HETATM   20  F   UNL     1       4.688  25.551  53.770  1.00  0.00    -0.205 F 
HETATM   21  C   UNL     1       6.408  24.108  53.075  1.00  0.00     0.085 A 
HETATM   22  C   UNL     1       7.615  23.479  53.344  1.00  0.00     0.119 A 
HETATM   23  F   UNL     1       8.164  22.682  52.418  1.00  0.00    -0.206 F 
HETATM   24  C   UNL     1       8.269  23.664  54.559  1.00  0.00     0.043 A 
HETATM   25  C   UNL     1       7.701  24.490  55.531  1.00  0.00     0.018 A 
ENDBRANCH  16  18
ENDBRANCH  12  15
ENDBRANCH   1  11
BRANCH   8  26
HETATM   26  C   UNL     1       4.787  27.481  49.300  1.00  0.00     0.270 C 
HETATM   27  N   UNL     1       5.779  28.271  48.786  1.00  0.00    -0.365 N 
HETATM   28  H   UNL     1       5.910  29.199  49.173  1.00  0.00     0.159 HD
HETATM   29  H   UNL     1       6.351  27.932  48.029  1.00  0.00     0.159 HD
HETATM   30  O   UNL     1       4.577  26.353  48.866  1.00  0.00    -0.266 OA
ENDBRANCH   8  26
TORSDOF 4
ENDMDL
MODEL 4
REMARK VINA RESULT:      -8.6      1.660      2.510
REMARK  4 active torsions:
REMARK  status: ('A' for Active; 'I' for Inactive)
REMARK    1  A    between atoms: C_2  and  C_3 
REMARK    2  A    between atoms: C_11  and  C_12 
REMARK       I    between atoms: C_12  and  N_13 
REMARK    3  A    between atoms: N_13  and  C_14 
REMARK    4  A    between atoms: C_21  and  C_22 
REMARK       I    between atoms: C_22  and  N_23 
ROOT
HETATM    1  C   UNL     1       7.396  28.691  57.196  1.00  0.00     0.035 A 
HETATM    2  C   UNL     1       7.544  29.529  58.306  1.00  0.00     0.046 A 
HETATM    3  C   UNL     1       8.676  30.369  58.406  1.00  0.00     0.030 A 
HETATM    4  C   UNL     1       9.617  30.355  57.386  1.00  0.00     0.063 A 
HETATM    5  N   UNL     1      10.572  31.259  57.761  1.00  0.00    -0.277 N 
HETATM    6  H   UNL     1      11.413  31.511  57.254  1.00  0.00     0.189 HD
HETATM    7  N   UNL     1      10.336  31.861  58.939  1.00  0.00    -0.168 NA
HETATM    8  C   UNL     1       9.165  31.322  59.349  1.00  0.00     0.156 A 
HETATM    9  C   UNL     1       9.499  29.547  56.257  1.00  0.00     0.034 A 
HETATM   10  C   UNL     1       8.369  28.721  56.186  1.00  0.00     0.032 A 
ENDROOT
BRANCH   1  11
HETATM   11  N   UNL     1       6.309  27.824  56.980  1.00  0.00    -0.324 N 
HETATM   12  C   UNL     1       6.112  26.485  57.145  1.00  0.00     0.246 C 
HETATM   13  O   UNL     1       4.984  26.021  56.980  1.00  0.00    -0.268 OA
HETATM   14  H   UNL     1       5.449  28.257  56.661  1.00  0.00     0.169 HD
BRANCH  12  15
HETATM   15  C   UNL     1       7.253  25.594  57.437  1.00  0.00     0.082 C 
HETATM   16  C   UNL     1       7.936  24.932  56.485  1.00  0.00    -0.043 C 
HETATM   17  C   UNL     1       9.124  24.070  56.802  1.00  0.00     0.049 C 
BRANCH  16  18
HETATM   18  C   UNL     1       7.560  24.991  55.062  1.00  0.00     0.009 A 
HETATM   19  C   UNL     1       7.046  23.866  54.402  1.00  0.00     0.130 A 
HETATM   20  F   UNL     1       6.854  22.718  55.069  1.00  0.00    -0.205 F 
HETATM   21  C   UNL     1       6.720  23.913  53.051  1.00  0.00     0.085 A 
HETATM   22  C   UNL     1       6.903  25.099  52.356  1.00  0.00     0.119 A 
HETATM   23  F   UNL     1       6.590  25.157  51.054  1.00  0.00    -0.206 F 
HETATM   24  C   UNL     1       7.403  26.235  52.987  1.00  0.00     0.043 A 
HETATM   25  C   UNL     1       7.735  26.182  54.343  1.00  0.00     0.018 A 
ENDBRANCH  16  18
ENDBRANCH  12  15
ENDBRANCH   1  11
BRANCH   8  26
HETATM   26  C   UNL     1       8.540  31.715  60.619  1.00  0.00     0.270 C 
HETATM   27  N   UNL     1       8.483  30.712  61.547  1.00  0.00    -0.365 N 
HETATM   28  H   UNL     1       8.856  29.801  61.302  1.00  0.00     0.159 HD
HETATM   29  H   UNL     1       8.063  30.882  62.448  1.00  0.00     0.159 HD
HETATM   30  O   UNL     1       8.097  32.834  60.857  1.00  0.00    -0.266 OA
ENDBRANCH   8  26
TORSDOF 4
ENDMDL
MODEL 5
REMARK VINA RESULT:      -8.6      2.470      3.154
REMARK  4 active torsions:
REMARK  status: ('A' for Active; 'I' for Inactive)
REMARK    1  A    between atoms: C_2  and  C_3 
REMARK    2  A    between atoms: C_11  and  C_12 
REMARK       I    between atoms: C_12  and  N_13 
REMARK    3  A    between atoms: N_13  and  C_14 
REMARK    4  A    between atoms: C_21  and  C_22 
REMARK       I    between atoms: C_22  and  N_23 
ROOT
HETATM    1  C   UNL     1       7.268  27.979  56.868  1.00  0.00     0.035 A 
HETATM    2  C   UNL     1       7.550  28.631  58.073  1.00  0.00     0.046 A 
HETATM    3  C   UNL     1       8.592  29.584  58.128  1.00  0.00     0.030 A 
HETATM    4  C   UNL     1       9.309  29.866  56.974  1.00  0.00     0.063 A 
HETATM    5  N   UNL     1      10.227  30.812  57.339  1.00  0.00    -0.277 N 
HETATM    6  H   UNL     1      10.922  31.254  56.748  1.00  0.00     0.189 HD
HETATM    7  N   UNL     1      10.171  31.171  58.633  1.00  0.00    -0.168 NA
HETATM    8  C   UNL     1       9.164  30.421  59.133  1.00  0.00     0.156 A 
HETATM    9  C   UNL     1       9.049  29.251  55.751  1.00  0.00     0.034 A 
HETATM   10  C   UNL     1       8.014  28.307  55.725  1.00  0.00     0.032 A 
ENDROOT
BRANCH   1  11
HETATM   11  N   UNL     1       6.249  27.025  56.686  1.00  0.00    -0.324 N 
HETATM   12  C   UNL     1       5.942  26.137  55.699  1.00  0.00     0.246 C 
HETATM   13  O   UNL     1       5.035  25.327  55.884  1.00  0.00    -0.268 OA
HETATM   14  H   UNL     1       5.596  26.919  57.455  1.00  0.00     0.169 HD
BRANCH  12  15
HETATM   15  C   UNL     1       6.633  26.203  54.396  1.00  0.00     0.082 C 
HETATM   16  C   UNL     1       7.456  25.238  53.945  1.00  0.00    -0.043 C 
HETATM   17  C   UNL     1       8.109  25.306  52.595  1.00  0.00     0.049 C 
BRANCH  16  18
HETATM   18  C   UNL     1       7.790  24.050  54.750  1.00  0.00     0.009 A 
HETATM   19  C   UNL     1       7.517  22.758  54.280  1.00  0.00     0.130 A 
HETATM   20  F   UNL     1       6.974  22.579  53.066  1.00  0.00    -0.205 F 
HETATM   21  C   UNL     1       7.802  21.638  55.053  1.00  0.00     0.085 A 
HETATM   22  C   UNL     1       8.375  21.812  56.304  1.00  0.00     0.119 A 
HETATM   23  F   UNL     1       8.658  20.740  57.056  1.00  0.00    -0.206 F 
HETATM   24  C   UNL     1       8.667  23.083  56.793  1.00  0.00     0.043 A 
HETATM   25  C   UNL     1       8.371  24.206  56.017  1.00  0.00     0.018 A 
ENDBRANCH  16  18
ENDBRANCH  12  15
ENDBRANCH   1  11
BRANCH   8  26
HETATM   26  C   UNL     1       8.767  30.509  60.546  1.00  0.00     0.270 C 
HETATM   27  N   UNL     1       7.512  31.016  60.743  1.00  0.00    -0.365 N 
HETATM   28  H   UNL     1       6.966  31.291  59.934  1.00  0.00     0.159 HD
HETATM   29  H   UNL     1       7.154  31.122  61.679  1.00  0.00     0.159 HD
HETATM   30  O   UNL     1       9.476  30.168  61.486  1.00  0.00    -0.266 OA
ENDBRANCH   8  26
TORSDOF 4
ENDMDL
MODEL 6
REMARK VINA RESULT:      -8.6      3.994      6.589
REMARK  4 active torsions:
REMARK  status: ('A' for Active; 'I' for Inactive)
REMARK    1  A    between atoms: C_2  and  C_3 
REMARK    2  A    between atoms: C_11  and  C_12 
REMARK       I    between atoms: C_12  and  N_13 
REMARK    3  A    between atoms: N_13  and  C_14 
REMARK    4  A    between atoms: C_21  and  C_22 
REMARK       I    between atoms: C_22  and  N_23 
ROOT
HETATM    1  C   UNL     1       7.113  27.383  53.531  1.00  0.00     0.035 A 
HETATM    2  C   UNL     1       6.010  28.041  52.976  1.00  0.00     0.046 A 
HETATM    3  C   UNL     1       5.396  27.522  51.814  1.00  0.00     0.030 A 
HETATM    4  C   UNL     1       5.893  26.355  51.252  1.00  0.00     0.063 A 
HETATM    5  N   UNL     1       5.101  26.109  50.165  1.00  0.00    -0.277 N 
HETATM    6  H   UNL     1       5.173  25.334  49.515  1.00  0.00     0.189 HD
HETATM    7  N   UNL     1       4.129  27.016  49.968  1.00  0.00    -0.168 NA
HETATM    8  C   UNL     1       4.298  27.896  50.981  1.00  0.00     0.156 A 
HETATM    9  C   UNL     1       6.979  25.661  51.783  1.00  0.00     0.034 A 
HETATM   10  C   UNL     1       7.573  26.200  52.933  1.00  0.00     0.032 A 
ENDROOT
BRANCH   1  11
HETATM   11  N   UNL     1       7.798  27.795  54.689  1.00  0.00    -0.324 N 
HETATM   12  C   UNL     1       7.578  27.650  56.027  1.00  0.00     0.246 C 
HETATM   13  O   UNL     1       8.442  28.025  56.819  1.00  0.00    -0.268 OA
HETATM   14  H   UNL     1       8.676  28.282  54.539  1.00  0.00     0.169 HD
BRANCH  12  15
HETATM   15  C   UNL     1       6.287  27.129  56.518  1.00  0.00     0.082 C 
HETATM   16  C   UNL     1       6.028  25.816  56.663  1.00  0.00    -0.043 C 
HETATM   17  C   UNL     1       4.724  25.312  57.211  1.00  0.00     0.049 C 
BRANCH  16  18
HETATM   18  C   UNL     1       6.998  24.775  56.283  1.00  0.00     0.009 A 
HETATM   19  C   UNL     1       8.141  24.533  57.057  1.00  0.00     0.130 A 
HETATM   20  F   UNL     1       8.354  25.228  58.186  1.00  0.00    -0.205 F 
HETATM   21  C   UNL     1       9.074  23.573  56.681  1.00  0.00     0.085 A 
HETATM   22  C   UNL     1       8.855  22.841  55.523  1.00  0.00     0.119 A 
HETATM   23  F   UNL     1       9.745  21.910  55.153  1.00  0.00    -0.206 F 
HETATM   24  C   UNL     1       7.724  23.052  54.739  1.00  0.00     0.043 A 
HETATM   25  C   UNL     1       6.794  24.023  55.117  1.00  0.00     0.018 A 
ENDBRANCH  16  18
ENDBRANCH  12  15
ENDBRANCH   1  11
BRANCH   8  26
HETATM   26  C   UNL     1       3.425  29.067  51.137  1.00  0.00     0.270 C 
HETATM   27  N   UNL     1       2.295  28.828  51.870  1.00  0.00    -0.365 N 
HETATM   28  H   UNL     1       2.141  27.895  52.235  1.00  0.00     0.159 HD
HETATM   29  H   UNL     1       1.629  29.569  52.024  1.00  0.00     0.159 HD
HETATM   30  O   UNL     1       3.658  30.174  50.663  1.00  0.00    -0.266 OA
ENDBRANCH   8  26
TORSDOF 4
ENDMDL
MODEL 7
REMARK VINA RESULT:      -8.1      2.603      3.496
REMARK  4 active torsions:
REMARK  status: ('A' for Active; 'I' for Inactive)
REMARK    1  A    between atoms: C_2  and  C_3 
REMARK    2  A    between atoms: C_11  and  C_12 
REMARK       I    between atoms: C_12  and  N_13 
REMARK    3  A    between atoms: N_13  and  C_14 
REMARK    4  A    between atoms: C_21  and  C_22 
REMARK       I    between atoms: C_22  and  N_23 
ROOT
HETATM    1  C   UNL     1       7.371  29.901  57.366  1.00  0.00     0.035 A 
HETATM    2  C   UNL     1       8.022  29.983  58.602  1.00  0.00     0.046 A 
HETATM    3  C   UNL     1       7.560  30.891  59.580  1.00  0.00     0.030 A 
HETATM    4  C   UNL     1       6.452  31.679  59.299  1.00  0.00     0.063 A 
HETATM    5  N   UNL     1       6.250  32.435  60.421  1.00  0.00    -0.277 N 
HETATM    6  H   UNL     1       5.523  33.125  60.574  1.00  0.00     0.189 HD
HETATM    7  N   UNL     1       7.131  32.208  61.410  1.00  0.00    -0.168 NA
HETATM    8  C   UNL     1       7.946  31.255  60.905  1.00  0.00     0.156 A 
HETATM    9  C   UNL     1       5.766  31.616  58.088  1.00  0.00     0.034 A 
HETATM   10  C   UNL     1       6.248  30.711  57.133  1.00  0.00     0.032 A 
ENDROOT
BRANCH   1  11
HETATM   11  N   UNL     1       7.729  29.030  56.322  1.00  0.00    -0.324 N 
HETATM   12  C   UNL     1       7.150  27.932  55.757  1.00  0.00     0.246 C 
HETATM   13  O   UNL     1       7.658  27.439  54.750  1.00  0.00    -0.268 OA
HETATM   14  H   UNL     1       8.588  29.252  55.829  1.00  0.00     0.169 HD
BRANCH  12  15
HETATM   15  C   UNL     1       5.980  27.297  56.394  1.00  0.00     0.082 C 
HETATM   16  C   UNL     1       5.885  25.972  56.613  1.00  0.00    -0.043 C 
HETATM   17  C   UNL     1       4.705  25.355  57.307  1.00  0.00     0.049 C 
BRANCH  16  18
HETATM   18  C   UNL     1       6.926  25.026  56.176  1.00  0.00     0.009 A 
HETATM   19  C   UNL     1       6.806  24.326  54.968  1.00  0.00     0.130 A 
HETATM   20  F   UNL     1       5.750  24.533  54.167  1.00  0.00    -0.205 F 
HETATM   21  C   UNL     1       7.773  23.409  54.569  1.00  0.00     0.085 A 
HETATM   22  C   UNL     1       8.876  23.198  55.384  1.00  0.00     0.119 A 
HETATM   23  F   UNL     1       9.816  22.320  55.010  1.00  0.00    -0.206 F 
HETATM   24  C   UNL     1       9.027  23.886  56.586  1.00  0.00     0.043 A 
HETATM   25  C   UNL     1       8.049  24.801  56.985  1.00  0.00     0.018 A 
ENDBRANCH  16  18
ENDBRANCH  12  15
ENDBRANCH   1  11
BRANCH   8  26
HETATM   26  C   UNL     1       9.071  30.715  61.682  1.00  0.00     0.270 C 
HETATM   27  N   UNL     1       8.707  29.793  62.624  1.00  0.00    -0.365 N 
HETATM   28  H   UNL     1       7.725  29.560  62.723  1.00  0.00     0.159 HD
HETATM   29  H   UNL     1       9.408  29.371  63.213  1.00  0.00     0.159 HD
HETATM   30  O   UNL     1      10.242  31.041  61.524  1.00  0.00    -0.266 OA
ENDBRANCH   8  26
TORSDOF 4
ENDMDL
MODEL 8
REMARK VINA RESULT:      -8.1      4.747      6.796
REMARK  4 active torsions:
REMARK  status: ('A' for Active; 'I' for Inactive)
REMARK    1  A    between atoms: C_2  and  C_3 
REMARK    2  A    between atoms: C_11  and  C_12 
REMARK       I    between atoms: C_12  and  N_13 
REMARK    3  A    between atoms: N_13  and  C_14 
REMARK    4  A    between atoms: C_21  and  C_22 
REMARK       I    between atoms: C_22  and  N_23 
ROOT
HETATM    1  C   UNL     1       5.015  26.122  53.439  1.00  0.00     0.035 A 
HETATM    2  C   UNL     1       5.856  25.980  54.548  1.00  0.00     0.046 A 
HETATM    3  C   UNL     1       6.868  24.994  54.539  1.00  0.00     0.030 A 
HETATM    4  C   UNL     1       7.018  24.192  53.417  1.00  0.00     0.063 A 
HETATM    5  N   UNL     1       8.063  23.357  53.704  1.00  0.00    -0.277 N 
HETATM    6  H   UNL     1       8.454  22.635  53.109  1.00  0.00     0.189 HD
HETATM    7  N   UNL     1       8.608  23.546  54.918  1.00  0.00    -0.168 NA
HETATM    8  C   UNL     1       7.881  24.556  55.445  1.00  0.00     0.156 A 
HETATM    9  C   UNL     1       6.212  24.312  52.286  1.00  0.00     0.034 A 
HETATM   10  C   UNL     1       5.213  25.294  52.324  1.00  0.00     0.032 A 
ENDROOT
BRANCH   1  11
HETATM   11  N   UNL     1       3.983  27.072  53.326  1.00  0.00    -0.324 N 
HETATM   12  C   UNL     1       3.788  28.177  52.552  1.00  0.00     0.246 C 
HETATM   13  O   UNL     1       2.702  28.754  52.596  1.00  0.00    -0.268 OA
HETATM   14  H   UNL     1       3.168  26.918  53.911  1.00  0.00     0.169 HD
BRANCH  12  15
HETATM   15  C   UNL     1       4.892  28.721  51.737  1.00  0.00     0.082 C 
HETATM   16  C   UNL     1       4.856  28.788  50.393  1.00  0.00    -0.043 C 
HETATM   17  C   UNL     1       5.972  29.390  49.589  1.00  0.00     0.049 C 
BRANCH  16  18
HETATM   18  C   UNL     1       3.725  28.262  49.609  1.00  0.00     0.009 A 
HETATM   19  C   UNL     1       3.777  26.987  49.029  1.00  0.00     0.130 A 
HETATM   20  F   UNL     1       4.853  26.205  49.208  1.00  0.00    -0.205 F 
HETATM   21  C   UNL     1       2.723  26.503  48.263  1.00  0.00     0.085 A 
HETATM   22  C   UNL     1       1.601  27.299  48.083  1.00  0.00     0.119 A 
HETATM   23  F   UNL     1       0.578  26.842  47.350  1.00  0.00    -0.206 F 
HETATM   24  C   UNL     1       1.517  28.566  48.656  1.00  0.00     0.043 A 
HETATM   25  C   UNL     1       2.582  29.051  49.418  1.00  0.00     0.018 A 
ENDBRANCH  16  18
ENDBRANCH  12  15
ENDBRANCH   1  11
BRANCH   8  26
HETATM   26  C   UNL     1       8.154  25.080  56.791  1.00  0.00     0.270 C 
HETATM   27  N   UNL     1       8.197  24.122  57.765  1.00  0.00    -0.365 N 
HETATM   28  H   UNL     1       8.037  23.155  57.504  1.00  0.00     0.159 HD
HETATM   29  H   UNL     1       8.370  24.385  58.723  1.00  0.00     0.159 HD
HETATM   30  O   UNL     1       8.331  26.266  57.050  1.00  0.00    -0.266 OA
ENDBRANCH   8  26
TORSDOF 4
ENDMDL
MODEL 9
REMARK VINA RESULT:      -7.9      4.043      6.970
REMARK  4 active torsions:
REMARK  status: ('A' for Active; 'I' for Inactive)
REMARK    1  A    between atoms: C_2  and  C_3 
REMARK    2  A    between atoms: C_11  and  C_12 
REMARK       I    between atoms: C_12  and  N_13 
REMARK    3  A    between atoms: N_13  and  C_14 
REMARK    4  A    between atoms: C_21  and  C_22 
REMARK       I    between atoms: C_22  and  N_23 
ROOT
HETATM    1  C   UNL     1       4.119  28.238  53.609  1.00  0.00     0.035 A 
HETATM    2  C   UNL     1       4.367  27.774  52.312  1.00  0.00     0.046 A 
HETATM    3  C   UNL     1       4.246  28.658  51.216  1.00  0.00     0.030 A 
HETATM    4  C   UNL     1       3.896  29.980  51.451  1.00  0.00     0.063 A 
HETATM    5  N   UNL     1       3.865  30.572  50.219  1.00  0.00    -0.277 N 
HETATM    6  H   UNL     1       3.647  31.539  50.007  1.00  0.00     0.189 HD
HETATM    7  N   UNL     1       4.165  29.749  49.199  1.00  0.00    -0.168 NA
HETATM    8  C   UNL     1       4.405  28.563  49.800  1.00  0.00     0.156 A 
HETATM    9  C   UNL     1       3.656  30.485  52.727  1.00  0.00     0.034 A 
HETATM   10  C   UNL     1       3.778  29.587  53.796  1.00  0.00     0.032 A 
ENDROOT
BRANCH   1  11
HETATM   11  N   UNL     1       4.220  27.460  54.776  1.00  0.00    -0.324 N 
HETATM   12  C   UNL     1       5.063  27.455  55.848  1.00  0.00     0.246 C 
HETATM   13  O   UNL     1       4.820  26.713  56.798  1.00  0.00    -0.268 OA
HETATM   14  H   UNL     1       3.502  26.754  54.905  1.00  0.00     0.169 HD
BRANCH  12  15
HETATM   15  C   UNL     1       6.295  28.269  55.829  1.00  0.00     0.082 C 
HETATM   16  C   UNL     1       7.425  27.886  55.205  1.00  0.00    -0.043 C 
HETATM   17  C   UNL     1       8.649  28.754  55.158  1.00  0.00     0.049 C 
BRANCH  16  18
HETATM   18  C   UNL     1       7.549  26.581  54.533  1.00  0.00     0.009 A 
HETATM   19  C   UNL     1       7.701  25.399  55.270  1.00  0.00     0.130 A 
HETATM   20  F   UNL     1       7.703  25.433  56.611  1.00  0.00    -0.205 F 
HETATM   21  C   UNL     1       7.850  24.171  54.635  1.00  0.00     0.085 A 
HETATM   22  C   UNL     1       7.837  24.124  53.249  1.00  0.00     0.119 A 
HETATM   23  F   UNL     1       7.976  22.946  52.626  1.00  0.00    -0.206 F 
HETATM   24  C   UNL     1       7.677  25.281  52.490  1.00  0.00     0.043 A 
HETATM   25  C   UNL     1       7.536  26.514  53.132  1.00  0.00     0.018 A 
ENDBRANCH  16  18
ENDBRANCH  12  15
ENDBRANCH   1  11
BRANCH   8  26
HETATM   26  C   UNL     1       4.772  27.368  49.027  1.00  0.00     0.270 C 
HETATM   27  N   UNL     1       5.604  27.621  47.971  1.00  0.00    -0.365 N 
HETATM   28  H   UNL     1       5.892  28.577  47.797  1.00  0.00     0.159 HD
HETATM   29  H   UNL     1       5.905  26.865  47.375  1.00  0.00     0.159 HD
HETATM   30  O   UNL     1       4.384  26.233  49.279  1.00  0.00    -0.266 OA
ENDBRANCH   8  26
TORSDOF 4
ENDMDL
MODEL 10
REMARK VINA RESULT:      -7.8      4.564      7.203
REMARK  4 active torsions:
REMARK  status: ('A' for Active; 'I' for Inactive)
REMARK    1  A    between atoms: C_2  and  C_3 
REMARK    2  A    between atoms: C_11  and  C_12 
REMARK       I    between atoms: C_12  and  N_13 
REMARK    3  A    between atoms: N_13  and  C_14 
REMARK    4  A    between atoms: C_21  and  C_22 
REMARK       I    between atoms: C_22  and  N_23 
ROOT
HETATM    1  C   UNL     1       4.457  27.263  52.743  1.00  0.00     0.035 A 
HETATM    2  C   UNL     1       4.255  28.286  51.809  1.00  0.00     0.046 A 
HETATM    3  C   UNL     1       4.552  28.060  50.447  1.00  0.00     0.030 A 
HETATM    4  C   UNL     1       5.026  26.816  50.057  1.00  0.00     0.063 A 
HETATM    5  N   UNL     1       5.211  26.904  48.705  1.00  0.00    -0.277 N 
HETATM    6  H   UNL     1       5.548  26.179  48.082  1.00  0.00     0.189 HD
HETATM    7  N   UNL     1       4.898  28.101  48.178  1.00  0.00    -0.168 NA
HETATM    8  C   UNL     1       4.488  28.825  49.243  1.00  0.00     0.156 A 
HETATM    9  C   UNL     1       5.225  25.766  50.952  1.00  0.00     0.034 A 
HETATM   10  C   UNL     1       4.928  26.019  52.298  1.00  0.00     0.032 A 
ENDROOT
BRANCH   1  11
HETATM   11  N   UNL     1       4.186  27.364  54.120  1.00  0.00    -0.324 N 
HETATM   12  C   UNL     1       4.774  28.021  55.160  1.00  0.00     0.246 C 
HETATM   13  O   UNL     1       4.223  28.015  56.260  1.00  0.00    -0.268 OA
HETATM   14  H   UNL     1       3.357  26.881  54.448  1.00  0.00     0.169 HD
BRANCH  12  15
HETATM   15  C   UNL     1       6.094  28.660  54.987  1.00  0.00     0.082 C 
HETATM   16  C   UNL     1       7.256  27.984  55.049  1.00  0.00    -0.043 C 
HETATM   17  C   UNL     1       8.584  28.648  54.821  1.00  0.00     0.049 C 
BRANCH  16  18
HETATM   18  C   UNL     1       7.314  26.545  55.359  1.00  0.00     0.009 A 
HETATM   19  C   UNL     1       7.211  26.085  56.679  1.00  0.00     0.130 A 
HETATM   20  F   UNL     1       7.023  26.952  57.686  1.00  0.00    -0.205 F 
HETATM   21  C   UNL     1       7.298  24.729  56.976  1.00  0.00     0.085 A 
HETATM   22  C   UNL     1       7.479  23.825  55.940  1.00  0.00     0.119 A 
HETATM   23  F   UNL     1       7.560  22.516  56.214  1.00  0.00    -0.206 F 
HETATM   24  C   UNL     1       7.575  24.252  54.618  1.00  0.00     0.043 A 
HETATM   25  C   UNL     1       7.495  25.615  54.326  1.00  0.00     0.018 A 
ENDBRANCH  16  18
ENDBRANCH  12  15
ENDBRANCH   1  11
BRANCH   8  26
HETATM   26  C   UNL     1       4.049  30.221  49.101  1.00  0.00     0.270 C 
HETATM   27  N   UNL     1       5.068  31.133  49.140  1.00  0.00    -0.365 N 
HETATM   28  H   UNL     1       6.017  30.797  49.264  1.00  0.00     0.159 HD
HETATM   29  H   UNL     1       4.866  32.117  49.059  1.00  0.00     0.159 HD
HETATM   30  O   UNL     1       2.882  30.570  48.962  1.00  0.00    -0.266 OA
ENDBRANCH   8  26
TORSDOF 4
ENDMDL
