MODEL 1
REMARK VINA RESULT:      -9.7      0.000      0.000
REMARK  7 active torsions:
REMARK  status: ('A' for Active; 'I' for Inactive)
REMARK    1  A    between atoms: C_5  and  O_6 
REMARK    2  A    between atoms: O_6  and  C_7 
REMARK    3  A    between atoms: C_7  and  C_8 
REMARK       I    between atoms: C_8  and  N_9 
REMARK    4  A    between atoms: N_9  and  N_10 
REMARK       I    between atoms: N_10  and  C_11 
REMARK    5  A    between atoms: C_11  and  C_12 
REMARK    6  A    between atoms: C_14  and  C_15 
REMARK    7  A    between atoms: C_22  and  C_23 
ROOT
HETATM    1  N   UNL     1       7.084  28.657  54.449  1.00  0.00    -0.262 N 
HETATM    2  C   UNL     1       6.254  29.209  55.411  1.00  0.00     0.291 C 
HETATM    3  O   UNL     1       5.128  29.638  55.190  1.00  0.00    -0.264 OA
HETATM    4  H   UNL     1       7.950  28.214  54.751  1.00  0.00     0.190 HD
ENDROOT
BRANCH   2   5
HETATM    5  C   UNL     1       6.896  29.254  56.715  1.00  0.00     0.159 A 
HETATM    6  N   UNL     1       6.856  30.380  57.531  1.00  0.00    -0.216 NA
HETATM    7  C   UNL     1       7.575  30.034  58.583  1.00  0.00     0.180 A 
HETATM    8  O   UNL     1       8.014  28.737  58.558  1.00  0.00    -0.293 OA
HETATM    9  C   UNL     1       7.568  28.239  57.364  1.00  0.00     0.094 A 
BRANCH   7  10
HETATM   10  C   UNL     1       7.968  30.838  59.738  1.00  0.00     0.017 A 
HETATM   11  C   UNL     1       9.120  30.495  60.464  1.00  0.00     0.016 A 
HETATM   12  C   UNL     1       9.505  31.231  61.589  1.00  0.00     0.001 A 
HETATM   13  C   UNL     1       8.743  32.322  62.001  1.00  0.00     0.000 A 
HETATM   14  C   UNL     1       7.599  32.679  61.291  1.00  0.00     0.001 A 
HETATM   15  C   UNL     1       7.214  31.942  60.167  1.00  0.00     0.016 A 
ENDBRANCH   7  10
BRANCH   9  16
HETATM   16  C   UNL     1       7.755  26.804  56.907  1.00  0.00     0.046 A 
HETATM   17  C   UNL     1       7.997  25.741  57.957  1.00  0.00     0.012 A 
HETATM   18  C   UNL     1       6.673  25.809  57.277  1.00  0.00     0.012 A 
ENDBRANCH   9  16
ENDBRANCH   2   5
BRANCH   1  19
HETATM   19  N   UNL     1       6.646  28.454  53.142  1.00  0.00    -0.265 N 
HETATM   20  C   UNL     1       6.205  27.254  52.635  1.00  0.00     0.260 C 
HETATM   21  O   UNL     1       5.774  27.222  51.479  1.00  0.00    -0.269 OA
HETATM   22  H   UNL     1       6.675  29.238  52.497  1.00  0.00     0.190 HD
BRANCH  20  23
HETATM   23  C   UNL     1       6.264  26.001  53.507  1.00  0.00     0.280 C 
BRANCH  23  24
HETATM   24  O   UNL     1       7.635  25.634  53.617  1.00  0.00    -0.342 OA
BRANCH  24  25
HETATM   25  C   UNL     1       7.928  24.321  53.844  1.00  0.00     0.069 A 
HETATM   26  C   UNL     1       7.554  23.456  52.814  1.00  0.00     0.037 A 
HETATM   27  C   UNL     1       7.795  22.084  52.910  1.00  0.00     0.009 A 
HETATM   28  C   UNL     1       8.403  21.556  54.052  1.00  0.00    -0.062 A 
HETATM   29  C   UNL     1       8.696  20.088  54.142  1.00  0.00     0.048 C 
HETATM   30  C   UNL     1       8.780  22.425  55.082  1.00  0.00     0.009 A 
HETATM   31  C   UNL     1       8.533  23.800  54.986  1.00  0.00     0.037 A 
ENDBRANCH  24  25
ENDBRANCH  23  24
ENDBRANCH  20  23
ENDBRANCH   1  19
TORSDOF 7
ENDMDL
MODEL 2
REMARK VINA RESULT:      -9.6      1.712      2.172
REMARK  7 active torsions:
REMARK  status: ('A' for Active; 'I' for Inactive)
REMARK    1  A    between atoms: C_5  and  O_6 
REMARK    2  A    between atoms: O_6  and  C_7 
REMARK    3  A    between atoms: C_7  and  C_8 
REMARK       I    between atoms: C_8  and  N_9 
REMARK    4  A    between atoms: N_9  and  N_10 
REMARK       I    between atoms: N_10  and  C_11 
REMARK    5  A    between atoms: C_11  and  C_12 
REMARK    6  A    between atoms: C_14  and  C_15 
REMARK    7  A    between atoms: C_22  and  C_23 
ROOT
HETATM    1  N   UNL     1       6.024  28.161  56.647  1.00  0.00    -0.262 N 
HETATM    2  C   UNL     1       6.423  29.480  56.503  1.00  0.00     0.291 C 
HETATM    3  O   UNL     1       6.208  30.164  55.510  1.00  0.00    -0.264 OA
HETATM    4  H   UNL     1       6.136  27.716  57.557  1.00  0.00     0.190 HD
ENDROOT
BRANCH   2   5
HETATM    5  C   UNL     1       7.163  29.949  57.663  1.00  0.00     0.159 A 
HETATM    6  N   UNL     1       6.553  30.613  58.722  1.00  0.00    -0.216 NA
HETATM    7  C   UNL     1       7.554  30.898  59.536  1.00  0.00     0.180 A 
HETATM    8  O   UNL     1       8.762  30.399  59.130  1.00  0.00    -0.293 OA
HETATM    9  C   UNL     1       8.505  29.783  57.936  1.00  0.00     0.094 A 
BRANCH   7  10
HETATM   10  C   UNL     1       7.545  31.673  60.775  1.00  0.00     0.017 A 
HETATM   11  C   UNL     1       8.395  31.304  61.831  1.00  0.00     0.016 A 
HETATM   12  C   UNL     1       8.388  32.011  63.037  1.00  0.00     0.001 A 
HETATM   13  C   UNL     1       7.533  33.097  63.203  1.00  0.00     0.000 A 
HETATM   14  C   UNL     1       6.686  33.479  62.165  1.00  0.00     0.001 A 
HETATM   15  C   UNL     1       6.692  32.772  60.960  1.00  0.00     0.016 A 
ENDBRANCH   7  10
BRANCH   9  16
HETATM   16  C   UNL     1       9.533  29.018  57.123  1.00  0.00     0.046 A 
HETATM   17  C   UNL     1      10.035  29.637  55.836  1.00  0.00     0.012 A 
HETATM   18  C   UNL     1      10.926  29.609  57.029  1.00  0.00     0.012 A 
ENDBRANCH   9  16
ENDBRANCH   2   5
BRANCH   1  19
HETATM   19  N   UNL     1       5.241  27.530  55.683  1.00  0.00    -0.265 N 
HETATM   20  C   UNL     1       5.727  26.764  54.649  1.00  0.00     0.260 C 
HETATM   21  O   UNL     1       4.924  26.198  53.902  1.00  0.00    -0.269 OA
HETATM   22  H   UNL     1       4.235  27.660  55.719  1.00  0.00     0.190 HD
BRANCH  20  23
HETATM   23  C   UNL     1       7.237  26.638  54.451  1.00  0.00     0.280 C 
BRANCH  23  24
HETATM   24  O   UNL     1       7.690  25.621  55.337  1.00  0.00    -0.342 OA
BRANCH  24  25
HETATM   25  C   UNL     1       7.771  24.346  54.858  1.00  0.00     0.069 A 
HETATM   26  C   UNL     1       7.948  24.256  53.476  1.00  0.00     0.037 A 
HETATM   27  C   UNL     1       8.050  23.013  52.849  1.00  0.00     0.009 A 
HETATM   28  C   UNL     1       7.960  21.837  53.598  1.00  0.00    -0.062 A 
HETATM   29  C   UNL     1       8.105  20.501  52.932  1.00  0.00     0.048 C 
HETATM   30  C   UNL     1       7.785  21.930  54.985  1.00  0.00     0.009 A 
HETATM   31  C   UNL     1       7.679  23.178  55.611  1.00  0.00     0.037 A 
ENDBRANCH  24  25
ENDBRANCH  23  24
ENDBRANCH  20  23
ENDBRANCH   1  19
TORSDOF 7
ENDMDL
MODEL 3
REMARK VINA RESULT:      -9.1      2.005      8.479
REMARK  7 active torsions:
REMARK  status: ('A' for Active; 'I' for Inactive)
REMARK    1  A    between atoms: C_5  and  O_6 
REMARK    2  A    between atoms: O_6  and  C_7 
REMARK    3  A    between atoms: C_7  and  C_8 
REMARK       I    between atoms: C_8  and  N_9 
REMARK    4  A    between atoms: N_9  and  N_10 
REMARK       I    between atoms: N_10  and  C_11 
REMARK    5  A    between atoms: C_11  and  C_12 
REMARK    6  A    between atoms: C_14  and  C_15 
REMARK    7  A    between atoms: C_22  and  C_23 
ROOT
HETATM    1  N   UNL     1       4.392  27.920  56.350  1.00  0.00    -0.262 N 
HETATM    2  C   UNL     1       4.849  27.508  55.108  1.00  0.00     0.291 C 
HETATM    3  O   UNL     1       4.411  27.917  54.039  1.00  0.00    -0.264 OA
HETATM    4  H   UNL     1       4.902  27.619  57.179  1.00  0.00     0.190 HD
ENDROOT
BRANCH   2   5
HETATM    5  C   UNL     1       5.889  26.499  55.223  1.00  0.00     0.159 A 
HETATM    6  N   UNL     1       5.857  25.306  54.510  1.00  0.00    -0.216 NA
HETATM    7  C   UNL     1       6.937  24.664  54.918  1.00  0.00     0.180 A 
HETATM    8  O   UNL     1       7.719  25.381  55.782  1.00  0.00    -0.293 OA
HETATM    9  C   UNL     1       7.050  26.560  55.967  1.00  0.00     0.094 A 
BRANCH   7  10
HETATM   10  C   UNL     1       7.389  23.314  54.588  1.00  0.00     0.017 A 
HETATM   11  C   UNL     1       7.590  22.957  53.245  1.00  0.00     0.016 A 
HETATM   12  C   UNL     1       7.997  21.665  52.899  1.00  0.00     0.001 A 
HETATM   13  C   UNL     1       8.211  20.712  53.893  1.00  0.00     0.000 A 
HETATM   14  C   UNL     1       8.019  21.050  55.232  1.00  0.00     0.001 A 
HETATM   15  C   UNL     1       7.611  22.342  55.576  1.00  0.00     0.016 A 
ENDBRANCH   7  10
BRANCH   9  16
HETATM   16  C   UNL     1       7.560  27.719  56.803  1.00  0.00     0.046 A 
HETATM   17  C   UNL     1       9.053  27.843  57.022  1.00  0.00     0.012 A 
HETATM   18  C   UNL     1       8.370  28.786  56.093  1.00  0.00     0.012 A 
ENDBRANCH   9  16
ENDBRANCH   2   5
BRANCH   1  19
HETATM   19  N   UNL     1       3.443  28.931  56.475  1.00  0.00    -0.265 N 
HETATM   20  C   UNL     1       3.727  30.254  56.729  1.00  0.00     0.260 C 
HETATM   21  O   UNL     1       2.798  31.066  56.744  1.00  0.00    -0.269 OA
HETATM   22  H   UNL     1       2.461  28.682  56.403  1.00  0.00     0.190 HD
BRANCH  20  23
HETATM   23  C   UNL     1       5.172  30.677  56.985  1.00  0.00     0.280 C 
BRANCH  23  24
HETATM   24  O   UNL     1       5.134  31.727  57.945  1.00  0.00    -0.342 OA
BRANCH  24  25
HETATM   25  C   UNL     1       6.129  31.776  58.878  1.00  0.00     0.069 A 
HETATM   26  C   UNL     1       7.297  31.102  58.516  1.00  0.00     0.037 A 
HETATM   27  C   UNL     1       8.399  31.071  59.373  1.00  0.00     0.009 A 
HETATM   28  C   UNL     1       8.340  31.705  60.617  1.00  0.00    -0.062 A 
HETATM   29  C   UNL     1       9.534  31.705  61.524  1.00  0.00     0.048 C 
HETATM   30  C   UNL     1       7.169  32.383  60.977  1.00  0.00     0.009 A 
HETATM   31  C   UNL     1       6.063  32.409  60.117  1.00  0.00     0.037 A 
ENDBRANCH  24  25
ENDBRANCH  23  24
ENDBRANCH  20  23
ENDBRANCH   1  19
TORSDOF 7
ENDMDL
MODEL 4
REMARK VINA RESULT:      -9.1      3.669      8.213
REMARK  7 active torsions:
REMARK  status: ('A' for Active; 'I' for Inactive)
REMARK    1  A    between atoms: C_5  and  O_6 
REMARK    2  A    between atoms: O_6  and  C_7 
REMARK    3  A    between atoms: C_7  and  C_8 
REMARK       I    between atoms: C_8  and  N_9 
REMARK    4  A    between atoms: N_9  and  N_10 
REMARK       I    between atoms: N_10  and  C_11 
REMARK    5  A    between atoms: C_11  and  C_12 
REMARK    6  A    between atoms: C_14  and  C_15 
REMARK    7  A    between atoms: C_22  and  C_23 
ROOT
HETATM    1  N   UNL     1       6.007  27.765  52.683  1.00  0.00    -0.262 N 
HETATM    2  C   UNL     1       7.097  27.472  53.488  1.00  0.00     0.291 C 
HETATM    3  O   UNL     1       8.030  28.238  53.695  1.00  0.00    -0.264 OA
HETATM    4  H   UNL     1       5.223  27.114  52.673  1.00  0.00     0.190 HD
ENDROOT
BRANCH   2   5
HETATM    5  C   UNL     1       7.020  26.125  54.031  1.00  0.00     0.159 A 
HETATM    6  N   UNL     1       7.852  25.097  53.602  1.00  0.00    -0.216 NA
HETATM    7  C   UNL     1       7.445  24.050  54.296  1.00  0.00     0.180 A 
HETATM    8  O   UNL     1       6.464  24.331  55.208  1.00  0.00    -0.293 OA
HETATM    9  C   UNL     1       6.202  25.664  55.041  1.00  0.00     0.094 A 
BRANCH   7  10
HETATM   10  C   UNL     1       7.883  22.658  54.211  1.00  0.00     0.017 A 
HETATM   11  C   UNL     1       7.916  22.015  52.963  1.00  0.00     0.016 A 
HETATM   12  C   UNL     1       8.306  20.677  52.855  1.00  0.00     0.001 A 
HETATM   13  C   UNL     1       8.669  19.963  53.995  1.00  0.00     0.000 A 
HETATM   14  C   UNL     1       8.645  20.586  55.242  1.00  0.00     0.001 A 
HETATM   15  C   UNL     1       8.254  21.924  55.348  1.00  0.00     0.016 A 
ENDBRANCH   7  10
BRANCH   9  16
HETATM   16  C   UNL     1       5.220  26.460  55.881  1.00  0.00     0.046 A 
HETATM   17  C   UNL     1       4.959  26.008  57.302  1.00  0.00     0.012 A 
HETATM   18  C   UNL     1       5.778  27.228  57.063  1.00  0.00     0.012 A 
ENDBRANCH   9  16
ENDBRANCH   2   5
BRANCH   1  19
HETATM   19  N   UNL     1       5.842  29.025  52.115  1.00  0.00    -0.265 N 
HETATM   20  C   UNL     1       5.553  29.263  50.792  1.00  0.00     0.260 C 
HETATM   21  O   UNL     1       5.358  30.427  50.428  1.00  0.00    -0.269 OA
HETATM   22  H   UNL     1       5.970  29.841  52.707  1.00  0.00     0.190 HD
BRANCH  20  23
HETATM   23  C   UNL     1       5.483  28.091  49.814  1.00  0.00     0.280 C 
BRANCH  23  24
HETATM   24  O   UNL     1       4.278  27.388  50.093  1.00  0.00    -0.342 OA
BRANCH  24  25
HETATM   25  C   UNL     1       3.264  27.473  49.183  1.00  0.00     0.069 A 
HETATM   26  C   UNL     1       3.321  26.526  48.159  1.00  0.00     0.037 A 
HETATM   27  C   UNL     1       2.347  26.493  47.160  1.00  0.00     0.009 A 
HETATM   28  C   UNL     1       1.306  27.425  47.163  1.00  0.00    -0.062 A 
HETATM   29  C   UNL     1       0.238  27.370  46.112  1.00  0.00     0.048 C 
HETATM   30  C   UNL     1       1.248  28.373  48.193  1.00  0.00     0.009 A 
HETATM   31  C   UNL     1       2.229  28.406  49.192  1.00  0.00     0.037 A 
ENDBRANCH  24  25
ENDBRANCH  23  24
ENDBRANCH  20  23
ENDBRANCH   1  19
TORSDOF 7
ENDMDL
MODEL 5
REMARK VINA RESULT:      -9.1      2.185      9.109
REMARK  7 active torsions:
REMARK  status: ('A' for Active; 'I' for Inactive)
REMARK    1  A    between atoms: C_5  and  O_6 
REMARK    2  A    between atoms: O_6  and  C_7 
REMARK    3  A    between atoms: C_7  and  C_8 
REMARK       I    between atoms: C_8  and  N_9 
REMARK    4  A    between atoms: N_9  and  N_10 
REMARK       I    between atoms: N_10  and  C_11 
REMARK    5  A    between atoms: C_11  and  C_12 
REMARK    6  A    between atoms: C_14  and  C_15 
REMARK    7  A    between atoms: C_22  and  C_23 
ROOT
HETATM    1  N   UNL     1       4.721  28.814  57.607  1.00  0.00    -0.262 N 
HETATM    2  C   UNL     1       4.883  28.510  56.264  1.00  0.00     0.291 C 
HETATM    3  O   UNL     1       4.219  29.000  55.359  1.00  0.00    -0.264 OA
HETATM    4  H   UNL     1       5.402  28.452  58.272  1.00  0.00     0.190 HD
ENDROOT
BRANCH   2   5
HETATM    5  C   UNL     1       5.913  27.505  56.060  1.00  0.00     0.159 A 
HETATM    6  N   UNL     1       5.720  26.389  55.253  1.00  0.00    -0.216 NA
HETATM    7  C   UNL     1       6.854  25.720  55.362  1.00  0.00     0.180 A 
HETATM    8  O   UNL     1       7.807  26.354  56.113  1.00  0.00    -0.293 OA
HETATM    9  C   UNL     1       7.203  27.502  56.549  1.00  0.00     0.094 A 
BRANCH   7  10
HETATM   10  C   UNL     1       7.213  24.414  54.811  1.00  0.00     0.017 A 
HETATM   11  C   UNL     1       7.421  24.276  53.430  1.00  0.00     0.016 A 
HETATM   12  C   UNL     1       7.740  23.034  52.873  1.00  0.00     0.001 A 
HETATM   13  C   UNL     1       7.856  21.913  53.692  1.00  0.00     0.000 A 
HETATM   14  C   UNL     1       7.656  22.032  55.066  1.00  0.00     0.001 A 
HETATM   15  C   UNL     1       7.337  23.275  55.621  1.00  0.00     0.016 A 
ENDBRANCH   7  10
BRANCH   9  16
HETATM   16  C   UNL     1       7.889  28.575  57.373  1.00  0.00     0.046 A 
HETATM   17  C   UNL     1       9.389  28.729  57.247  1.00  0.00     0.012 A 
HETATM   18  C   UNL     1       8.496  29.745  56.626  1.00  0.00     0.012 A 
ENDBRANCH   9  16
ENDBRANCH   2   5
BRANCH   1  19
HETATM   19  N   UNL     1       3.834  29.803  58.025  1.00  0.00    -0.265 N 
HETATM   20  C   UNL     1       4.184  31.095  58.343  1.00  0.00     0.260 C 
HETATM   21  O   UNL     1       3.291  31.897  58.631  1.00  0.00    -0.269 OA
HETATM   22  H   UNL     1       2.855  29.557  58.133  1.00  0.00     0.190 HD
BRANCH  20  23
HETATM   23  C   UNL     1       5.658  31.498  58.337  1.00  0.00     0.280 C 
BRANCH  23  24
HETATM   24  O   UNL     1       5.749  32.754  58.999  1.00  0.00    -0.342 OA
BRANCH  24  25
HETATM   25  C   UNL     1       6.308  32.781  60.244  1.00  0.00     0.069 A 
HETATM   26  C   UNL     1       5.625  33.572  61.170  1.00  0.00     0.037 A 
HETATM   27  C   UNL     1       6.082  33.690  62.484  1.00  0.00     0.009 A 
HETATM   28  C   UNL     1       7.246  33.027  62.885  1.00  0.00    -0.062 A 
HETATM   29  C   UNL     1       7.720  33.123  64.305  1.00  0.00     0.048 C 
HETATM   30  C   UNL     1       7.927  32.233  61.956  1.00  0.00     0.009 A 
HETATM   31  C   UNL     1       7.469  32.119  60.637  1.00  0.00     0.037 A 
ENDBRANCH  24  25
ENDBRANCH  23  24
ENDBRANCH  20  23
ENDBRANCH   1  19
TORSDOF 7
ENDMDL
MODEL 6
REMARK VINA RESULT:      -8.9      3.062      7.233
REMARK  7 active torsions:
REMARK  status: ('A' for Active; 'I' for Inactive)
REMARK    1  A    between atoms: C_5  and  O_6 
REMARK    2  A    between atoms: O_6  and  C_7 
REMARK    3  A    between atoms: C_7  and  C_8 
REMARK       I    between atoms: C_8  and  N_9 
REMARK    4  A    between atoms: N_9  and  N_10 
REMARK       I    between atoms: N_10  and  C_11 
REMARK    5  A    between atoms: C_11  and  C_12 
REMARK    6  A    between atoms: C_14  and  C_15 
REMARK    7  A    between atoms: C_22  and  C_23 
ROOT
HETATM    1  N   UNL     1       5.435  29.000  53.301  1.00  0.00    -0.262 N 
HETATM    2  C   UNL     1       5.027  28.265  54.403  1.00  0.00     0.291 C 
HETATM    3  O   UNL     1       4.026  28.509  55.065  1.00  0.00    -0.264 OA
HETATM    4  H   UNL     1       6.209  28.646  52.740  1.00  0.00     0.190 HD
ENDROOT
BRANCH   2   5
HETATM    5  C   UNL     1       5.955  27.188  54.705  1.00  0.00     0.159 A 
HETATM    6  N   UNL     1       5.921  25.964  54.045  1.00  0.00    -0.216 NA
HETATM    7  C   UNL     1       6.879  25.264  54.627  1.00  0.00     0.180 A 
HETATM    8  O   UNL     1       7.593  25.964  55.562  1.00  0.00    -0.293 OA
HETATM    9  C   UNL     1       7.004  27.199  55.601  1.00  0.00     0.094 A 
BRANCH   7  10
HETATM   10  C   UNL     1       7.258  23.867  54.420  1.00  0.00     0.017 A 
HETATM   11  C   UNL     1       7.373  23.008  55.525  1.00  0.00     0.016 A 
HETATM   12  C   UNL     1       7.760  21.675  55.359  1.00  0.00     0.001 A 
HETATM   13  C   UNL     1       8.034  21.182  54.085  1.00  0.00     0.000 A 
HETATM   14  C   UNL     1       7.922  22.020  52.978  1.00  0.00     0.001 A 
HETATM   15  C   UNL     1       7.536  23.354  53.144  1.00  0.00     0.016 A 
ENDBRANCH   7  10
BRANCH   9  16
HETATM   16  C   UNL     1       7.490  28.357  56.452  1.00  0.00     0.046 A 
HETATM   17  C   UNL     1       8.893  28.295  57.015  1.00  0.00     0.012 A 
HETATM   18  C   UNL     1       8.600  29.220  55.885  1.00  0.00     0.012 A 
ENDBRANCH   9  16
ENDBRANCH   2   5
BRANCH   1  19
HETATM   19  N   UNL     1       4.658  30.038  52.793  1.00  0.00    -0.265 N 
HETATM   20  C   UNL     1       4.702  30.496  51.496  1.00  0.00     0.260 C 
HETATM   21  O   UNL     1       3.908  31.376  51.151  1.00  0.00    -0.269 OA
HETATM   22  H   UNL     1       4.026  30.520  53.424  1.00  0.00     0.190 HD
BRANCH  20  23
HETATM   23  C   UNL     1       5.727  29.911  50.526  1.00  0.00     0.280 C 
BRANCH  23  24
HETATM   24  O   UNL     1       5.619  28.494  50.610  1.00  0.00    -0.342 OA
BRANCH  24  25
HETATM   25  C   UNL     1       4.933  27.847  49.624  1.00  0.00     0.069 A 
HETATM   26  C   UNL     1       4.597  26.525  49.922  1.00  0.00     0.037 A 
HETATM   27  C   UNL     1       3.892  25.743  49.006  1.00  0.00     0.009 A 
HETATM   28  C   UNL     1       3.526  26.271  47.765  1.00  0.00    -0.062 A 
HETATM   29  C   UNL     1       2.737  25.445  46.793  1.00  0.00     0.048 C 
HETATM   30  C   UNL     1       3.862  27.598  47.469  1.00  0.00     0.009 A 
HETATM   31  C   UNL     1       4.573  28.380  48.388  1.00  0.00     0.037 A 
ENDBRANCH  24  25
ENDBRANCH  23  24
ENDBRANCH  20  23
ENDBRANCH   1  19
TORSDOF 7
ENDMDL
MODEL 7
REMARK VINA RESULT:      -8.9      2.020      2.973
REMARK  7 active torsions:
REMARK  status: ('A' for Active; 'I' for Inactive)
REMARK    1  A    between atoms: C_5  and  O_6 
REMARK    2  A    between atoms: O_6  and  C_7 
REMARK    3  A    between atoms: C_7  and  C_8 
REMARK       I    between atoms: C_8  and  N_9 
REMARK    4  A    between atoms: N_9  and  N_10 
REMARK       I    between atoms: N_10  and  C_11 
REMARK    5  A    between atoms: C_11  and  C_12 
REMARK    6  A    between atoms: C_14  and  C_15 
REMARK    7  A    between atoms: C_22  and  C_23 
ROOT
HETATM    1  N   UNL     1       4.674  27.738  54.755  1.00  0.00    -0.262 N 
HETATM    2  C   UNL     1       4.973  27.548  56.095  1.00  0.00     0.291 C 
HETATM    3  O   UNL     1       4.877  26.476  56.680  1.00  0.00    -0.264 OA
HETATM    4  H   UNL     1       4.905  28.634  54.328  1.00  0.00     0.190 HD
ENDROOT
BRANCH   2   5
HETATM    5  C   UNL     1       5.381  28.786  56.737  1.00  0.00     0.159 A 
HETATM    6  N   UNL     1       6.636  28.952  57.313  1.00  0.00    -0.216 NA
HETATM    7  C   UNL     1       6.596  30.175  57.812  1.00  0.00     0.180 A 
HETATM    8  O   UNL     1       5.440  30.854  57.534  1.00  0.00    -0.293 OA
HETATM    9  C   UNL     1       4.669  29.964  56.837  1.00  0.00     0.094 A 
BRANCH   7  10
HETATM   10  C   UNL     1       7.594  30.878  58.616  1.00  0.00     0.017 A 
HETATM   11  C   UNL     1       8.957  30.744  58.305  1.00  0.00     0.016 A 
HETATM   12  C   UNL     1       9.934  31.384  59.073  1.00  0.00     0.001 A 
HETATM   13  C   UNL     1       9.561  32.169  60.162  1.00  0.00     0.000 A 
HETATM   14  C   UNL     1       8.212  32.315  60.483  1.00  0.00     0.001 A 
HETATM   15  C   UNL     1       7.236  31.674  59.715  1.00  0.00     0.016 A 
ENDBRANCH   7  10
BRANCH   9  16
HETATM   16  C   UNL     1       3.307  30.281  56.249  1.00  0.00     0.046 A 
HETATM   17  C   UNL     1       2.916  31.734  56.086  1.00  0.00     0.012 A 
HETATM   18  C   UNL     1       3.273  30.933  54.882  1.00  0.00     0.012 A 
ENDBRANCH   9  16
ENDBRANCH   2   5
BRANCH   1  19
HETATM   19  N   UNL     1       4.327  26.671  53.930  1.00  0.00    -0.265 N 
HETATM   20  C   UNL     1       5.183  26.033  53.062  1.00  0.00     0.260 C 
HETATM   21  O   UNL     1       4.771  25.051  52.438  1.00  0.00    -0.269 OA
HETATM   22  H   UNL     1       3.365  26.346  53.941  1.00  0.00     0.190 HD
BRANCH  20  23
HETATM   23  C   UNL     1       6.608  26.556  52.891  1.00  0.00     0.280 C 
BRANCH  23  24
HETATM   24  O   UNL     1       7.373  26.041  53.975  1.00  0.00    -0.342 OA
BRANCH  24  25
HETATM   25  C   UNL     1       7.574  24.692  54.031  1.00  0.00     0.069 A 
HETATM   26  C   UNL     1       7.296  24.115  55.271  1.00  0.00     0.037 A 
HETATM   27  C   UNL     1       7.454  22.743  55.473  1.00  0.00     0.009 A 
HETATM   28  C   UNL     1       7.912  21.928  54.433  1.00  0.00    -0.062 A 
HETATM   29  C   UNL     1       8.049  20.449  54.636  1.00  0.00     0.048 C 
HETATM   30  C   UNL     1       8.187  22.509  53.189  1.00  0.00     0.009 A 
HETATM   31  C   UNL     1       8.032  23.886  52.991  1.00  0.00     0.037 A 
ENDBRANCH  24  25
ENDBRANCH  23  24
ENDBRANCH  20  23
ENDBRANCH   1  19
TORSDOF 7
ENDMDL
MODEL 8
REMARK VINA RESULT:      -8.8      3.963      8.339
REMARK  7 active torsions:
REMARK  status: ('A' for Active; 'I' for Inactive)
REMARK    1  A    between atoms: C_5  and  O_6 
REMARK    2  A    between atoms: O_6  and  C_7 
REMARK    3  A    between atoms: C_7  and  C_8 
REMARK       I    between atoms: C_8  and  N_9 
REMARK    4  A    between atoms: N_9  and  N_10 
REMARK       I    between atoms: N_10  and  C_11 
REMARK    5  A    between atoms: C_11  and  C_12 
REMARK    6  A    between atoms: C_14  and  C_15 
REMARK    7  A    between atoms: C_22  and  C_23 
ROOT
HETATM    1  N   UNL     1       4.512  27.071  55.625  1.00  0.00    -0.262 N 
HETATM    2  C   UNL     1       5.872  26.803  55.616  1.00  0.00     0.291 C 
HETATM    3  O   UNL     1       6.717  27.500  56.164  1.00  0.00    -0.264 OA
HETATM    4  H   UNL     1       3.877  26.368  55.250  1.00  0.00     0.190 HD
ENDROOT
BRANCH   2   5
HETATM    5  C   UNL     1       6.182  25.613  54.842  1.00  0.00     0.159 A 
HETATM    6  N   UNL     1       6.760  24.481  55.408  1.00  0.00    -0.216 NA
HETATM    7  C   UNL     1       6.912  23.658  54.386  1.00  0.00     0.180 A 
HETATM    8  O   UNL     1       6.402  24.132  53.207  1.00  0.00    -0.293 OA
HETATM    9  C   UNL     1       5.927  25.379  53.506  1.00  0.00     0.094 A 
BRANCH   7  10
HETATM   10  C   UNL     1       7.553  22.345  54.345  1.00  0.00     0.017 A 
HETATM   11  C   UNL     1       7.748  21.630  55.538  1.00  0.00     0.016 A 
HETATM   12  C   UNL     1       8.381  20.383  55.531  1.00  0.00     0.001 A 
HETATM   13  C   UNL     1       8.825  19.834  54.330  1.00  0.00     0.000 A 
HETATM   14  C   UNL     1       8.636  20.529  53.137  1.00  0.00     0.001 A 
HETATM   15  C   UNL     1       8.004  21.775  53.145  1.00  0.00     0.016 A 
ENDBRANCH   7  10
BRANCH   9  16
HETATM   16  C   UNL     1       5.204  26.283  52.524  1.00  0.00     0.046 A 
HETATM   17  C   UNL     1       5.943  26.729  51.281  1.00  0.00     0.012 A 
HETATM   18  C   UNL     1       4.868  25.705  51.164  1.00  0.00     0.012 A 
ENDBRANCH   9  16
ENDBRANCH   2   5
BRANCH   1  19
HETATM   19  N   UNL     1       3.985  28.127  56.364  1.00  0.00    -0.265 N 
HETATM   20  C   UNL     1       3.829  29.413  55.902  1.00  0.00     0.260 C 
HETATM   21  O   UNL     1       3.280  30.243  56.633  1.00  0.00    -0.269 OA
HETATM   22  H   UNL     1       3.715  27.953  57.327  1.00  0.00     0.190 HD
BRANCH  20  23
HETATM   23  C   UNL     1       4.340  29.780  54.510  1.00  0.00     0.280 C 
BRANCH  23  24
HETATM   24  O   UNL     1       3.363  29.331  53.577  1.00  0.00    -0.342 OA
BRANCH  24  25
HETATM   25  C   UNL     1       3.634  29.480  52.247  1.00  0.00     0.069 A 
HETATM   26  C   UNL     1       2.692  28.901  51.395  1.00  0.00     0.037 A 
HETATM   27  C   UNL     1       2.840  28.978  50.009  1.00  0.00     0.009 A 
HETATM   28  C   UNL     1       3.947  29.626  49.455  1.00  0.00    -0.062 A 
HETATM   29  C   UNL     1       4.090  29.742  47.967  1.00  0.00     0.048 C 
HETATM   30  C   UNL     1       4.889  30.209  50.312  1.00  0.00     0.009 A 
HETATM   31  C   UNL     1       4.741  30.127  51.702  1.00  0.00     0.037 A 
ENDBRANCH  24  25
ENDBRANCH  23  24
ENDBRANCH  20  23
ENDBRANCH   1  19
TORSDOF 7
ENDMDL
MODEL 9
REMARK VINA RESULT:      -8.8      2.694      7.434
REMARK  7 active torsions:
REMARK  status: ('A' for Active; 'I' for Inactive)
REMARK    1  A    between atoms: C_5  and  O_6 
REMARK    2  A    between atoms: O_6  and  C_7 
REMARK    3  A    between atoms: C_7  and  C_8 
REMARK       I    between atoms: C_8  and  N_9 
REMARK    4  A    between atoms: N_9  and  N_10 
REMARK       I    between atoms: N_10  and  C_11 
REMARK    5  A    between atoms: C_11  and  C_12 
REMARK    6  A    between atoms: C_14  and  C_15 
REMARK    7  A    between atoms: C_22  and  C_23 
ROOT
HETATM    1  N   UNL     1       5.264  29.311  53.728  1.00  0.00    -0.262 N 
HETATM    2  C   UNL     1       4.425  28.350  53.187  1.00  0.00     0.291 C 
HETATM    3  O   UNL     1       3.212  28.477  53.072  1.00  0.00    -0.264 OA
HETATM    4  H   UNL     1       6.271  29.167  53.666  1.00  0.00     0.190 HD
ENDROOT
BRANCH   2   5
HETATM    5  C   UNL     1       5.153  27.152  52.805  1.00  0.00     0.159 A 
HETATM    6  N   UNL     1       5.508  26.168  53.722  1.00  0.00    -0.216 NA
HETATM    7  C   UNL     1       6.176  25.287  52.999  1.00  0.00     0.180 A 
HETATM    8  O   UNL     1       6.216  25.578  51.661  1.00  0.00    -0.293 OA
HETATM    9  C   UNL     1       5.550  26.768  51.541  1.00  0.00     0.094 A 
BRANCH   7  10
HETATM   10  C   UNL     1       6.877  24.079  53.429  1.00  0.00     0.017 A 
HETATM   11  C   UNL     1       6.806  23.676  54.773  1.00  0.00     0.016 A 
HETATM   12  C   UNL     1       7.487  22.539  55.217  1.00  0.00     0.001 A 
HETATM   13  C   UNL     1       8.247  21.788  54.323  1.00  0.00     0.000 A 
HETATM   14  C   UNL     1       8.326  22.172  52.986  1.00  0.00     0.001 A 
HETATM   15  C   UNL     1       7.645  23.309  52.542  1.00  0.00     0.016 A 
ENDBRANCH   7  10
BRANCH   9  16
HETATM   16  C   UNL     1       5.274  27.470  50.225  1.00  0.00     0.046 A 
HETATM   17  C   UNL     1       4.821  26.636  49.047  1.00  0.00     0.012 A 
HETATM   18  C   UNL     1       3.837  27.510  49.745  1.00  0.00     0.012 A 
ENDBRANCH   9  16
ENDBRANCH   2   5
BRANCH   1  19
HETATM   19  N   UNL     1       4.787  30.566  54.098  1.00  0.00    -0.265 N 
HETATM   20  C   UNL     1       4.412  30.923  55.373  1.00  0.00     0.260 C 
HETATM   21  O   UNL     1       4.074  32.091  55.585  1.00  0.00    -0.269 OA
HETATM   22  H   UNL     1       4.678  31.272  53.377  1.00  0.00     0.190 HD
BRANCH  20  23
HETATM   23  C   UNL     1       4.418  29.872  56.481  1.00  0.00     0.280 C 
BRANCH  23  24
HETATM   24  O   UNL     1       5.731  29.855  57.031  1.00  0.00    -0.342 OA
BRANCH  24  25
HETATM   25  C   UNL     1       6.375  28.654  57.106  1.00  0.00     0.069 A 
HETATM   26  C   UNL     1       7.768  28.745  57.151  1.00  0.00     0.037 A 
HETATM   27  C   UNL     1       8.557  27.596  57.232  1.00  0.00     0.009 A 
HETATM   28  C   UNL     1       7.959  26.333  57.253  1.00  0.00    -0.062 A 
HETATM   29  C   UNL     1       8.802  25.099  57.376  1.00  0.00     0.048 C 
HETATM   30  C   UNL     1       6.562  26.244  57.210  1.00  0.00     0.009 A 
HETATM   31  C   UNL     1       5.773  27.398  57.125  1.00  0.00     0.037 A 
ENDBRANCH  24  25
ENDBRANCH  23  24
ENDBRANCH  20  23
ENDBRANCH   1  19
TORSDOF 7
ENDMDL
MODEL 10
REMARK VINA RESULT:      -8.7      1.677      8.789
REMARK  7 active torsions:
REMARK  status: ('A' for Active; 'I' for Inactive)
REMARK    1  A    between atoms: C_5  and  O_6 
REMARK    2  A    between atoms: O_6  and  C_7 
REMARK    3  A    between atoms: C_7  and  C_8 
REMARK       I    between atoms: C_8  and  N_9 
REMARK    4  A    between atoms: N_9  and  N_10 
REMARK       I    between atoms: N_10  and  C_11 
REMARK    5  A    between atoms: C_11  and  C_12 
REMARK    6  A    between atoms: C_14  and  C_15 
REMARK    7  A    between atoms: C_22  and  C_23 
ROOT
HETATM    1  N   UNL     1       5.999  29.112  54.897  1.00  0.00    -0.262 N 
HETATM    2  C   UNL     1       5.052  28.183  54.495  1.00  0.00     0.291 C 
HETATM    3  O   UNL     1       3.843  28.328  54.626  1.00  0.00    -0.264 OA
HETATM    4  H   UNL     1       6.972  28.960  54.633  1.00  0.00     0.190 HD
ENDROOT
BRANCH   2   5
HETATM    5  C   UNL     1       5.669  26.994  53.931  1.00  0.00     0.159 A 
HETATM    6  N   UNL     1       5.947  25.863  54.691  1.00  0.00    -0.216 NA
HETATM    7  C   UNL     1       6.528  25.041  53.836  1.00  0.00     0.180 A 
HETATM    8  O   UNL     1       6.577  25.515  52.552  1.00  0.00    -0.293 OA
HETATM    9  C   UNL     1       6.017  26.762  52.616  1.00  0.00     0.094 A 
BRANCH   7  10
HETATM   10  C   UNL     1       7.126  23.729  54.075  1.00  0.00     0.017 A 
HETATM   11  C   UNL     1       7.224  23.239  55.387  1.00  0.00     0.016 A 
HETATM   12  C   UNL     1       7.814  21.999  55.648  1.00  0.00     0.001 A 
HETATM   13  C   UNL     1       8.313  21.231  54.598  1.00  0.00     0.000 A 
HETATM   14  C   UNL     1       8.221  21.700  53.289  1.00  0.00     0.001 A 
HETATM   15  C   UNL     1       7.632  22.941  53.030  1.00  0.00     0.016 A 
ENDBRANCH   7  10
BRANCH   9  16
HETATM   16  C   UNL     1       5.788  27.666  51.419  1.00  0.00     0.046 A 
HETATM   17  C   UNL     1       5.185  27.062  50.169  1.00  0.00     0.012 A 
HETATM   18  C   UNL     1       4.353  27.951  51.026  1.00  0.00     0.012 A 
ENDBRANCH   9  16
ENDBRANCH   2   5
BRANCH   1  19
HETATM   19  N   UNL     1       5.628  30.355  55.403  1.00  0.00    -0.265 N 
HETATM   20  C   UNL     1       5.920  30.813  56.667  1.00  0.00     0.260 C 
HETATM   21  O   UNL     1       5.597  31.965  56.969  1.00  0.00    -0.269 OA
HETATM   22  H   UNL     1       5.076  30.970  54.813  1.00  0.00     0.190 HD
BRANCH  20  23
HETATM   23  C   UNL     1       6.628  29.889  57.657  1.00  0.00     0.280 C 
BRANCH  23  24
HETATM   24  O   UNL     1       7.852  30.520  58.014  1.00  0.00    -0.342 OA
BRANCH  24  25
HETATM   25  C   UNL     1       8.009  30.923  59.309  1.00  0.00     0.069 A 
HETATM   26  C   UNL     1       7.054  31.840  59.751  1.00  0.00     0.037 A 
HETATM   27  C   UNL     1       7.090  32.336  61.055  1.00  0.00     0.009 A 
HETATM   28  C   UNL     1       8.099  31.931  61.934  1.00  0.00    -0.062 A 
HETATM   29  C   UNL     1       8.119  32.434  63.346  1.00  0.00     0.048 C 
HETATM   30  C   UNL     1       9.054  31.008  61.489  1.00  0.00     0.009 A 
HETATM   31  C   UNL     1       9.018  30.515  60.178  1.00  0.00     0.037 A 
ENDBRANCH  24  25
ENDBRANCH  23  24
ENDBRANCH  20  23
ENDBRANCH   1  19
TORSDOF 7
ENDMDL
