MODEL 1
REMARK VINA RESULT:     -10.9      0.000      0.000
REMARK  6 active torsions:
REMARK  status: ('A' for Active; 'I' for Inactive)
REMARK    1  A    between atoms: O_2  and  C_3 
REMARK    2  A    between atoms: C_5  and  C_6 
REMARK    3  A    between atoms: C_6  and  C_7 
REMARK    4  A    between atoms: C_7  and  C_8 
REMARK       I    between atoms: C_8  and  N_9 
REMARK    5  A    between atoms: N_12  and  C_13 
REMARK    6  A    between atoms: C_17  and  C_18 
ROOT
HETATM    1  C   UNL     1       9.541  31.542  58.933  1.00  0.00     0.220 C 
HETATM    2  N   UNL     1       9.182  30.235  58.619  1.00  0.00    -0.349 N 
HETATM    3  C   UNL     1       7.845  29.672  58.867  1.00  0.00     0.145 C 
HETATM    4  C   UNL     1       6.974  29.823  57.602  1.00  0.00     0.144 C 
HETATM    5  N   UNL     1       7.641  29.197  56.433  1.00  0.00    -0.363 N 
HETATM    6  C   UNL     1       9.021  29.712  56.207  1.00  0.00     0.144 C 
HETATM    7  C   UNL     1       9.867  29.584  57.495  1.00  0.00     0.145 C 
HETATM    8  O   UNL     1      10.517  32.091  58.422  1.00  0.00    -0.273 OA
ENDROOT
BRANCH   5   9
HETATM    9  C   UNL     1       7.311  27.918  56.082  1.00  0.00     0.122 A 
HETATM   10  N   UNL     1       6.169  27.299  56.519  1.00  0.00    -0.262 N 
HETATM   11  H   UNL     1       5.462  27.678  57.135  1.00  0.00     0.191 HD
HETATM   12  N   UNL     1       6.026  26.032  56.098  1.00  0.00    -0.173 NA
HETATM   13  C   UNL     1       7.137  25.790  55.385  1.00  0.00     0.090 A 
HETATM   14  C   UNL     1       7.968  26.945  55.359  1.00  0.00     0.084 A 
BRANCH  13  15
HETATM   15  C   UNL     1       7.388  24.482  54.771  1.00  0.00    -0.005 A 
HETATM   16  C   UNL     1       7.657  24.383  53.396  1.00  0.00     0.015 A 
HETATM   17  C   UNL     1       7.879  23.141  52.794  1.00  0.00     0.024 A 
HETATM   18  C   UNL     1       7.838  21.984  53.567  1.00  0.00     0.034 A 
HETATM   19 CL   UNL     1       8.109  20.453  52.831  1.00  0.00    -0.084 Cl
HETATM   20  C   UNL     1       7.580  22.059  54.933  1.00  0.00     0.024 A 
HETATM   21  C   UNL     1       7.356  23.303  55.533  1.00  0.00     0.015 A 
ENDBRANCH  13  15
ENDBRANCH   5   9
BRANCH   1  22
HETATM   22  C   UNL     1       8.661  32.265  59.937  1.00  0.00     0.107 C 
BRANCH  22  23
HETATM   23  C   UNL     1       9.052  31.958  61.381  1.00  0.00     0.048 C 
BRANCH  23  24
HETATM   24  C   UNL     1       7.920  32.301  62.322  1.00  0.00    -0.055 A 
HETATM   25  C   UNL     1       6.594  31.994  61.971  1.00  0.00     0.044 A 
HETATM   26  C   UNL     1       5.546  32.258  62.854  1.00  0.00     0.068 A 
HETATM   27  C   UNL     1       5.827  32.836  64.093  1.00  0.00     0.037 A 
HETATM   28  C   UNL     1       7.139  33.145  64.452  1.00  0.00     0.003 A 
HETATM   29  C   UNL     1       8.184  32.875  63.571  1.00  0.00     0.007 A 
BRANCH  26  30
HETATM   30  O   UNL     1       4.220  31.996  62.633  1.00  0.00    -0.356 OA
HETATM   31  C   UNL     1       3.541  32.847  61.718  1.00  0.00     0.210 C 
ENDBRANCH  26  30
ENDBRANCH  23  24
ENDBRANCH  22  23
ENDBRANCH   1  22
TORSDOF 6
ENDMDL
MODEL 2
REMARK VINA RESULT:     -10.5      4.472     10.817
REMARK  6 active torsions:
REMARK  status: ('A' for Active; 'I' for Inactive)
REMARK    1  A    between atoms: O_2  and  C_3 
REMARK    2  A    between atoms: C_5  and  C_6 
REMARK    3  A    between atoms: C_6  and  C_7 
REMARK    4  A    between atoms: C_7  and  C_8 
REMARK       I    between atoms: C_8  and  N_9 
REMARK    5  A    between atoms: N_12  and  C_13 
REMARK    6  A    between atoms: C_17  and  C_18 
ROOT
HETATM    1  C   UNL     1       6.367  27.951  55.616  1.00  0.00     0.220 C 
HETATM    2  N   UNL     1       6.433  28.281  56.967  1.00  0.00    -0.349 N 
HETATM    3  C   UNL     1       7.622  28.060  57.805  1.00  0.00     0.145 C 
HETATM    4  C   UNL     1       8.487  29.338  57.830  1.00  0.00     0.144 C 
HETATM    5  N   UNL     1       7.684  30.501  58.286  1.00  0.00    -0.363 N 
HETATM    6  C   UNL     1       6.443  30.700  57.485  1.00  0.00     0.144 C 
HETATM    7  C   UNL     1       5.608  29.399  57.443  1.00  0.00     0.145 C 
HETATM    8  O   UNL     1       5.524  28.441  54.865  1.00  0.00    -0.273 OA
ENDROOT
BRANCH   5   9
HETATM    9  C   UNL     1       7.726  30.867  59.602  1.00  0.00     0.122 A 
HETATM   10  N   UNL     1       8.591  30.303  60.503  1.00  0.00    -0.262 N 
HETATM   11  H   UNL     1       9.268  29.571  60.328  1.00  0.00     0.191 HD
HETATM   12  N   UNL     1       8.470  30.764  61.757  1.00  0.00    -0.173 NA
HETATM   13  C   UNL     1       7.457  31.643  61.693  1.00  0.00     0.090 A 
HETATM   14  C   UNL     1       6.963  31.728  60.361  1.00  0.00     0.084 A 
BRANCH  13  15
HETATM   15  C   UNL     1       6.979  32.355  62.883  1.00  0.00    -0.005 A 
HETATM   16  C   UNL     1       7.893  32.929  63.781  1.00  0.00     0.015 A 
HETATM   17  C   UNL     1       7.451  33.593  64.930  1.00  0.00     0.024 A 
HETATM   18  C   UNL     1       6.087  33.693  65.185  1.00  0.00     0.034 A 
HETATM   19 CL   UNL     1       5.537  34.508  66.597  1.00  0.00    -0.084 Cl
HETATM   20  C   UNL     1       5.162  33.137  64.304  1.00  0.00     0.024 A 
HETATM   21  C   UNL     1       5.607  32.470  63.157  1.00  0.00     0.015 A 
ENDBRANCH  13  15
ENDBRANCH   5   9
BRANCH   1  22
HETATM   22  C   UNL     1       7.397  26.956  55.110  1.00  0.00     0.107 C 
BRANCH  22  23
HETATM   23  C   UNL     1       6.882  26.135  53.930  1.00  0.00     0.048 C 
BRANCH  23  24
HETATM   24  C   UNL     1       7.371  24.708  54.022  1.00  0.00    -0.055 A 
HETATM   25  C   UNL     1       7.641  24.135  55.277  1.00  0.00     0.044 A 
HETATM   26  C   UNL     1       8.042  22.802  55.378  1.00  0.00     0.068 A 
HETATM   27  C   UNL     1       8.179  22.041  54.216  1.00  0.00     0.037 A 
HETATM   28  C   UNL     1       7.915  22.599  52.965  1.00  0.00     0.003 A 
HETATM   29  C   UNL     1       7.507  23.928  52.867  1.00  0.00     0.007 A 
BRANCH  26  30
HETATM   30  O   UNL     1       8.323  22.130  56.537  1.00  0.00    -0.356 OA
HETATM   31  C   UNL     1       8.324  20.709  56.473  1.00  0.00     0.210 C 
ENDBRANCH  26  30
ENDBRANCH  23  24
ENDBRANCH  22  23
ENDBRANCH   1  22
TORSDOF 6
ENDMDL
MODEL 3
REMARK VINA RESULT:     -10.3      4.605     10.804
REMARK  6 active torsions:
REMARK  status: ('A' for Active; 'I' for Inactive)
REMARK    1  A    between atoms: O_2  and  C_3 
REMARK    2  A    between atoms: C_5  and  C_6 
REMARK    3  A    between atoms: C_6  and  C_7 
REMARK    4  A    between atoms: C_7  and  C_8 
REMARK       I    between atoms: C_8  and  N_9 
REMARK    5  A    between atoms: N_12  and  C_13 
REMARK    6  A    between atoms: C_17  and  C_18 
ROOT
HETATM    1  C   UNL     1       6.413  28.055  55.601  1.00  0.00     0.220 C 
HETATM    2  N   UNL     1       6.493  28.352  56.958  1.00  0.00    -0.349 N 
HETATM    3  C   UNL     1       7.718  28.196  57.759  1.00  0.00     0.145 C 
HETATM    4  C   UNL     1       8.489  29.531  57.797  1.00  0.00     0.144 C 
HETATM    5  N   UNL     1       7.619  30.621  58.307  1.00  0.00    -0.363 N 
HETATM    6  C   UNL     1       6.345  30.751  57.545  1.00  0.00     0.144 C 
HETATM    7  C   UNL     1       5.604  29.395  57.488  1.00  0.00     0.145 C 
HETATM    8  O   UNL     1       5.516  28.502  54.887  1.00  0.00    -0.273 OA
ENDROOT
BRANCH   5   9
HETATM    9  C   UNL     1       7.672  30.954  59.632  1.00  0.00     0.122 A 
HETATM   10  N   UNL     1       8.526  30.348  60.516  1.00  0.00    -0.262 N 
HETATM   11  H   UNL     1       9.185  29.605  60.322  1.00  0.00     0.191 HD
HETATM   12  N   UNL     1       8.418  30.781  61.781  1.00  0.00    -0.173 NA
HETATM   13  C   UNL     1       7.426  31.684  61.741  1.00  0.00     0.090 A 
HETATM   14  C   UNL     1       6.931  31.814  60.413  1.00  0.00     0.084 A 
BRANCH  13  15
HETATM   15  C   UNL     1       6.966  32.378  62.949  1.00  0.00    -0.005 A 
HETATM   16  C   UNL     1       5.593  32.494  63.221  1.00  0.00     0.015 A 
HETATM   17  C   UNL     1       5.141  33.171  64.358  1.00  0.00     0.024 A 
HETATM   18  C   UNL     1       6.061  33.733  65.237  1.00  0.00     0.034 A 
HETATM   19 CL   UNL     1       5.509  34.567  66.637  1.00  0.00    -0.084 Cl
HETATM   20  C   UNL     1       7.428  33.623  64.991  1.00  0.00     0.024 A 
HETATM   21  C   UNL     1       7.878  32.949  63.850  1.00  0.00     0.015 A 
ENDBRANCH  13  15
ENDBRANCH   5   9
BRANCH   1  22
HETATM   22  C   UNL     1       7.495  27.150  55.040  1.00  0.00     0.107 C 
BRANCH  22  23
HETATM   23  C   UNL     1       6.922  25.958  54.278  1.00  0.00     0.048 C 
BRANCH  23  24
HETATM   24  C   UNL     1       7.547  24.669  54.758  1.00  0.00    -0.055 A 
HETATM   25  C   UNL     1       7.980  23.706  53.829  1.00  0.00     0.044 A 
HETATM   26  C   UNL     1       8.607  22.536  54.259  1.00  0.00     0.068 A 
HETATM   27  C   UNL     1       8.796  22.326  55.626  1.00  0.00     0.037 A 
HETATM   28  C   UNL     1       8.370  23.273  56.557  1.00  0.00     0.003 A 
HETATM   29  C   UNL     1       7.751  24.445  56.125  1.00  0.00     0.007 A 
BRANCH  26  30
HETATM   30  O   UNL     1       9.081  21.534  53.456  1.00  0.00    -0.356 OA
HETATM   31  C   UNL     1       8.150  20.534  53.059  1.00  0.00     0.210 C 
ENDBRANCH  26  30
ENDBRANCH  23  24
ENDBRANCH  22  23
ENDBRANCH   1  22
TORSDOF 6
ENDMDL
MODEL 4
REMARK VINA RESULT:     -10.2      4.472     10.789
REMARK  6 active torsions:
REMARK  status: ('A' for Active; 'I' for Inactive)
REMARK    1  A    between atoms: O_2  and  C_3 
REMARK    2  A    between atoms: C_5  and  C_6 
REMARK    3  A    between atoms: C_6  and  C_7 
REMARK    4  A    between atoms: C_7  and  C_8 
REMARK       I    between atoms: C_8  and  N_9 
REMARK    5  A    between atoms: N_12  and  C_13 
REMARK    6  A    between atoms: C_17  and  C_18 
ROOT
HETATM    1  C   UNL     1       6.490  26.432  55.563  1.00  0.00     0.220 C 
HETATM    2  N   UNL     1       6.708  27.182  56.715  1.00  0.00    -0.349 N 
HETATM    3  C   UNL     1       8.009  27.276  57.396  1.00  0.00     0.145 C 
HETATM    4  C   UNL     1       8.775  28.516  56.888  1.00  0.00     0.144 C 
HETATM    5  N   UNL     1       7.957  29.742  57.066  1.00  0.00    -0.363 N 
HETATM    6  C   UNL     1       6.610  29.638  56.435  1.00  0.00     0.144 C 
HETATM    7  C   UNL     1       5.874  28.372  56.930  1.00  0.00     0.145 C 
HETATM    8  O   UNL     1       5.523  26.630  54.829  1.00  0.00    -0.273 OA
ENDROOT
BRANCH   5   9
HETATM    9  C   UNL     1       8.144  30.515  58.177  1.00  0.00     0.122 A 
HETATM   10  N   UNL     1       9.368  31.014  58.537  1.00  0.00    -0.262 N 
HETATM   11  H   UNL     1      10.252  30.874  58.064  1.00  0.00     0.191 HD
HETATM   12  N   UNL     1       9.368  31.726  59.675  1.00  0.00    -0.173 NA
HETATM   13  C   UNL     1       8.099  31.665  60.106  1.00  0.00     0.090 A 
HETATM   14  C   UNL     1       7.305  30.910  59.198  1.00  0.00     0.084 A 
BRANCH  13  15
HETATM   15  C   UNL     1       7.680  32.299  61.361  1.00  0.00    -0.005 A 
HETATM   16  C   UNL     1       6.544  33.123  61.394  1.00  0.00     0.015 A 
HETATM   17  C   UNL     1       6.145  33.750  62.579  1.00  0.00     0.024 A 
HETATM   18  C   UNL     1       6.879  33.551  63.744  1.00  0.00     0.034 A 
HETATM   19 CL   UNL     1       6.393  34.321  65.204  1.00  0.00    -0.084 Cl
HETATM   20  C   UNL     1       8.005  32.732  63.736  1.00  0.00     0.024 A 
HETATM   21  C   UNL     1       8.404  32.108  62.548  1.00  0.00     0.015 A 
ENDBRANCH  13  15
ENDBRANCH   5   9
BRANCH   1  22
HETATM   22  C   UNL     1       7.514  25.355  55.252  1.00  0.00     0.107 C 
BRANCH  22  23
HETATM   23  C   UNL     1       7.205  24.616  53.952  1.00  0.00     0.048 C 
BRANCH  23  24
HETATM   24  C   UNL     1       7.646  23.173  54.043  1.00  0.00    -0.055 A 
HETATM   25  C   UNL     1       7.923  22.598  55.295  1.00  0.00     0.044 A 
HETATM   26  C   UNL     1       8.280  21.252  55.396  1.00  0.00     0.068 A 
HETATM   27  C   UNL     1       8.365  20.481  54.237  1.00  0.00     0.037 A 
HETATM   28  C   UNL     1       8.093  21.040  52.988  1.00  0.00     0.003 A 
HETATM   29  C   UNL     1       7.730  22.382  52.891  1.00  0.00     0.007 A 
BRANCH  26  30
HETATM   30  O   UNL     1       8.561  20.578  56.554  1.00  0.00    -0.356 OA
HETATM   31  C   UNL     1       8.361  21.282  57.773  1.00  0.00     0.210 C 
ENDBRANCH  26  30
ENDBRANCH  23  24
ENDBRANCH  22  23
ENDBRANCH   1  22
TORSDOF 6
ENDMDL
MODEL 5
REMARK VINA RESULT:     -10.0      1.597      2.124
REMARK  6 active torsions:
REMARK  status: ('A' for Active; 'I' for Inactive)
REMARK    1  A    between atoms: O_2  and  C_3 
REMARK    2  A    between atoms: C_5  and  C_6 
REMARK    3  A    between atoms: C_6  and  C_7 
REMARK    4  A    between atoms: C_7  and  C_8 
REMARK       I    between atoms: C_8  and  N_9 
REMARK    5  A    between atoms: N_12  and  C_13 
REMARK    6  A    between atoms: C_17  and  C_18 
ROOT
HETATM    1  C   UNL     1       6.428  31.937  58.814  1.00  0.00     0.220 C 
HETATM    2  N   UNL     1       6.793  31.080  57.780  1.00  0.00    -0.349 N 
HETATM    3  C   UNL     1       7.999  30.238  57.802  1.00  0.00     0.145 C 
HETATM    4  C   UNL     1       7.647  28.837  58.343  1.00  0.00     0.144 C 
HETATM    5  N   UNL     1       6.552  28.231  57.545  1.00  0.00    -0.363 N 
HETATM    6  C   UNL     1       5.345  29.100  57.460  1.00  0.00     0.144 C 
HETATM    7  C   UNL     1       5.724  30.510  56.950  1.00  0.00     0.145 C 
HETATM    8  O   UNL     1       5.279  32.360  58.937  1.00  0.00    -0.273 OA
ENDROOT
BRANCH   5   9
HETATM    9  C   UNL     1       6.863  27.375  56.525  1.00  0.00     0.122 A 
HETATM   10  N   UNL     1       6.989  27.787  55.224  1.00  0.00    -0.262 N 
HETATM   11  H   UNL     1       6.863  28.723  54.860  1.00  0.00     0.191 HD
HETATM   12  N   UNL     1       7.268  26.804  54.353  1.00  0.00    -0.173 NA
HETATM   13  C   UNL     1       7.290  25.691  55.102  1.00  0.00     0.090 A 
HETATM   14  C   UNL     1       7.034  26.009  56.466  1.00  0.00     0.084 A 
BRANCH  13  15
HETATM   15  C   UNL     1       7.531  24.370  54.512  1.00  0.00    -0.005 A 
HETATM   16  C   UNL     1       7.592  23.229  55.329  1.00  0.00     0.015 A 
HETATM   17  C   UNL     1       7.841  21.966  54.782  1.00  0.00     0.024 A 
HETATM   18  C   UNL     1       8.025  21.834  53.409  1.00  0.00     0.034 A 
HETATM   19 CL   UNL     1       8.332  20.283  52.732  1.00  0.00    -0.084 Cl
HETATM   20  C   UNL     1       7.961  22.951  52.580  1.00  0.00     0.024 A 
HETATM   21  C   UNL     1       7.715  24.214  53.130  1.00  0.00     0.015 A 
ENDBRANCH  13  15
ENDBRANCH   5   9
BRANCH   1  22
HETATM   22  C   UNL     1       7.522  32.321  59.794  1.00  0.00     0.107 C 
BRANCH  22  23
HETATM   23  C   UNL     1       7.568  31.397  61.009  1.00  0.00     0.048 C 
BRANCH  23  24
HETATM   24  C   UNL     1       7.137  32.134  62.255  1.00  0.00    -0.055 A 
HETATM   25  C   UNL     1       5.774  32.391  62.486  1.00  0.00     0.044 A 
HETATM   26  C   UNL     1       5.359  33.025  63.659  1.00  0.00     0.068 A 
HETATM   27  C   UNL     1       6.314  33.409  64.601  1.00  0.00     0.037 A 
HETATM   28  C   UNL     1       7.669  33.161  64.382  1.00  0.00     0.003 A 
HETATM   29  C   UNL     1       8.080  32.521  63.214  1.00  0.00     0.007 A 
BRANCH  26  30
HETATM   30  O   UNL     1       4.067  33.318  64.002  1.00  0.00    -0.356 OA
HETATM   31  C   UNL     1       3.215  33.782  62.962  1.00  0.00     0.210 C 
ENDBRANCH  26  30
ENDBRANCH  23  24
ENDBRANCH  22  23
ENDBRANCH   1  22
TORSDOF 6
ENDMDL
MODEL 6
REMARK VINA RESULT:      -9.9      4.675     10.936
REMARK  6 active torsions:
REMARK  status: ('A' for Active; 'I' for Inactive)
REMARK    1  A    between atoms: O_2  and  C_3 
REMARK    2  A    between atoms: C_5  and  C_6 
REMARK    3  A    between atoms: C_6  and  C_7 
REMARK    4  A    between atoms: C_7  and  C_8 
REMARK       I    between atoms: C_8  and  N_9 
REMARK    5  A    between atoms: N_12  and  C_13 
REMARK    6  A    between atoms: C_17  and  C_18 
ROOT
HETATM    1  C   UNL     1       5.489  29.065  55.544  1.00  0.00     0.220 C 
HETATM    2  N   UNL     1       5.601  29.253  56.919  1.00  0.00    -0.349 N 
HETATM    3  C   UNL     1       6.733  28.765  57.721  1.00  0.00     0.145 C 
HETATM    4  C   UNL     1       7.795  29.877  57.855  1.00  0.00     0.144 C 
HETATM    5  N   UNL     1       7.191  31.108  58.424  1.00  0.00    -0.363 N 
HETATM    6  C   UNL     1       6.003  31.580  57.657  1.00  0.00     0.144 C 
HETATM    7  C   UNL     1       4.967  30.442  57.504  1.00  0.00     0.145 C 
HETATM    8  O   UNL     1       4.741  29.752  54.850  1.00  0.00    -0.273 OA
ENDROOT
BRANCH   5   9
HETATM    9  C   UNL     1       7.285  31.339  59.767  1.00  0.00     0.122 A 
HETATM   10  N   UNL     1       8.089  30.598  60.593  1.00  0.00    -0.262 N 
HETATM   11  H   UNL     1       8.677  29.815  60.338  1.00  0.00     0.191 HD
HETATM   12  N   UNL     1       8.032  30.948  61.888  1.00  0.00    -0.173 NA
HETATM   13  C   UNL     1       7.124  31.936  61.927  1.00  0.00     0.090 A 
HETATM   14  C   UNL     1       6.631  32.204  60.619  1.00  0.00     0.084 A 
BRANCH  13  15
HETATM   15  C   UNL     1       6.740  32.579  63.187  1.00  0.00    -0.005 A 
HETATM   16  C   UNL     1       5.384  32.725  63.524  1.00  0.00     0.015 A 
HETATM   17  C   UNL     1       5.003  33.354  64.713  1.00  0.00     0.024 A 
HETATM   18  C   UNL     1       5.978  33.839  65.579  1.00  0.00     0.034 A 
HETATM   19 CL   UNL     1       5.514  34.615  67.043  1.00  0.00    -0.084 Cl
HETATM   20  C   UNL     1       7.328  33.699  65.269  1.00  0.00     0.024 A 
HETATM   21  C   UNL     1       7.707  33.072  64.076  1.00  0.00     0.015 A 
ENDBRANCH  13  15
ENDBRANCH   5   9
BRANCH   1  22
HETATM   22  C   UNL     1       6.345  27.966  54.938  1.00  0.00     0.107 C 
BRANCH  22  23
HETATM   23  C   UNL     1       5.516  26.767  54.483  1.00  0.00     0.048 C 
BRANCH  23  24
HETATM   24  C   UNL     1       6.408  25.698  53.895  1.00  0.00    -0.055 A 
HETATM   25  C   UNL     1       6.580  24.475  54.567  1.00  0.00     0.044 A 
HETATM   26  C   UNL     1       7.359  23.460  54.008  1.00  0.00     0.068 A 
HETATM   27  C   UNL     1       7.973  23.674  52.773  1.00  0.00     0.037 A 
HETATM   28  C   UNL     1       7.810  24.883  52.097  1.00  0.00     0.003 A 
HETATM   29  C   UNL     1       7.026  25.892  52.654  1.00  0.00     0.007 A 
BRANCH  26  30
HETATM   30  O   UNL     1       7.592  22.229  54.557  1.00  0.00    -0.356 OA
HETATM   31  C   UNL     1       8.951  21.852  54.740  1.00  0.00     0.210 C 
ENDBRANCH  26  30
ENDBRANCH  23  24
ENDBRANCH  22  23
ENDBRANCH   1  22
TORSDOF 6
ENDMDL
MODEL 7
REMARK VINA RESULT:      -9.9      4.425     10.120
REMARK  6 active torsions:
REMARK  status: ('A' for Active; 'I' for Inactive)
REMARK    1  A    between atoms: O_2  and  C_3 
REMARK    2  A    between atoms: C_5  and  C_6 
REMARK    3  A    between atoms: C_6  and  C_7 
REMARK    4  A    between atoms: C_7  and  C_8 
REMARK       I    between atoms: C_8  and  N_9 
REMARK    5  A    between atoms: N_12  and  C_13 
REMARK    6  A    between atoms: C_17  and  C_18 
ROOT
HETATM    1  C   UNL     1       5.408  25.636  52.473  1.00  0.00     0.220 C 
HETATM    2  N   UNL     1       5.238  26.492  53.557  1.00  0.00    -0.349 N 
HETATM    3  C   UNL     1       5.694  26.183  54.921  1.00  0.00     0.145 C 
HETATM    4  C   UNL     1       7.101  26.775  55.147  1.00  0.00     0.144 C 
HETATM    5  N   UNL     1       7.104  28.233  54.869  1.00  0.00    -0.363 N 
HETATM    6  C   UNL     1       6.585  28.566  53.512  1.00  0.00     0.144 C 
HETATM    7  C   UNL     1       5.190  27.936  53.293  1.00  0.00     0.145 C 
HETATM    8  O   UNL     1       5.340  26.033  51.310  1.00  0.00    -0.273 OA
ENDROOT
BRANCH   5   9
HETATM    9  C   UNL     1       6.950  29.112  55.904  1.00  0.00     0.122 A 
HETATM   10  N   UNL     1       6.135  30.210  55.831  1.00  0.00    -0.262 N 
HETATM   11  H   UNL     1       5.578  30.511  55.041  1.00  0.00     0.191 HD
HETATM   12  N   UNL     1       6.132  30.977  56.933  1.00  0.00    -0.173 NA
HETATM   13  C   UNL     1       7.010  30.383  57.755  1.00  0.00     0.090 A 
HETATM   14  C   UNL     1       7.547  29.216  57.142  1.00  0.00     0.084 A 
BRANCH  13  15
HETATM   15  C   UNL     1       7.328  30.938  59.075  1.00  0.00    -0.005 A 
HETATM   16  C   UNL     1       8.369  30.392  59.843  1.00  0.00     0.015 A 
HETATM   17  C   UNL     1       8.669  30.899  61.111  1.00  0.00     0.024 A 
HETATM   18  C   UNL     1       7.932  31.964  61.619  1.00  0.00     0.034 A 
HETATM   19 CL   UNL     1       8.297  32.591  63.179  1.00  0.00    -0.084 Cl
HETATM   20  C   UNL     1       6.900  32.526  60.872  1.00  0.00     0.024 A 
HETATM   21  C   UNL     1       6.599  32.015  59.604  1.00  0.00     0.015 A 
ENDBRANCH  13  15
ENDBRANCH   5   9
BRANCH   1  22
HETATM   22  C   UNL     1       5.689  24.179  52.796  1.00  0.00     0.107 C 
BRANCH  22  23
HETATM   23  C   UNL     1       7.131  23.781  52.491  1.00  0.00     0.048 C 
BRANCH  23  24
HETATM   24  C   UNL     1       7.651  22.823  53.538  1.00  0.00    -0.055 A 
HETATM   25  C   UNL     1       7.803  23.248  54.869  1.00  0.00     0.044 A 
HETATM   26  C   UNL     1       8.233  22.358  55.855  1.00  0.00     0.068 A 
HETATM   27  C   UNL     1       8.517  21.037  55.504  1.00  0.00     0.037 A 
HETATM   28  C   UNL     1       8.371  20.604  54.186  1.00  0.00     0.003 A 
HETATM   29  C   UNL     1       7.934  21.493  53.205  1.00  0.00     0.007 A 
BRANCH  26  30
HETATM   30  O   UNL     1       8.408  22.647  57.181  1.00  0.00    -0.356 OA
HETATM   31  C   UNL     1       8.804  23.975  57.502  1.00  0.00     0.210 C 
ENDBRANCH  26  30
ENDBRANCH  23  24
ENDBRANCH  22  23
ENDBRANCH   1  22
TORSDOF 6
ENDMDL
MODEL 8
REMARK VINA RESULT:      -9.7      2.064      3.802
REMARK  6 active torsions:
REMARK  status: ('A' for Active; 'I' for Inactive)
REMARK    1  A    between atoms: O_2  and  C_3 
REMARK    2  A    between atoms: C_5  and  C_6 
REMARK    3  A    between atoms: C_6  and  C_7 
REMARK    4  A    between atoms: C_7  and  C_8 
REMARK       I    between atoms: C_8  and  N_9 
REMARK    5  A    between atoms: N_12  and  C_13 
REMARK    6  A    between atoms: C_17  and  C_18 
ROOT
HETATM    1  C   UNL     1       4.406  32.040  57.437  1.00  0.00     0.220 C 
HETATM    2  N   UNL     1       4.913  31.099  56.546  1.00  0.00    -0.349 N 
HETATM    3  C   UNL     1       6.246  30.490  56.672  1.00  0.00     0.145 C 
HETATM    4  C   UNL     1       6.140  29.158  57.443  1.00  0.00     0.144 C 
HETATM    5  N   UNL     1       5.167  28.251  56.785  1.00  0.00    -0.363 N 
HETATM    6  C   UNL     1       3.828  28.877  56.594  1.00  0.00     0.144 C 
HETATM    7  C   UNL     1       3.959  30.226  55.850  1.00  0.00     0.145 C 
HETATM    8  O   UNL     1       3.201  32.277  57.521  1.00  0.00    -0.273 OA
ENDROOT
BRANCH   5   9
HETATM    9  C   UNL     1       5.621  27.305  55.910  1.00  0.00     0.122 A 
HETATM   10  N   UNL     1       5.453  27.406  54.554  1.00  0.00    -0.262 N 
HETATM   11  H   UNL     1       4.985  28.146  54.046  1.00  0.00     0.191 HD
HETATM   12  N   UNL     1       5.936  26.368  53.853  1.00  0.00    -0.173 NA
HETATM   13  C   UNL     1       6.410  25.528  54.786  1.00  0.00     0.090 A 
HETATM   14  C   UNL     1       6.224  26.078  56.085  1.00  0.00     0.084 A 
BRANCH  13  15
HETATM   15  C   UNL     1       7.002  24.234  54.428  1.00  0.00    -0.005 A 
HETATM   16  C   UNL     1       7.341  23.954  53.094  1.00  0.00     0.015 A 
HETATM   17  C   UNL     1       7.887  22.718  52.735  1.00  0.00     0.024 A 
HETATM   18  C   UNL     1       8.105  21.752  53.713  1.00  0.00     0.034 A 
HETATM   19 CL   UNL     1       8.775  20.229  53.277  1.00  0.00    -0.084 Cl
HETATM   20  C   UNL     1       7.783  22.010  55.043  1.00  0.00     0.024 A 
HETATM   21  C   UNL     1       7.233  23.248  55.398  1.00  0.00     0.015 A 
ENDBRANCH  13  15
ENDBRANCH   5   9
BRANCH   1  22
HETATM   22  C   UNL     1       5.417  32.762  58.311  1.00  0.00     0.107 C 
BRANCH  22  23
HETATM   23  C   UNL     1       5.475  32.193  59.726  1.00  0.00     0.048 C 
BRANCH  23  24
HETATM   24  C   UNL     1       6.907  32.076  60.194  1.00  0.00    -0.055 A 
HETATM   25  C   UNL     1       7.958  32.084  59.259  1.00  0.00     0.044 A 
HETATM   26  C   UNL     1       9.287  32.031  59.682  1.00  0.00     0.068 A 
HETATM   27  C   UNL     1       9.565  31.962  61.048  1.00  0.00     0.037 A 
HETATM   28  C   UNL     1       8.532  31.953  61.985  1.00  0.00     0.003 A 
HETATM   29  C   UNL     1       7.206  32.014  61.560  1.00  0.00     0.007 A 
BRANCH  26  30
HETATM   30  O   UNL     1      10.391  32.043  58.873  1.00  0.00    -0.356 OA
HETATM   31  C   UNL     1      10.443  31.066  57.841  1.00  0.00     0.210 C 
ENDBRANCH  26  30
ENDBRANCH  23  24
ENDBRANCH  22  23
ENDBRANCH   1  22
TORSDOF 6
ENDMDL
MODEL 9
REMARK VINA RESULT:      -9.4      2.117      3.352
REMARK  6 active torsions:
REMARK  status: ('A' for Active; 'I' for Inactive)
REMARK    1  A    between atoms: O_2  and  C_3 
REMARK    2  A    between atoms: C_5  and  C_6 
REMARK    3  A    between atoms: C_6  and  C_7 
REMARK    4  A    between atoms: C_7  and  C_8 
REMARK       I    between atoms: C_8  and  N_9 
REMARK    5  A    between atoms: N_12  and  C_13 
REMARK    6  A    between atoms: C_17  and  C_18 
ROOT
HETATM    1  C   UNL     1       4.490  32.116  57.605  1.00  0.00     0.220 C 
HETATM    2  N   UNL     1       5.125  31.235  56.734  1.00  0.00    -0.349 N 
HETATM    3  C   UNL     1       6.481  30.706  56.950  1.00  0.00     0.145 C 
HETATM    4  C   UNL     1       6.401  29.348  57.678  1.00  0.00     0.144 C 
HETATM    5  N   UNL     1       5.542  28.402  56.923  1.00  0.00    -0.363 N 
HETATM    6  C   UNL     1       4.184  28.949  56.642  1.00  0.00     0.144 C 
HETATM    7  C   UNL     1       4.286  30.325  55.944  1.00  0.00     0.145 C 
HETATM    8  O   UNL     1       3.270  32.274  57.599  1.00  0.00    -0.273 OA
ENDROOT
BRANCH   5   9
HETATM    9  C   UNL     1       6.123  27.512  56.063  1.00  0.00     0.122 A 
HETATM   10  N   UNL     1       6.650  27.883  54.854  1.00  0.00    -0.262 N 
HETATM   11  H   UNL     1       6.668  28.811  54.451  1.00  0.00     0.191 HD
HETATM   12  N   UNL     1       7.151  26.871  54.130  1.00  0.00    -0.173 NA
HETATM   13  C   UNL     1       6.912  25.779  54.873  1.00  0.00     0.090 A 
HETATM   14  C   UNL     1       6.264  26.141  56.087  1.00  0.00     0.084 A 
BRANCH  13  15
HETATM   15  C   UNL     1       7.282  24.437  54.411  1.00  0.00    -0.005 A 
HETATM   16  C   UNL     1       7.329  23.363  55.316  1.00  0.00     0.015 A 
HETATM   17  C   UNL     1       7.699  22.083  54.893  1.00  0.00     0.024 A 
HETATM   18  C   UNL     1       8.020  21.865  53.557  1.00  0.00     0.034 A 
HETATM   19 CL   UNL     1       8.478  20.292  53.031  1.00  0.00    -0.084 Cl
HETATM   20  C   UNL     1       7.973  22.913  52.641  1.00  0.00     0.024 A 
HETATM   21  C   UNL     1       7.605  24.194  53.067  1.00  0.00     0.015 A 
ENDBRANCH  13  15
ENDBRANCH   5   9
BRANCH   1  22
HETATM   22  C   UNL     1       5.382  32.873  58.573  1.00  0.00     0.107 C 
BRANCH  22  23
HETATM   23  C   UNL     1       5.196  32.414  60.017  1.00  0.00     0.048 C 
BRANCH  23  24
HETATM   24  C   UNL     1       6.527  32.352  60.731  1.00  0.00    -0.055 A 
HETATM   25  C   UNL     1       6.610  32.670  62.098  1.00  0.00     0.044 A 
HETATM   26  C   UNL     1       7.823  32.565  62.780  1.00  0.00     0.068 A 
HETATM   27  C   UNL     1       8.960  32.146  62.087  1.00  0.00     0.037 A 
HETATM   28  C   UNL     1       8.891  31.829  60.731  1.00  0.00     0.003 A 
HETATM   29  C   UNL     1       7.676  31.927  60.054  1.00  0.00     0.007 A 
BRANCH  26  30
HETATM   30  O   UNL     1       8.028  32.834  64.106  1.00  0.00    -0.356 OA
HETATM   31  C   UNL     1       6.932  33.383  64.827  1.00  0.00     0.210 C 
ENDBRANCH  26  30
ENDBRANCH  23  24
ENDBRANCH  22  23
ENDBRANCH   1  22
TORSDOF 6
ENDMDL
MODEL 10
REMARK VINA RESULT:      -9.0      2.293      3.524
REMARK  6 active torsions:
REMARK  status: ('A' for Active; 'I' for Inactive)
REMARK    1  A    between atoms: O_2  and  C_3 
REMARK    2  A    between atoms: C_5  and  C_6 
REMARK    3  A    between atoms: C_6  and  C_7 
REMARK    4  A    between atoms: C_7  and  C_8 
REMARK       I    between atoms: C_8  and  N_9 
REMARK    5  A    between atoms: N_12  and  C_13 
REMARK    6  A    between atoms: C_17  and  C_18 
ROOT
HETATM    1  C   UNL     1       4.781  32.199  57.030  1.00  0.00     0.220 C 
HETATM    2  N   UNL     1       5.279  31.152  56.260  1.00  0.00    -0.349 N 
HETATM    3  C   UNL     1       6.303  30.206  56.731  1.00  0.00     0.145 C 
HETATM    4  C   UNL     1       5.623  28.956  57.327  1.00  0.00     0.144 C 
HETATM    5  N   UNL     1       4.702  28.342  56.337  1.00  0.00    -0.363 N 
HETATM    6  C   UNL     1       3.698  29.305  55.803  1.00  0.00     0.144 C 
HETATM    7  C   UNL     1       4.397  30.565  55.243  1.00  0.00     0.145 C 
HETATM    8  O   UNL     1       3.714  32.752  56.766  1.00  0.00    -0.273 OA
ENDROOT
BRANCH   5   9
HETATM    9  C   UNL     1       5.146  27.304  55.566  1.00  0.00     0.122 A 
HETATM   10  N   UNL     1       4.765  27.133  54.261  1.00  0.00    -0.262 N 
HETATM   11  H   UNL     1       4.130  27.711  53.726  1.00  0.00     0.191 HD
HETATM   12  N   UNL     1       5.275  26.041  53.670  1.00  0.00    -0.173 NA
HETATM   13  C   UNL     1       5.992  25.444  54.634  1.00  0.00     0.090 A 
HETATM   14  C   UNL     1       5.930  26.203  55.837  1.00  0.00     0.084 A 
BRANCH  13  15
HETATM   15  C   UNL     1       6.695  24.178  54.400  1.00  0.00    -0.005 A 
HETATM   16  C   UNL     1       7.055  23.356  55.481  1.00  0.00     0.015 A 
HETATM   17  C   UNL     1       7.743  22.156  55.273  1.00  0.00     0.024 A 
HETATM   18  C   UNL     1       8.070  21.765  53.979  1.00  0.00     0.034 A 
HETATM   19 CL   UNL     1       8.916  20.290  53.718  1.00  0.00    -0.084 Cl
HETATM   20  C   UNL     1       7.716  22.561  52.892  1.00  0.00     0.024 A 
HETATM   21  C   UNL     1       7.031  23.763  53.102  1.00  0.00     0.015 A 
ENDBRANCH  13  15
ENDBRANCH   5   9
BRANCH   1  22
HETATM   22  C   UNL     1       5.621  32.625  58.221  1.00  0.00     0.107 C 
BRANCH  22  23
HETATM   23  C   UNL     1       4.920  32.363  59.552  1.00  0.00     0.048 C 
BRANCH  23  24
HETATM   24  C   UNL     1       5.896  32.484  60.699  1.00  0.00    -0.055 A 
HETATM   25  C   UNL     1       7.176  31.911  60.600  1.00  0.00     0.044 A 
HETATM   26  C   UNL     1       8.104  32.062  61.631  1.00  0.00     0.068 A 
HETATM   27  C   UNL     1       7.746  32.783  62.771  1.00  0.00     0.037 A 
HETATM   28  C   UNL     1       6.479  33.355  62.881  1.00  0.00     0.003 A 
HETATM   29  C   UNL     1       5.556  33.210  61.847  1.00  0.00     0.007 A 
BRANCH  26  30
HETATM   30  O   UNL     1       9.379  31.563  61.647  1.00  0.00    -0.356 OA
HETATM   31  C   UNL     1       9.546  30.240  62.141  1.00  0.00     0.210 C 
ENDBRANCH  26  30
ENDBRANCH  23  24
ENDBRANCH  22  23
ENDBRANCH   1  22
TORSDOF 6
ENDMDL
