MODEL 1
REMARK VINA RESULT:     -10.0      0.000      0.000
REMARK  9 active torsions:
REMARK  status: ('A' for Active; 'I' for Inactive)
REMARK    1  A    between atoms: C_7  and  O_8 
REMARK    2  A    between atoms: O_8  and  C_9 
REMARK    3  A    between atoms: C_9  and  C_10 
REMARK    4  A    between atoms: C_10  and  O_11 
REMARK    5  A    between atoms: C_10  and  C_12 
REMARK    6  A    between atoms: C_12  and  N_13 
REMARK    7  A    between atoms: N_18  and  C_19 
REMARK    8  A    between atoms: C_19  and  C_20 
REMARK    9  A    between atoms: C_20  and  N_21 
ROOT
HETATM    1  N   UNL     1       6.904  29.365  56.857  1.00  0.00    -0.179 N 
HETATM    2  C   UNL     1       6.377  30.119  57.888  1.00  0.00     0.681 A 
HETATM    3  N   UNL     1       5.077  30.253  58.148  1.00  0.00    -0.234 N 
HETATM    4  H   UNL     1       4.680  30.866  58.836  1.00  0.00     0.174 HD
HETATM    5  H   UNL     1       4.416  29.836  57.480  1.00  0.00     0.174 HD
HETATM    6  N   UNL     1       7.349  30.767  58.653  1.00  0.00    -0.180 N 
HETATM    7  C   UNL     1       8.580  30.463  57.997  1.00  0.00     0.079 A 
HETATM    8  C   UNL     1       8.313  29.609  56.916  1.00  0.00     0.079 A 
HETATM    9  C   UNL     1       9.857  30.898  58.283  1.00  0.00     0.032 A 
HETATM   10  C   UNL     1      10.884  30.455  57.443  1.00  0.00     0.002 A 
HETATM   11  C   UNL     1      10.617  29.598  56.358  1.00  0.00     0.002 A 
HETATM   12  C   UNL     1       9.316  29.164  56.083  1.00  0.00     0.032 A 
ENDROOT
BRANCH   1  13
HETATM   13  C   UNL     1       6.272  28.493  55.832  1.00  0.00     0.181 C 
BRANCH  13  14
HETATM   14  C   UNL     1       5.617  27.204  56.346  1.00  0.00     0.161 C 
BRANCH  14  15
HETATM   15  C   UNL     1       5.699  26.073  55.307  1.00  0.00     0.209 C 
BRANCH  15  16
HETATM   16  O   UNL     1       7.079  25.695  55.249  1.00  0.00    -0.349 OA
BRANCH  16  17
HETATM   17  C   UNL     1       7.363  24.430  54.815  1.00  0.00     0.069 A 
HETATM   18  C   UNL     1       7.677  24.338  53.459  1.00  0.00     0.038 A 
HETATM   19  C   UNL     1       7.986  23.103  52.886  1.00  0.00     0.027 A 
HETATM   20  C   UNL     1       7.975  21.949  53.668  1.00  0.00     0.040 A 
HETATM   21  C   UNL     1       7.656  22.018  55.033  1.00  0.00    -0.038 A 
HETATM   22 CL   UNL     1       8.358  20.451  52.901  1.00  0.00    -0.084 Cl
HETATM   23  C   UNL     1       7.615  20.787  55.896  1.00  0.00     0.050 C 
HETATM   24  C   UNL     1       7.345  23.272  55.596  1.00  0.00     0.045 A 
ENDBRANCH  16  17
ENDBRANCH  15  16
ENDBRANCH  14  15
BRANCH  14  25
HETATM   25  O   UNL     1       4.229  27.458  56.650  1.00  0.00    -0.392 OA
HETATM   26  H   UNL     1       3.754  26.630  56.397  1.00  0.00     0.210 HD
ENDBRANCH  14  25
ENDBRANCH  13  14
ENDBRANCH   1  13
BRANCH   6  27
HETATM   27  C   UNL     1       7.167  31.695  59.774  1.00  0.00     0.175 C 
BRANCH  27  28
HETATM   28  C   UNL     1       7.835  31.199  61.075  1.00  0.00     0.256 C 
BRANCH  28  29
HETATM   29  N   UNL     1       7.111  31.660  62.325  1.00  0.00    -0.066 N 
HETATM   30  H   UNL     1       6.934  30.858  62.947  1.00  0.00     0.280 HD
HETATM   31  C   UNL     1       7.986  32.637  63.140  1.00  0.00     0.261 C 
HETATM   32  C   UNL     1       7.236  33.075  64.402  1.00  0.00     0.195 C 
HETATM   33  O   UNL     1       5.990  33.687  64.059  1.00  0.00    -0.388 OA
HETATM   34  C   UNL     1       5.122  32.787  63.368  1.00  0.00     0.195 C 
HETATM   35  C   UNL     1       5.755  32.327  62.049  1.00  0.00     0.261 C 
ENDBRANCH  28  29
ENDBRANCH  27  28
ENDBRANCH   6  27
TORSDOF 9
ENDMDL
MODEL 2
REMARK VINA RESULT:      -9.2      4.477      9.886
REMARK  9 active torsions:
REMARK  status: ('A' for Active; 'I' for Inactive)
REMARK    1  A    between atoms: C_7  and  O_8 
REMARK    2  A    between atoms: O_8  and  C_9 
REMARK    3  A    between atoms: C_9  and  C_10 
REMARK    4  A    between atoms: C_10  and  O_11 
REMARK    5  A    between atoms: C_10  and  C_12 
REMARK    6  A    between atoms: C_12  and  N_13 
REMARK    7  A    between atoms: N_18  and  C_19 
REMARK    8  A    between atoms: C_19  and  C_20 
REMARK    9  A    between atoms: C_20  and  N_21 
ROOT
HETATM    1  N   UNL     1       6.164  25.033  55.555  1.00  0.00    -0.179 N 
HETATM    2  C   UNL     1       5.546  25.603  54.459  1.00  0.00     0.681 A 
HETATM    3  N   UNL     1       4.630  26.569  54.516  1.00  0.00    -0.234 N 
HETATM    4  H   UNL     1       4.112  26.928  53.735  1.00  0.00     0.174 HD
HETATM    5  H   UNL     1       4.295  26.848  55.447  1.00  0.00     0.174 HD
HETATM    6  N   UNL     1       5.961  25.055  53.243  1.00  0.00    -0.180 N 
HETATM    7  C   UNL     1       6.847  23.999  53.612  1.00  0.00     0.079 A 
HETATM    8  C   UNL     1       6.976  23.989  55.009  1.00  0.00     0.079 A 
HETATM    9  C   UNL     1       7.495  23.079  52.814  1.00  0.00     0.032 A 
HETATM   10  C   UNL     1       8.291  22.126  53.459  1.00  0.00     0.002 A 
HETATM   11  C   UNL     1       8.422  22.116  54.861  1.00  0.00     0.002 A 
HETATM   12  C   UNL     1       7.758  23.057  55.655  1.00  0.00     0.032 A 
ENDROOT
BRANCH   1  13
HETATM   13  C   UNL     1       6.071  25.313  57.013  1.00  0.00     0.181 C 
BRANCH  13  14
HETATM   14  C   UNL     1       7.120  26.273  57.590  1.00  0.00     0.161 C 
BRANCH  14  15
HETATM   15  C   UNL     1       7.941  26.949  56.478  1.00  0.00     0.209 C 
BRANCH  15  16
HETATM   16  O   UNL     1       7.382  28.258  56.322  1.00  0.00    -0.349 OA
BRANCH  16  17
HETATM   17  C   UNL     1       7.785  29.220  57.206  1.00  0.00     0.069 A 
HETATM   18  C   UNL     1       9.165  29.293  57.396  1.00  0.00     0.038 A 
HETATM   19  C   UNL     1       9.710  30.231  58.274  1.00  0.00     0.027 A 
HETATM   20  C   UNL     1       8.873  31.100  58.975  1.00  0.00     0.040 A 
HETATM   21  C   UNL     1       7.481  31.038  58.804  1.00  0.00    -0.038 A 
HETATM   22 CL   UNL     1       9.605  32.231  60.053  1.00  0.00    -0.084 Cl
HETATM   23  C   UNL     1       6.553  31.946  59.563  1.00  0.00     0.050 C 
HETATM   24  C   UNL     1       6.947  30.084  57.915  1.00  0.00     0.045 A 
ENDBRANCH  16  17
ENDBRANCH  15  16
ENDBRANCH  14  15
BRANCH  14  25
HETATM   25  O   UNL     1       8.017  25.542  58.452  1.00  0.00    -0.392 OA
HETATM   26  H   UNL     1       8.305  24.761  57.922  1.00  0.00     0.210 HD
ENDBRANCH  14  25
ENDBRANCH  13  14
ENDBRANCH   1  13
BRANCH   6  27
HETATM   27  C   UNL     1       5.482  25.357  51.889  1.00  0.00     0.175 C 
BRANCH  27  28
HETATM   28  C   UNL     1       5.795  26.805  51.454  1.00  0.00     0.256 C 
BRANCH  28  29
HETATM   29  N   UNL     1       5.625  27.024  49.963  1.00  0.00    -0.066 N 
HETATM   30  H   UNL     1       6.456  26.683  49.459  1.00  0.00     0.280 HD
HETATM   31  C   UNL     1       4.438  26.200  49.418  1.00  0.00     0.261 C 
HETATM   32  C   UNL     1       4.298  26.429  47.910  1.00  0.00     0.195 C 
HETATM   33  O   UNL     1       4.114  27.819  47.628  1.00  0.00    -0.388 OA
HETATM   34  C   UNL     1       5.229  28.605  48.051  1.00  0.00     0.195 C 
HETATM   35  C   UNL     1       5.426  28.495  49.568  1.00  0.00     0.261 C 
ENDBRANCH  28  29
ENDBRANCH  27  28
ENDBRANCH   6  27
TORSDOF 9
ENDMDL
MODEL 3
REMARK VINA RESULT:      -9.1      4.549     10.002
REMARK  9 active torsions:
REMARK  status: ('A' for Active; 'I' for Inactive)
REMARK    1  A    between atoms: C_7  and  O_8 
REMARK    2  A    between atoms: O_8  and  C_9 
REMARK    3  A    between atoms: C_9  and  C_10 
REMARK    4  A    between atoms: C_10  and  O_11 
REMARK    5  A    between atoms: C_10  and  C_12 
REMARK    6  A    between atoms: C_12  and  N_13 
REMARK    7  A    between atoms: N_18  and  C_19 
REMARK    8  A    between atoms: C_19  and  C_20 
REMARK    9  A    between atoms: C_20  and  N_21 
ROOT
HETATM    1  N   UNL     1       6.345  26.804  56.130  1.00  0.00    -0.179 N 
HETATM    2  C   UNL     1       5.467  26.677  55.071  1.00  0.00     0.681 A 
HETATM    3  N   UNL     1       4.458  27.509  54.813  1.00  0.00    -0.234 N 
HETATM    4  H   UNL     1       3.763  27.379  54.101  1.00  0.00     0.174 HD
HETATM    5  H   UNL     1       4.267  28.248  55.501  1.00  0.00     0.174 HD
HETATM    6  N   UNL     1       5.718  25.558  54.274  1.00  0.00    -0.180 N 
HETATM    7  C   UNL     1       6.787  24.882  54.936  1.00  0.00     0.079 A 
HETATM    8  C   UNL     1       7.172  25.638  56.053  1.00  0.00     0.079 A 
HETATM    9  C   UNL     1       7.391  23.682  54.625  1.00  0.00     0.032 A 
HETATM   10  C   UNL     1       8.410  23.242  55.477  1.00  0.00     0.002 A 
HETATM   11  C   UNL     1       8.797  24.000  56.600  1.00  0.00     0.002 A 
HETATM   12  C   UNL     1       8.174  25.217  56.899  1.00  0.00     0.032 A 
ENDROOT
BRANCH   1  13
HETATM   13  C   UNL     1       6.486  27.833  57.194  1.00  0.00     0.181 C 
BRANCH  13  14
HETATM   14  C   UNL     1       7.529  28.930  56.945  1.00  0.00     0.161 C 
BRANCH  14  15
HETATM   15  C   UNL     1       7.291  30.153  57.847  1.00  0.00     0.209 C 
BRANCH  15  16
HETATM   16  O   UNL     1       8.365  30.154  58.794  1.00  0.00    -0.349 OA
BRANCH  16  17
HETATM   17  C   UNL     1       8.182  30.871  59.944  1.00  0.00     0.069 A 
HETATM   18  C   UNL     1       9.099  30.587  60.957  1.00  0.00     0.038 A 
HETATM   19  C   UNL     1       9.025  31.248  62.184  1.00  0.00     0.027 A 
HETATM   20  C   UNL     1       8.025  32.195  62.408  1.00  0.00     0.040 A 
HETATM   21  C   UNL     1       7.090  32.490  61.404  1.00  0.00    -0.038 A 
HETATM   22 CL   UNL     1       7.980  32.973  63.947  1.00  0.00    -0.084 Cl
HETATM   23  C   UNL     1       5.988  33.491  61.625  1.00  0.00     0.050 C 
HETATM   24  C   UNL     1       7.177  31.813  60.172  1.00  0.00     0.045 A 
ENDBRANCH  16  17
ENDBRANCH  15  16
ENDBRANCH  14  15
BRANCH  14  25
HETATM   25  O   UNL     1       7.465  29.350  55.565  1.00  0.00    -0.392 OA
HETATM   26  H   UNL     1       8.405  29.472  55.288  1.00  0.00     0.210 HD
ENDBRANCH  14  25
ENDBRANCH  13  14
ENDBRANCH   1  13
BRANCH   6  27
HETATM   27  C   UNL     1       4.963  25.068  53.115  1.00  0.00     0.175 C 
BRANCH  27  28
HETATM   28  C   UNL     1       5.523  25.588  51.774  1.00  0.00     0.256 C 
BRANCH  28  29
HETATM   29  N   UNL     1       4.563  26.513  51.051  1.00  0.00    -0.066 N 
HETATM   30  H   UNL     1       3.604  26.370  51.401  1.00  0.00     0.280 HD
HETATM   31  C   UNL     1       4.899  27.991  51.342  1.00  0.00     0.261 C 
HETATM   32  C   UNL     1       3.906  28.901  50.612  1.00  0.00     0.195 C 
HETATM   33  O   UNL     1       3.935  28.649  49.204  1.00  0.00    -0.388 OA
HETATM   34  C   UNL     1       3.555  27.308  48.892  1.00  0.00     0.195 C 
HETATM   35  C   UNL     1       4.526  26.306  49.530  1.00  0.00     0.261 C 
ENDBRANCH  28  29
ENDBRANCH  27  28
ENDBRANCH   6  27
TORSDOF 9
ENDMDL
MODEL 4
REMARK VINA RESULT:      -9.1      2.095      2.866
REMARK  9 active torsions:
REMARK  status: ('A' for Active; 'I' for Inactive)
REMARK    1  A    between atoms: C_7  and  O_8 
REMARK    2  A    between atoms: O_8  and  C_9 
REMARK    3  A    between atoms: C_9  and  C_10 
REMARK    4  A    between atoms: C_10  and  O_11 
REMARK    5  A    between atoms: C_10  and  C_12 
REMARK    6  A    between atoms: C_12  and  N_13 
REMARK    7  A    between atoms: N_18  and  C_19 
REMARK    8  A    between atoms: C_19  and  C_20 
REMARK    9  A    between atoms: C_20  and  N_21 
ROOT
HETATM    1  N   UNL     1       5.953  28.769  54.850  1.00  0.00    -0.179 N 
HETATM    2  C   UNL     1       5.070  29.773  55.197  1.00  0.00     0.681 A 
HETATM    3  N   UNL     1       4.008  30.137  54.480  1.00  0.00    -0.234 N 
HETATM    4  H   UNL     1       3.412  30.921  54.676  1.00  0.00     0.174 HD
HETATM    5  H   UNL     1       3.887  29.698  53.559  1.00  0.00     0.174 HD
HETATM    6  N   UNL     1       5.402  30.412  56.394  1.00  0.00    -0.180 N 
HETATM    7  C   UNL     1       6.639  29.816  56.785  1.00  0.00     0.079 A 
HETATM    8  C   UNL     1       6.969  28.818  55.856  1.00  0.00     0.079 A 
HETATM    9  C   UNL     1       7.455  30.113  57.856  1.00  0.00     0.032 A 
HETATM   10  C   UNL     1       8.638  29.376  57.979  1.00  0.00     0.002 A 
HETATM   11  C   UNL     1       8.970  28.374  57.048  1.00  0.00     0.002 A 
HETATM   12  C   UNL     1       8.129  28.084  55.967  1.00  0.00     0.032 A 
ENDROOT
BRANCH   1  13
HETATM   13  C   UNL     1       5.982  27.814  53.710  1.00  0.00     0.181 C 
BRANCH  13  14
HETATM   14  C   UNL     1       4.960  26.670  53.754  1.00  0.00     0.161 C 
BRANCH  14  15
HETATM   15  C   UNL     1       5.418  25.470  52.908  1.00  0.00     0.209 C 
BRANCH  15  16
HETATM   16  O   UNL     1       6.800  25.273  53.226  1.00  0.00    -0.349 OA
BRANCH  16  17
HETATM   17  C   UNL     1       7.157  24.055  53.735  1.00  0.00     0.069 A 
HETATM   18  C   UNL     1       7.133  23.977  55.128  1.00  0.00     0.038 A 
HETATM   19  C   UNL     1       7.477  22.790  55.777  1.00  0.00     0.027 A 
HETATM   20  C   UNL     1       7.853  21.672  55.033  1.00  0.00     0.040 A 
HETATM   21  C   UNL     1       7.890  21.731  53.631  1.00  0.00    -0.038 A 
HETATM   22 CL   UNL     1       8.275  20.236  55.893  1.00  0.00    -0.084 Cl
HETATM   23  C   UNL     1       8.313  20.547  52.805  1.00  0.00     0.050 C 
HETATM   24  C   UNL     1       7.542  22.936  52.992  1.00  0.00     0.045 A 
ENDBRANCH  16  17
ENDBRANCH  15  16
ENDBRANCH  14  15
BRANCH  14  25
HETATM   25  O   UNL     1       3.692  27.139  53.249  1.00  0.00    -0.392 OA
HETATM   26  H   UNL     1       3.011  26.691  53.806  1.00  0.00     0.210 HD
ENDBRANCH  14  25
ENDBRANCH  13  14
ENDBRANCH   1  13
BRANCH   6  27
HETATM   27  C   UNL     1       4.744  31.555  57.038  1.00  0.00     0.175 C 
BRANCH  27  28
HETATM   28  C   UNL     1       3.797  31.132  58.181  1.00  0.00     0.256 C 
BRANCH  28  29
HETATM   29  N   UNL     1       4.295  31.557  59.550  1.00  0.00    -0.066 N 
HETATM   30  H   UNL     1       4.631  30.737  60.074  1.00  0.00     0.280 HD
HETATM   31  C   UNL     1       5.511  32.500  59.423  1.00  0.00     0.261 C 
HETATM   32  C   UNL     1       6.001  32.903  60.818  1.00  0.00     0.195 C 
HETATM   33  O   UNL     1       4.951  33.535  61.556  1.00  0.00    -0.388 OA
HETATM   34  C   UNL     1       3.837  32.665  61.758  1.00  0.00     0.195 C 
HETATM   35  C   UNL     1       3.227  32.244  60.414  1.00  0.00     0.261 C 
ENDBRANCH  28  29
ENDBRANCH  27  28
ENDBRANCH   6  27
TORSDOF 9
ENDMDL
MODEL 5
REMARK VINA RESULT:      -8.9      4.080      8.040
REMARK  9 active torsions:
REMARK  status: ('A' for Active; 'I' for Inactive)
REMARK    1  A    between atoms: C_7  and  O_8 
REMARK    2  A    between atoms: O_8  and  C_9 
REMARK    3  A    between atoms: C_9  and  C_10 
REMARK    4  A    between atoms: C_10  and  O_11 
REMARK    5  A    between atoms: C_10  and  C_12 
REMARK    6  A    between atoms: C_12  and  N_13 
REMARK    7  A    between atoms: N_18  and  C_19 
REMARK    8  A    between atoms: C_19  and  C_20 
REMARK    9  A    between atoms: C_20  and  N_21 
ROOT
HETATM    1  N   UNL     1       5.148  28.131  55.831  1.00  0.00    -0.179 N 
HETATM    2  C   UNL     1       4.560  27.709  54.654  1.00  0.00     0.681 A 
HETATM    3  N   UNL     1       4.561  26.452  54.209  1.00  0.00    -0.234 N 
HETATM    4  H   UNL     1       4.215  26.150  53.317  1.00  0.00     0.174 HD
HETATM    5  H   UNL     1       5.114  25.765  54.736  1.00  0.00     0.174 HD
HETATM    6  N   UNL     1       3.958  28.742  53.933  1.00  0.00    -0.180 N 
HETATM    7  C   UNL     1       4.267  29.921  54.676  1.00  0.00     0.079 A 
HETATM    8  C   UNL     1       4.980  29.552  55.827  1.00  0.00     0.079 A 
HETATM    9  C   UNL     1       3.982  31.240  54.388  1.00  0.00     0.032 A 
HETATM   10  C   UNL     1       4.437  32.203  55.295  1.00  0.00     0.002 A 
HETATM   11  C   UNL     1       5.153  31.834  56.450  1.00  0.00     0.002 A 
HETATM   12  C   UNL     1       5.433  30.491  56.728  1.00  0.00     0.032 A 
ENDROOT
BRANCH   1  13
HETATM   13  C   UNL     1       5.855  27.398  56.914  1.00  0.00     0.181 C 
BRANCH  13  14
HETATM   14  C   UNL     1       7.387  27.370  56.829  1.00  0.00     0.161 C 
BRANCH  14  15
HETATM   15  C   UNL     1       7.910  25.964  56.490  1.00  0.00     0.209 C 
BRANCH  15  16
HETATM   16  O   UNL     1       7.191  25.551  55.323  1.00  0.00    -0.349 OA
BRANCH  16  17
HETATM   17  C   UNL     1       7.445  24.296  54.844  1.00  0.00     0.069 A 
HETATM   18  C   UNL     1       7.680  24.235  53.470  1.00  0.00     0.038 A 
HETATM   19  C   UNL     1       7.951  23.013  52.852  1.00  0.00     0.027 A 
HETATM   20  C   UNL     1       7.983  21.841  53.607  1.00  0.00     0.040 A 
HETATM   21  C   UNL     1       7.743  21.880  54.990  1.00  0.00    -0.038 A 
HETATM   22 CL   UNL     1       8.315  20.360  52.786  1.00  0.00    -0.084 Cl
HETATM   23  C   UNL     1       7.748  20.629  55.825  1.00  0.00     0.050 C 
HETATM   24  C   UNL     1       7.469  23.120  55.598  1.00  0.00     0.045 A 
ENDBRANCH  16  17
ENDBRANCH  15  16
ENDBRANCH  14  15
BRANCH  14  25
HETATM   25  O   UNL     1       7.946  27.783  58.094  1.00  0.00    -0.392 OA
HETATM   26  H   UNL     1       7.171  28.047  58.646  1.00  0.00     0.210 HD
ENDBRANCH  14  25
ENDBRANCH  13  14
ENDBRANCH   1  13
BRANCH   6  27
HETATM   27  C   UNL     1       3.302  28.687  52.623  1.00  0.00     0.175 C 
BRANCH  27  28
HETATM   28  C   UNL     1       4.298  28.460  51.465  1.00  0.00     0.256 C 
BRANCH  28  29
HETATM   29  N   UNL     1       3.696  27.680  50.312  1.00  0.00    -0.066 N 
HETATM   30  H   UNL     1       3.028  26.982  50.668  1.00  0.00     0.280 HD
HETATM   31  C   UNL     1       2.877  28.608  49.388  1.00  0.00     0.261 C 
HETATM   32  C   UNL     1       2.271  27.793  48.241  1.00  0.00     0.195 C 
HETATM   33  O   UNL     1       3.297  27.128  47.500  1.00  0.00    -0.388 OA
HETATM   34  C   UNL     1       4.028  26.203  48.307  1.00  0.00     0.195 C 
HETATM   35  C   UNL     1       4.731  26.928  49.462  1.00  0.00     0.261 C 
ENDBRANCH  28  29
ENDBRANCH  27  28
ENDBRANCH   6  27
TORSDOF 9
ENDMDL
MODEL 6
REMARK VINA RESULT:      -8.9      1.757      2.854
REMARK  9 active torsions:
REMARK  status: ('A' for Active; 'I' for Inactive)
REMARK    1  A    between atoms: C_7  and  O_8 
REMARK    2  A    between atoms: O_8  and  C_9 
REMARK    3  A    between atoms: C_9  and  C_10 
REMARK    4  A    between atoms: C_10  and  O_11 
REMARK    5  A    between atoms: C_10  and  C_12 
REMARK    6  A    between atoms: C_12  and  N_13 
REMARK    7  A    between atoms: N_18  and  C_19 
REMARK    8  A    between atoms: C_19  and  C_20 
REMARK    9  A    between atoms: C_20  and  N_21 
ROOT
HETATM    1  N   UNL     1       7.513  30.397  58.464  1.00  0.00    -0.179 N 
HETATM    2  C   UNL     1       6.386  31.185  58.336  1.00  0.00     0.681 A 
HETATM    3  N   UNL     1       5.539  31.144  57.309  1.00  0.00    -0.234 N 
HETATM    4  H   UNL     1       4.769  31.771  57.163  1.00  0.00     0.174 HD
HETATM    5  H   UNL     1       5.790  30.545  56.512  1.00  0.00     0.174 HD
HETATM    6  N   UNL     1       6.208  32.073  59.400  1.00  0.00    -0.180 N 
HETATM    7  C   UNL     1       7.363  31.884  60.218  1.00  0.00     0.079 A 
HETATM    8  C   UNL     1       8.148  30.866  59.657  1.00  0.00     0.079 A 
HETATM    9  C   UNL     1       7.743  32.550  61.364  1.00  0.00     0.032 A 
HETATM   10  C   UNL     1       8.955  32.169  61.949  1.00  0.00     0.002 A 
HETATM   11  C   UNL     1       9.745  31.147  61.387  1.00  0.00     0.002 A 
HETATM   12  C   UNL     1       9.343  30.481  60.224  1.00  0.00     0.032 A 
ENDROOT
BRANCH   1  13
HETATM   13  C   UNL     1       8.073  29.309  57.618  1.00  0.00     0.181 C 
BRANCH  13  14
HETATM   14  C   UNL     1       7.381  27.943  57.720  1.00  0.00     0.161 C 
BRANCH  14  15
HETATM   15  C   UNL     1       7.976  26.931  56.726  1.00  0.00     0.209 C 
BRANCH  15  16
HETATM   16  O   UNL     1       7.860  25.651  57.357  1.00  0.00    -0.349 OA
BRANCH  16  17
HETATM   17  C   UNL     1       7.893  24.550  56.547  1.00  0.00     0.069 A 
HETATM   18  C   UNL     1       7.543  24.795  55.219  1.00  0.00     0.038 A 
HETATM   19  C   UNL     1       7.535  23.756  54.286  1.00  0.00     0.027 A 
HETATM   20  C   UNL     1       7.872  22.461  54.680  1.00  0.00     0.040 A 
HETATM   21  C   UNL     1       8.221  22.193  56.013  1.00  0.00    -0.038 A 
HETATM   22 CL   UNL     1       7.835  21.219  53.484  1.00  0.00    -0.084 Cl
HETATM   23  C   UNL     1       8.568  20.802  56.471  1.00  0.00     0.050 C 
HETATM   24  C   UNL     1       8.223  23.251  56.942  1.00  0.00     0.045 A 
ENDBRANCH  16  17
ENDBRANCH  15  16
ENDBRANCH  14  15
BRANCH  14  25
HETATM   25  O   UNL     1       5.973  28.096  57.442  1.00  0.00    -0.392 OA
HETATM   26  H   UNL     1       5.913  28.870  56.831  1.00  0.00     0.210 HD
ENDBRANCH  14  25
ENDBRANCH  13  14
ENDBRANCH   1  13
BRANCH   6  27
HETATM   27  C   UNL     1       5.175  33.099  59.577  1.00  0.00     0.175 C 
BRANCH  27  28
HETATM   28  C   UNL     1       4.098  32.690  60.605  1.00  0.00     0.256 C 
BRANCH  28  29
HETATM   29  N   UNL     1       4.307  33.329  61.965  1.00  0.00    -0.066 N 
HETATM   30  H   UNL     1       4.935  34.141  61.881  1.00  0.00     0.280 HD
HETATM   31  C   UNL     1       2.978  33.883  62.523  1.00  0.00     0.261 C 
HETATM   32  C   UNL     1       3.221  34.533  63.889  1.00  0.00     0.195 C 
HETATM   33  O   UNL     1       3.791  33.589  64.800  1.00  0.00    -0.388 OA
HETATM   34  C   UNL     1       5.061  33.111  64.352  1.00  0.00     0.195 C 
HETATM   35  C   UNL     1       4.923  32.384  63.008  1.00  0.00     0.261 C 
ENDBRANCH  28  29
ENDBRANCH  27  28
ENDBRANCH   6  27
TORSDOF 9
ENDMDL
MODEL 7
REMARK VINA RESULT:      -8.7      4.185     10.411
REMARK  9 active torsions:
REMARK  status: ('A' for Active; 'I' for Inactive)
REMARK    1  A    between atoms: C_7  and  O_8 
REMARK    2  A    between atoms: O_8  and  C_9 
REMARK    3  A    between atoms: C_9  and  C_10 
REMARK    4  A    between atoms: C_10  and  O_11 
REMARK    5  A    between atoms: C_10  and  C_12 
REMARK    6  A    between atoms: C_12  and  N_13 
REMARK    7  A    between atoms: N_18  and  C_19 
REMARK    8  A    between atoms: C_19  and  C_20 
REMARK    9  A    between atoms: C_20  and  N_21 
ROOT
HETATM    1  N   UNL     1       5.944  27.365  56.586  1.00  0.00    -0.179 N 
HETATM    2  C   UNL     1       6.560  26.136  56.727  1.00  0.00     0.681 A 
HETATM    3  N   UNL     1       7.330  25.783  57.757  1.00  0.00    -0.234 N 
HETATM    4  H   UNL     1       7.852  24.929  57.828  1.00  0.00     0.174 HD
HETATM    5  H   UNL     1       7.551  26.507  58.452  1.00  0.00     0.174 HD
HETATM    6  N   UNL     1       6.319  25.270  55.659  1.00  0.00    -0.180 N 
HETATM    7  C   UNL     1       5.560  26.048  54.734  1.00  0.00     0.079 A 
HETATM    8  C   UNL     1       5.326  27.311  55.296  1.00  0.00     0.079 A 
HETATM    9  C   UNL     1       5.107  25.716  53.474  1.00  0.00     0.032 A 
HETATM   10  C   UNL     1       4.401  26.699  52.772  1.00  0.00     0.002 A 
HETATM   11  C   UNL     1       4.166  27.968  53.336  1.00  0.00     0.002 A 
HETATM   12  C   UNL     1       4.632  28.287  54.616  1.00  0.00     0.032 A 
ENDROOT
BRANCH   1  13
HETATM   13  C   UNL     1       5.886  28.562  57.467  1.00  0.00     0.181 C 
BRANCH  13  14
HETATM   14  C   UNL     1       7.179  29.380  57.589  1.00  0.00     0.161 C 
BRANCH  14  15
HETATM   15  C   UNL     1       6.962  30.662  58.410  1.00  0.00     0.209 C 
BRANCH  15  16
HETATM   16  O   UNL     1       7.991  30.666  59.406  1.00  0.00    -0.349 OA
BRANCH  16  17
HETATM   17  C   UNL     1       7.769  31.411  60.531  1.00  0.00     0.069 A 
HETATM   18  C   UNL     1       8.537  31.040  61.635  1.00  0.00     0.038 A 
HETATM   19  C   UNL     1       8.407  31.719  62.847  1.00  0.00     0.027 A 
HETATM   20  C   UNL     1       7.500  32.772  62.964  1.00  0.00     0.040 A 
HETATM   21  C   UNL     1       6.714  33.157  61.867  1.00  0.00    -0.038 A 
HETATM   22 CL   UNL     1       7.379  33.567  64.491  1.00  0.00    -0.084 Cl
HETATM   23  C   UNL     1       5.712  34.275  61.970  1.00  0.00     0.050 C 
HETATM   24  C   UNL     1       6.855  32.461  60.651  1.00  0.00     0.045 A 
ENDBRANCH  16  17
ENDBRANCH  15  16
ENDBRANCH  14  15
BRANCH  14  25
HETATM   25  O   UNL     1       7.643  29.743  56.271  1.00  0.00    -0.392 OA
HETATM   26  H   UNL     1       8.420  29.158  56.100  1.00  0.00     0.210 HD
ENDBRANCH  14  25
ENDBRANCH  13  14
ENDBRANCH   1  13
BRANCH   6  27
HETATM   27  C   UNL     1       6.854  23.923  55.431  1.00  0.00     0.175 C 
BRANCH  27  28
HETATM   28  C   UNL     1       8.281  23.939  54.841  1.00  0.00     0.256 C 
BRANCH  28  29
HETATM   29  N   UNL     1       8.803  22.552  54.517  1.00  0.00    -0.066 N 
HETATM   30  H   UNL     1       9.800  22.601  54.263  1.00  0.00     0.280 HD
HETATM   31  C   UNL     1       8.732  21.635  55.757  1.00  0.00     0.261 C 
HETATM   32  C   UNL     1       9.277  20.247  55.406  1.00  0.00     0.195 C 
HETATM   33  O   UNL     1       8.541  19.678  54.319  1.00  0.00    -0.388 OA
HETATM   34  C   UNL     1       8.647  20.463  53.131  1.00  0.00     0.195 C 
HETATM   35  C   UNL     1       8.070  21.867  53.354  1.00  0.00     0.261 C 
ENDBRANCH  28  29
ENDBRANCH  27  28
ENDBRANCH   6  27
TORSDOF 9
ENDMDL
MODEL 8
REMARK VINA RESULT:      -8.6      1.781      2.497
REMARK  9 active torsions:
REMARK  status: ('A' for Active; 'I' for Inactive)
REMARK    1  A    between atoms: C_7  and  O_8 
REMARK    2  A    between atoms: O_8  and  C_9 
REMARK    3  A    between atoms: C_9  and  C_10 
REMARK    4  A    between atoms: C_10  and  O_11 
REMARK    5  A    between atoms: C_10  and  C_12 
REMARK    6  A    between atoms: C_12  and  N_13 
REMARK    7  A    between atoms: N_18  and  C_19 
REMARK    8  A    between atoms: C_19  and  C_20 
REMARK    9  A    between atoms: C_20  and  N_21 
ROOT
HETATM    1  N   UNL     1       5.687  28.845  57.029  1.00  0.00    -0.179 N 
HETATM    2  C   UNL     1       4.774  29.823  57.373  1.00  0.00     0.681 A 
HETATM    3  N   UNL     1       3.483  29.810  57.044  1.00  0.00    -0.234 N 
HETATM    4  H   UNL     1       2.831  30.555  57.212  1.00  0.00     0.174 HD
HETATM    5  H   UNL     1       3.163  29.064  56.413  1.00  0.00     0.174 HD
HETATM    6  N   UNL     1       5.335  30.871  58.106  1.00  0.00    -0.180 N 
HETATM    7  C   UNL     1       6.729  30.568  58.151  1.00  0.00     0.079 A 
HETATM    8  C   UNL     1       6.942  29.340  57.507  1.00  0.00     0.079 A 
HETATM    9  C   UNL     1       7.768  31.298  58.689  1.00  0.00     0.032 A 
HETATM   10  C   UNL     1       9.054  30.763  58.563  1.00  0.00     0.002 A 
HETATM   11  C   UNL     1       9.270  29.531  57.917  1.00  0.00     0.002 A 
HETATM   12  C   UNL     1       8.204  28.802  57.378  1.00  0.00     0.032 A 
ENDROOT
BRANCH   1  13
HETATM   13  C   UNL     1       5.545  27.556  56.302  1.00  0.00     0.181 C 
BRANCH  13  14
HETATM   14  C   UNL     1       5.876  27.579  54.804  1.00  0.00     0.161 C 
BRANCH  14  15
HETATM   15  C   UNL     1       7.068  26.666  54.472  1.00  0.00     0.209 C 
BRANCH  15  16
HETATM   16  O   UNL     1       6.505  25.487  53.885  1.00  0.00    -0.349 OA
BRANCH  16  17
HETATM   17  C   UNL     1       7.025  24.284  54.277  1.00  0.00     0.069 A 
HETATM   18  C   UNL     1       7.313  24.191  55.638  1.00  0.00     0.038 A 
HETATM   19  C   UNL     1       7.850  23.017  56.169  1.00  0.00     0.027 A 
HETATM   20  C   UNL     1       8.108  21.929  55.336  1.00  0.00     0.040 A 
HETATM   21  C   UNL     1       7.831  22.004  53.963  1.00  0.00    -0.038 A 
HETATM   22 CL   UNL     1       8.780  20.508  56.050  1.00  0.00    -0.084 Cl
HETATM   23  C   UNL     1       8.119  20.854  53.037  1.00  0.00     0.050 C 
HETATM   24  C   UNL     1       7.291  23.196  53.442  1.00  0.00     0.045 A 
ENDBRANCH  16  17
ENDBRANCH  15  16
ENDBRANCH  14  15
BRANCH  14  25
HETATM   25  O   UNL     1       6.198  28.928  54.404  1.00  0.00    -0.392 OA
HETATM   26  H   UNL     1       6.169  28.920  53.417  1.00  0.00     0.210 HD
ENDBRANCH  14  25
ENDBRANCH  13  14
ENDBRANCH   1  13
BRANCH   6  27
HETATM   27  C   UNL     1       4.696  32.103  58.583  1.00  0.00     0.175 C 
BRANCH  27  28
HETATM   28  C   UNL     1       3.767  31.863  59.792  1.00  0.00     0.256 C 
BRANCH  28  29
HETATM   29  N   UNL     1       4.124  32.720  60.992  1.00  0.00    -0.066 N 
HETATM   30  H   UNL     1       4.832  33.420  60.727  1.00  0.00     0.280 HD
HETATM   31  C   UNL     1       2.900  33.527  61.477  1.00  0.00     0.261 C 
HETATM   32  C   UNL     1       3.293  34.392  62.678  1.00  0.00     0.195 C 
HETATM   33  O   UNL     1       3.808  33.579  63.736  1.00  0.00    -0.388 OA
HETATM   34  C   UNL     1       4.988  32.875  63.346  1.00  0.00     0.195 C 
HETATM   35  C   UNL     1       4.692  31.926  62.177  1.00  0.00     0.261 C 
ENDBRANCH  28  29
ENDBRANCH  27  28
ENDBRANCH   6  27
TORSDOF 9
ENDMDL
MODEL 9
REMARK VINA RESULT:      -8.5      5.082     10.577
REMARK  9 active torsions:
REMARK  status: ('A' for Active; 'I' for Inactive)
REMARK    1  A    between atoms: C_7  and  O_8 
REMARK    2  A    between atoms: O_8  and  C_9 
REMARK    3  A    between atoms: C_9  and  C_10 
REMARK    4  A    between atoms: C_10  and  O_11 
REMARK    5  A    between atoms: C_10  and  C_12 
REMARK    6  A    between atoms: C_12  and  N_13 
REMARK    7  A    between atoms: N_18  and  C_19 
REMARK    8  A    between atoms: C_19  and  C_20 
REMARK    9  A    between atoms: C_20  and  N_21 
ROOT
HETATM    1  N   UNL     1       6.541  27.417  54.742  1.00  0.00    -0.179 N 
HETATM    2  C   UNL     1       6.017  28.140  53.688  1.00  0.00     0.681 A 
HETATM    3  N   UNL     1       5.393  29.312  53.803  1.00  0.00    -0.234 N 
HETATM    4  H   UNL     1       4.932  29.802  53.059  1.00  0.00     0.174 HD
HETATM    5  H   UNL     1       5.210  29.659  54.753  1.00  0.00     0.174 HD
HETATM    6  N   UNL     1       6.185  27.516  52.450  1.00  0.00    -0.180 N 
HETATM    7  C   UNL     1       6.787  26.260  52.764  1.00  0.00     0.079 A 
HETATM    8  C   UNL     1       7.010  26.202  54.148  1.00  0.00     0.079 A 
HETATM    9  C   UNL     1       7.112  25.211  51.929  1.00  0.00     0.032 A 
HETATM   10  C   UNL     1       7.675  24.076  52.523  1.00  0.00     0.002 A 
HETATM   11  C   UNL     1       7.899  24.017  53.912  1.00  0.00     0.002 A 
HETATM   12  C   UNL     1       7.564  25.091  54.744  1.00  0.00     0.032 A 
ENDROOT
BRANCH   1  13
HETATM   13  C   UNL     1       6.630  27.696  56.200  1.00  0.00     0.181 C 
BRANCH  13  14
HETATM   14  C   UNL     1       7.740  28.659  56.642  1.00  0.00     0.161 C 
BRANCH  14  15
HETATM   15  C   UNL     1       7.653  28.972  58.146  1.00  0.00     0.209 C 
BRANCH  15  16
HETATM   16  O   UNL     1       8.364  30.201  58.330  1.00  0.00    -0.349 OA
BRANCH  16  17
HETATM   17  C   UNL     1       8.196  30.847  59.524  1.00  0.00     0.069 A 
HETATM   18  C   UNL     1       9.158  30.545  60.488  1.00  0.00     0.038 A 
HETATM   19  C   UNL     1       9.102  31.136  61.752  1.00  0.00     0.027 A 
HETATM   20  C   UNL     1       8.077  32.030  62.060  1.00  0.00     0.040 A 
HETATM   21  C   UNL     1       7.097  32.342  61.106  1.00  0.00    -0.038 A 
HETATM   22 CL   UNL     1       8.058  32.721  63.641  1.00  0.00    -0.084 Cl
HETATM   23  C   UNL     1       5.967  33.286  61.417  1.00  0.00     0.050 C 
HETATM   24  C   UNL     1       7.166  31.736  59.836  1.00  0.00     0.045 A 
ENDBRANCH  16  17
ENDBRANCH  15  16
ENDBRANCH  14  15
BRANCH  14  25
HETATM   25  O   UNL     1       7.627  29.893  55.903  1.00  0.00    -0.392 OA
HETATM   26  H   UNL     1       8.140  30.555  56.426  1.00  0.00     0.210 HD
ENDBRANCH  14  25
ENDBRANCH  13  14
ENDBRANCH   1  13
BRANCH   6  27
HETATM   27  C   UNL     1       5.706  27.946  51.132  1.00  0.00     0.175 C 
BRANCH  27  28
HETATM   28  C   UNL     1       4.190  27.725  50.946  1.00  0.00     0.256 C 
BRANCH  28  29
HETATM   29  N   UNL     1       3.799  27.492  49.499  1.00  0.00    -0.066 N 
HETATM   30  H   UNL     1       4.443  27.999  48.874  1.00  0.00     0.280 HD
HETATM   31  C   UNL     1       3.940  26.001  49.124  1.00  0.00     0.261 C 
HETATM   32  C   UNL     1       3.553  25.798  47.655  1.00  0.00     0.195 C 
HETATM   33  O   UNL     1       2.217  26.249  47.421  1.00  0.00    -0.388 OA
HETATM   34  C   UNL     1       2.067  27.645  47.686  1.00  0.00     0.195 C 
HETATM   35  C   UNL     1       2.375  27.954  49.156  1.00  0.00     0.261 C 
ENDBRANCH  28  29
ENDBRANCH  27  28
ENDBRANCH   6  27
TORSDOF 9
ENDMDL
MODEL 10
REMARK VINA RESULT:      -8.5      6.769      8.597
REMARK  9 active torsions:
REMARK  status: ('A' for Active; 'I' for Inactive)
REMARK    1  A    between atoms: C_7  and  O_8 
REMARK    2  A    between atoms: O_8  and  C_9 
REMARK    3  A    between atoms: C_9  and  C_10 
REMARK    4  A    between atoms: C_10  and  O_11 
REMARK    5  A    between atoms: C_10  and  C_12 
REMARK    6  A    between atoms: C_12  and  N_13 
REMARK    7  A    between atoms: N_18  and  C_19 
REMARK    8  A    between atoms: C_19  and  C_20 
REMARK    9  A    between atoms: C_20  and  N_21 
ROOT
HETATM    1  N   UNL     1       5.023  27.328  50.480  1.00  0.00    -0.179 N 
HETATM    2  C   UNL     1       5.133  28.702  50.394  1.00  0.00     0.681 A 
HETATM    3  N   UNL     1       5.698  29.481  51.317  1.00  0.00    -0.234 N 
HETATM    4  H   UNL     1       5.705  30.484  51.307  1.00  0.00     0.174 HD
HETATM    5  H   UNL     1       5.994  29.036  52.194  1.00  0.00     0.174 HD
HETATM    6  N   UNL     1       4.569  29.232  49.232  1.00  0.00    -0.180 N 
HETATM    7  C   UNL     1       3.984  28.107  48.576  1.00  0.00     0.079 A 
HETATM    8  C   UNL     1       4.264  26.955  49.325  1.00  0.00     0.079 A 
HETATM    9  C   UNL     1       3.236  28.059  47.417  1.00  0.00     0.032 A 
HETATM   10  C   UNL     1       2.761  26.805  47.018  1.00  0.00     0.002 A 
HETATM   11  C   UNL     1       3.041  25.648  47.770  1.00  0.00     0.002 A 
HETATM   12  C   UNL     1       3.803  25.714  48.942  1.00  0.00     0.032 A 
ENDROOT
BRANCH   1  13
HETATM   13  C   UNL     1       5.498  26.348  51.493  1.00  0.00     0.181 C 
BRANCH  13  14
HETATM   14  C   UNL     1       5.077  26.612  52.945  1.00  0.00     0.161 C 
BRANCH  14  15
HETATM   15  C   UNL     1       5.419  25.423  53.859  1.00  0.00     0.209 C 
BRANCH  15  16
HETATM   16  O   UNL     1       6.768  25.063  53.542  1.00  0.00    -0.349 OA
BRANCH  16  17
HETATM   17  C   UNL     1       7.201  23.834  53.958  1.00  0.00     0.069 A 
HETATM   18  C   UNL     1       7.288  23.687  55.343  1.00  0.00     0.038 A 
HETATM   19  C   UNL     1       7.717  22.482  55.901  1.00  0.00     0.027 A 
HETATM   20  C   UNL     1       8.070  21.416  55.074  1.00  0.00     0.040 A 
HETATM   21  C   UNL     1       7.995  21.545  53.678  1.00  0.00    -0.038 A 
HETATM   22 CL   UNL     1       8.601  19.955  55.823  1.00  0.00    -0.084 Cl
HETATM   23  C   UNL     1       8.390  20.420  52.761  1.00  0.00     0.050 C 
HETATM   24  C   UNL     1       7.561  22.768  53.130  1.00  0.00     0.045 A 
ENDBRANCH  16  17
ENDBRANCH  15  16
ENDBRANCH  14  15
BRANCH  14  25
HETATM   25  O   UNL     1       3.654  26.846  52.998  1.00  0.00    -0.392 OA
HETATM   26  H   UNL     1       3.558  27.810  53.192  1.00  0.00     0.210 HD
ENDBRANCH  14  25
ENDBRANCH  13  14
ENDBRANCH   1  13
BRANCH   6  27
HETATM   27  C   UNL     1       4.439  30.637  48.831  1.00  0.00     0.175 C 
BRANCH  27  28
HETATM   28  C   UNL     1       3.100  31.263  49.276  1.00  0.00     0.256 C 
BRANCH  28  29
HETATM   29  N   UNL     1       3.247  32.189  50.468  1.00  0.00    -0.066 N 
HETATM   30  H   UNL     1       2.616  32.997  50.368  1.00  0.00     0.280 HD
HETATM   31  C   UNL     1       2.815  31.481  51.771  1.00  0.00     0.261 C 
HETATM   32  C   UNL     1       2.961  32.442  52.955  1.00  0.00     0.195 C 
HETATM   33  O   UNL     1       4.309  32.908  53.061  1.00  0.00    -0.388 OA
HETATM   34  C   UNL     1       4.718  33.635  51.902  1.00  0.00     0.195 C 
HETATM   35  C   UNL     1       4.667  32.742  50.656  1.00  0.00     0.261 C 
ENDBRANCH  28  29
ENDBRANCH  27  28
ENDBRANCH   6  27
TORSDOF 9
ENDMDL
