MODEL 1
REMARK VINA RESULT:     -10.3      0.000      0.000
REMARK  8 active torsions:
REMARK  status: ('A' for Active; 'I' for Inactive)
REMARK    1  A    between atoms: C_4  and  O_5 
REMARK    2  A    between atoms: O_5  and  C_6 
REMARK    3  A    between atoms: C_8  and  C_9 
REMARK    4  A    between atoms: C_9  and  N_10 
REMARK    5  A    between atoms: C_9  and  C_14 
REMARK       I    between atoms: N_10  and  C_11 
REMARK       I    between atoms: C_11  and  N_12 
REMARK    6  A    between atoms: C_14  and  C_15 
REMARK       I    between atoms: C_15  and  N_16 
REMARK    7  A    between atoms: N_16  and  N_17 
REMARK       I    between atoms: N_17  and  C_18 
REMARK    8  A    between atoms: C_18  and  C_19 
ROOT
HETATM    1  C   UNL     1       7.832  28.729  57.551  1.00  0.00     0.127 C 
ENDROOT
BRANCH   1   2
HETATM    2  C   UNL     1       7.221  27.382  57.210  1.00  0.00    -0.032 A 
HETATM    3  C   UNL     1       8.088  26.305  56.951  1.00  0.00     0.046 A 
HETATM    4  C   UNL     1       7.593  25.041  56.625  1.00  0.00     0.076 A 
HETATM    5  C   UNL     1       6.216  24.823  56.586  1.00  0.00     0.037 A 
HETATM    6  C   UNL     1       5.343  25.888  56.813  1.00  0.00     0.003 A 
HETATM    7  C   UNL     1       5.840  27.161  57.108  1.00  0.00     0.009 A 
BRANCH   4   8
HETATM    8  O   UNL     1       8.526  24.049  56.441  1.00  0.00    -0.311 OA
BRANCH   8   9
HETATM    9  C   UNL     1       8.284  23.076  55.499  1.00  0.00     0.076 A 
HETATM   10  C   UNL     1       8.297  23.313  54.122  1.00  0.00     0.037 A 
HETATM   11  C   UNL     1       8.083  22.256  53.235  1.00  0.00     0.003 A 
HETATM   12  C   UNL     1       7.882  20.964  53.721  1.00  0.00     0.000 A 
HETATM   13  C   UNL     1       7.900  20.724  55.095  1.00  0.00     0.003 A 
HETATM   14  C   UNL     1       8.108  21.779  55.983  1.00  0.00     0.037 A 
ENDBRANCH   8   9
ENDBRANCH   4   8
ENDBRANCH   1   2
BRANCH   1  15
HETATM   15  N   UNL     1       9.131  28.817  56.892  1.00  0.00    -0.339 N 
HETATM   16  C   UNL     1      10.143  29.558  57.416  1.00  0.00     0.292 C 
HETATM   17  N   UNL     1      11.244  29.563  56.625  1.00  0.00    -0.254 NA
HETATM   18  O   UNL     1      10.103  30.162  58.476  1.00  0.00    -0.254 OA
HETATM   19  H   UNL     1      11.460  28.701  56.146  1.00  0.00     0.128 HD
HETATM   20  H   UNL     1      12.041  30.012  57.058  1.00  0.00     0.128 HD
HETATM   21  H   UNL     1       9.161  28.657  55.896  1.00  0.00     0.164 HD
ENDBRANCH   1  15
BRANCH   1  22
HETATM   22  C   UNL     1       6.979  29.965  57.240  1.00  0.00     0.134 C 
BRANCH  22  23
HETATM   23  C   UNL     1       6.839  30.978  58.356  1.00  0.00     0.238 C 
HETATM   24  N   UNL     1       7.257  30.590  59.612  1.00  0.00    -0.267 N 
HETATM   25  H   UNL     1       7.259  29.612  59.898  1.00  0.00     0.190 HD
HETATM   26  O   UNL     1       6.455  32.127  58.124  1.00  0.00    -0.272 OA
BRANCH  24  27
HETATM   27  N   UNL     1       7.011  31.500  60.660  1.00  0.00    -0.262 N 
HETATM   28  C   UNL     1       7.828  31.458  61.777  1.00  0.00     0.293 C 
HETATM   29  O   UNL     1       8.896  30.845  61.775  1.00  0.00    -0.264 OA
HETATM   30  H   UNL     1       6.041  31.798  60.781  1.00  0.00     0.190 HD
BRANCH  28  31
HETATM   31  C   UNL     1       7.307  32.183  62.915  1.00  0.00     0.144 A 
HETATM   32  O   UNL     1       5.951  32.231  63.119  1.00  0.00    -0.317 OA
HETATM   33  C   UNL     1       5.736  32.975  64.234  1.00  0.00     0.143 A 
HETATM   34  C   UNL     1       6.931  33.403  64.763  1.00  0.00     0.027 A 
HETATM   35  C   UNL     1       7.944  32.894  63.916  1.00  0.00     0.045 A 
ENDBRANCH  28  31
ENDBRANCH  24  27
ENDBRANCH  22  23
ENDBRANCH   1  22
TORSDOF 8
ENDMDL
MODEL 2
REMARK VINA RESULT:      -9.8      1.780      2.168
REMARK  8 active torsions:
REMARK  status: ('A' for Active; 'I' for Inactive)
REMARK    1  A    between atoms: C_4  and  O_5 
REMARK    2  A    between atoms: O_5  and  C_6 
REMARK    3  A    between atoms: C_8  and  C_9 
REMARK    4  A    between atoms: C_9  and  N_10 
REMARK    5  A    between atoms: C_9  and  C_14 
REMARK       I    between atoms: N_10  and  C_11 
REMARK       I    between atoms: C_11  and  N_12 
REMARK    6  A    between atoms: C_14  and  C_15 
REMARK       I    between atoms: C_15  and  N_16 
REMARK    7  A    between atoms: N_16  and  N_17 
REMARK       I    between atoms: N_17  and  C_18 
REMARK    8  A    between atoms: C_18  and  C_19 
ROOT
HETATM    1  C   UNL     1       6.777  28.434  55.792  1.00  0.00     0.127 C 
ENDROOT
BRANCH   1   2
HETATM    2  C   UNL     1       6.426  27.282  54.867  1.00  0.00    -0.032 A 
HETATM    3  C   UNL     1       7.435  26.355  54.547  1.00  0.00     0.046 A 
HETATM    4  C   UNL     1       7.182  25.277  53.697  1.00  0.00     0.076 A 
HETATM    5  C   UNL     1       5.901  25.087  53.179  1.00  0.00     0.037 A 
HETATM    6  C   UNL     1       4.898  26.013  53.464  1.00  0.00     0.003 A 
HETATM    7  C   UNL     1       5.160  27.110  54.290  1.00  0.00     0.009 A 
BRANCH   4   8
HETATM    8  O   UNL     1       8.224  24.405  53.493  1.00  0.00    -0.311 OA
BRANCH   8   9
HETATM    9  C   UNL     1       8.121  23.122  53.979  1.00  0.00     0.076 A 
HETATM   10  C   UNL     1       7.991  22.818  55.336  1.00  0.00     0.037 A 
HETATM   11  C   UNL     1       7.848  21.488  55.738  1.00  0.00     0.003 A 
HETATM   12  C   UNL     1       7.811  20.469  54.785  1.00  0.00     0.000 A 
HETATM   13  C   UNL     1       7.911  20.777  53.428  1.00  0.00     0.003 A 
HETATM   14  C   UNL     1       8.059  22.104  53.025  1.00  0.00     0.037 A 
ENDBRANCH   8   9
ENDBRANCH   4   8
ENDBRANCH   1   2
BRANCH   1  15
HETATM   15  N   UNL     1       7.987  29.071  55.283  1.00  0.00    -0.339 N 
HETATM   16  C   UNL     1       9.125  29.125  56.024  1.00  0.00     0.292 C 
HETATM   17  N   UNL     1      10.115  29.811  55.403  1.00  0.00    -0.254 NA
HETATM   18  O   UNL     1       9.277  28.621  57.126  1.00  0.00    -0.254 OA
HETATM   19  H   UNL     1      10.183  29.700  54.401  1.00  0.00     0.128 HD
HETATM   20  H   UNL     1      11.001  29.758  55.890  1.00  0.00     0.128 HD
HETATM   21  H   UNL     1       7.878  29.783  54.576  1.00  0.00     0.164 HD
ENDBRANCH   1  15
BRANCH   1  22
HETATM   22  C   UNL     1       5.676  29.473  56.036  1.00  0.00     0.134 C 
BRANCH  22  23
HETATM   23  C   UNL     1       5.937  30.476  57.139  1.00  0.00     0.238 C 
HETATM   24  N   UNL     1       6.651  30.034  58.234  1.00  0.00    -0.267 N 
HETATM   25  H   UNL     1       6.647  29.055  58.516  1.00  0.00     0.190 HD
HETATM   26  O   UNL     1       5.605  31.658  57.013  1.00  0.00    -0.272 OA
BRANCH  24  27
HETATM   27  N   UNL     1       6.783  30.945  59.302  1.00  0.00    -0.262 N 
HETATM   28  C   UNL     1       7.878  30.824  60.141  1.00  0.00     0.293 C 
HETATM   29  O   UNL     1       8.850  30.132  59.841  1.00  0.00    -0.264 OA
HETATM   30  H   UNL     1       5.913  31.312  59.691  1.00  0.00     0.190 HD
BRANCH  28  31
HETATM   31  C   UNL     1       7.758  31.569  61.375  1.00  0.00     0.144 A 
HETATM   32  O   UNL     1       6.549  32.123  61.713  1.00  0.00    -0.317 OA
HETATM   33  C   UNL     1       6.716  32.768  62.895  1.00  0.00     0.143 A 
HETATM   34  C   UNL     1       8.012  32.635  63.336  1.00  0.00     0.027 A 
HETATM   35  C   UNL     1       8.684  31.863  62.359  1.00  0.00     0.045 A 
ENDBRANCH  28  31
ENDBRANCH  24  27
ENDBRANCH  22  23
ENDBRANCH   1  22
TORSDOF 8
ENDMDL
MODEL 3
REMARK VINA RESULT:      -9.7      2.405      9.709
REMARK  8 active torsions:
REMARK  status: ('A' for Active; 'I' for Inactive)
REMARK    1  A    between atoms: C_4  and  O_5 
REMARK    2  A    between atoms: O_5  and  C_6 
REMARK    3  A    between atoms: C_8  and  C_9 
REMARK    4  A    between atoms: C_9  and  N_10 
REMARK    5  A    between atoms: C_9  and  C_14 
REMARK       I    between atoms: N_10  and  C_11 
REMARK       I    between atoms: C_11  and  N_12 
REMARK    6  A    between atoms: C_14  and  C_15 
REMARK       I    between atoms: C_15  and  N_16 
REMARK    7  A    between atoms: N_16  and  N_17 
REMARK       I    between atoms: N_17  and  C_18 
REMARK    8  A    between atoms: C_18  and  C_19 
ROOT
HETATM    1  C   UNL     1       7.701  28.585  56.439  1.00  0.00     0.127 C 
ENDROOT
BRANCH   1   2
HETATM    2  C   UNL     1       8.917  29.344  56.940  1.00  0.00    -0.032 A 
HETATM    3  C   UNL     1       8.708  30.468  57.759  1.00  0.00     0.046 A 
HETATM    4  C   UNL     1       9.781  31.215  58.248  1.00  0.00     0.076 A 
HETATM    5  C   UNL     1      11.088  30.828  57.954  1.00  0.00     0.037 A 
HETATM    6  C   UNL     1      11.311  29.732  57.120  1.00  0.00     0.003 A 
HETATM    7  C   UNL     1      10.235  29.003  56.605  1.00  0.00     0.009 A 
BRANCH   4   8
HETATM    8  O   UNL     1       9.466  32.262  59.080  1.00  0.00    -0.311 OA
BRANCH   8   9
HETATM    9  C   UNL     1       8.932  31.988  60.319  1.00  0.00     0.076 A 
HETATM   10  C   UNL     1       9.408  30.979  61.159  1.00  0.00     0.037 A 
HETATM   11  C   UNL     1       8.833  30.799  62.420  1.00  0.00     0.003 A 
HETATM   12  C   UNL     1       7.805  31.640  62.847  1.00  0.00     0.000 A 
HETATM   13  C   UNL     1       7.352  32.667  62.018  1.00  0.00     0.003 A 
HETATM   14  C   UNL     1       7.920  32.844  60.757  1.00  0.00     0.037 A 
ENDBRANCH   8   9
ENDBRANCH   4   8
ENDBRANCH   1   2
BRANCH   1  15
HETATM   15  N   UNL     1       6.509  29.239  56.968  1.00  0.00    -0.339 N 
HETATM   16  C   UNL     1       5.392  28.531  57.282  1.00  0.00     0.292 C 
HETATM   17  N   UNL     1       4.376  29.326  57.697  1.00  0.00    -0.254 NA
HETATM   18  O   UNL     1       5.281  27.318  57.215  1.00  0.00    -0.254 OA
HETATM   19  H   UNL     1       4.627  30.127  58.258  1.00  0.00     0.128 HD
HETATM   20  H   UNL     1       3.581  28.805  58.044  1.00  0.00     0.128 HD
HETATM   21  H   UNL     1       6.374  30.215  56.746  1.00  0.00     0.164 HD
ENDBRANCH   1  15
BRANCH   1  22
HETATM   22  C   UNL     1       7.591  28.397  54.921  1.00  0.00     0.134 C 
BRANCH  22  23
HETATM   23  C   UNL     1       7.349  26.982  54.439  1.00  0.00     0.238 C 
HETATM   24  N   UNL     1       7.273  25.996  55.401  1.00  0.00    -0.267 N 
HETATM   25  H   UNL     1       7.749  26.084  56.298  1.00  0.00     0.190 HD
HETATM   26  O   UNL     1       7.135  26.746  53.247  1.00  0.00    -0.272 OA
BRANCH  24  27
HETATM   27  N   UNL     1       7.166  24.672  54.929  1.00  0.00    -0.262 N 
HETATM   28  C   UNL     1       8.122  23.751  55.324  1.00  0.00     0.293 C 
HETATM   29  O   UNL     1       8.893  23.978  56.257  1.00  0.00    -0.264 OA
HETATM   30  H   UNL     1       6.729  24.553  54.013  1.00  0.00     0.190 HD
BRANCH  28  31
HETATM   31  C   UNL     1       8.124  22.533  54.544  1.00  0.00     0.144 A 
HETATM   32  O   UNL     1       8.274  21.326  55.180  1.00  0.00    -0.317 OA
HETATM   33  C   UNL     1       8.252  20.361  54.225  1.00  0.00     0.143 A 
HETATM   34  C   UNL     1       8.082  20.920  52.981  1.00  0.00     0.027 A 
HETATM   35  C   UNL     1       7.998  22.318  53.183  1.00  0.00     0.045 A 
ENDBRANCH  28  31
ENDBRANCH  24  27
ENDBRANCH  22  23
ENDBRANCH   1  22
TORSDOF 8
ENDMDL
MODEL 4
REMARK VINA RESULT:      -9.4      2.362      3.480
REMARK  8 active torsions:
REMARK  status: ('A' for Active; 'I' for Inactive)
REMARK    1  A    between atoms: C_4  and  O_5 
REMARK    2  A    between atoms: O_5  and  C_6 
REMARK    3  A    between atoms: C_8  and  C_9 
REMARK    4  A    between atoms: C_9  and  N_10 
REMARK    5  A    between atoms: C_9  and  C_14 
REMARK       I    between atoms: N_10  and  C_11 
REMARK       I    between atoms: C_11  and  N_12 
REMARK    6  A    between atoms: C_14  and  C_15 
REMARK       I    between atoms: C_15  and  N_16 
REMARK    7  A    between atoms: N_16  and  N_17 
REMARK       I    between atoms: N_17  and  C_18 
REMARK    8  A    between atoms: C_18  and  C_19 
ROOT
HETATM    1  C   UNL     1       6.420  28.236  55.065  1.00  0.00     0.127 C 
ENDROOT
BRANCH   1   2
HETATM    2  C   UNL     1       6.205  26.971  54.252  1.00  0.00    -0.032 A 
HETATM    3  C   UNL     1       7.286  26.084  54.103  1.00  0.00     0.046 A 
HETATM    4  C   UNL     1       7.158  24.908  53.362  1.00  0.00     0.076 A 
HETATM    5  C   UNL     1       5.931  24.579  52.787  1.00  0.00     0.037 A 
HETATM    6  C   UNL     1       4.857  25.462  52.903  1.00  0.00     0.003 A 
HETATM    7  C   UNL     1       4.995  26.655  53.618  1.00  0.00     0.009 A 
BRANCH   4   8
HETATM    8  O   UNL     1       8.262  24.090  53.323  1.00  0.00    -0.311 OA
BRANCH   8   9
HETATM    9  C   UNL     1       8.198  22.859  53.935  1.00  0.00     0.076 A 
HETATM   10  C   UNL     1       8.027  22.689  55.311  1.00  0.00     0.037 A 
HETATM   11  C   UNL     1       7.929  21.402  55.844  1.00  0.00     0.003 A 
HETATM   12  C   UNL     1       7.978  20.290  55.001  1.00  0.00     0.000 A 
HETATM   13  C   UNL     1       8.119  20.463  53.624  1.00  0.00     0.003 A 
HETATM   14  C   UNL     1       8.222  21.748  53.091  1.00  0.00     0.037 A 
ENDBRANCH   8   9
ENDBRANCH   4   8
ENDBRANCH   1   2
BRANCH   1  15
HETATM   15  N   UNL     1       5.279  28.400  55.958  1.00  0.00    -0.339 N 
HETATM   16  C   UNL     1       4.438  29.462  55.846  1.00  0.00     0.292 C 
HETATM   17  N   UNL     1       3.480  29.467  56.806  1.00  0.00    -0.254 NA
HETATM   18  O   UNL     1       4.504  30.330  54.991  1.00  0.00    -0.254 OA
HETATM   19  H   UNL     1       3.107  28.569  57.077  1.00  0.00     0.128 HD
HETATM   20  H   UNL     1       2.780  30.185  56.664  1.00  0.00     0.128 HD
HETATM   21  H   UNL     1       5.328  27.961  56.866  1.00  0.00     0.164 HD
ENDBRANCH   1  15
BRANCH   1  22
HETATM   22  C   UNL     1       7.739  28.332  55.843  1.00  0.00     0.134 C 
BRANCH  22  23
HETATM   23  C   UNL     1       7.623  28.678  57.312  1.00  0.00     0.238 C 
HETATM   24  N   UNL     1       7.548  30.017  57.637  1.00  0.00    -0.267 N 
HETATM   25  H   UNL     1       7.955  30.737  57.042  1.00  0.00     0.190 HD
HETATM   26  O   UNL     1       7.507  27.794  58.164  1.00  0.00    -0.272 OA
BRANCH  24  27
HETATM   27  N   UNL     1       7.561  30.326  59.012  1.00  0.00    -0.262 N 
HETATM   28  C   UNL     1       7.202  31.605  59.405  1.00  0.00     0.293 C 
HETATM   29  O   UNL     1       6.636  32.383  58.637  1.00  0.00    -0.264 OA
HETATM   30  H   UNL     1       8.238  29.817  59.583  1.00  0.00     0.190 HD
BRANCH  28  31
HETATM   31  C   UNL     1       7.558  31.923  60.771  1.00  0.00     0.144 A 
HETATM   32  O   UNL     1       6.733  32.731  61.511  1.00  0.00    -0.317 OA
HETATM   33  C   UNL     1       7.301  32.876  62.735  1.00  0.00     0.143 A 
HETATM   34  C   UNL     1       8.478  32.169  62.805  1.00  0.00     0.027 A 
HETATM   35  C   UNL     1       8.646  31.554  61.541  1.00  0.00     0.045 A 
ENDBRANCH  28  31
ENDBRANCH  24  27
ENDBRANCH  22  23
ENDBRANCH   1  22
TORSDOF 8
ENDMDL
MODEL 5
REMARK VINA RESULT:      -9.3      2.422      9.777
REMARK  8 active torsions:
REMARK  status: ('A' for Active; 'I' for Inactive)
REMARK    1  A    between atoms: C_4  and  O_5 
REMARK    2  A    between atoms: O_5  and  C_6 
REMARK    3  A    between atoms: C_8  and  C_9 
REMARK    4  A    between atoms: C_9  and  N_10 
REMARK    5  A    between atoms: C_9  and  C_14 
REMARK       I    between atoms: N_10  and  C_11 
REMARK       I    between atoms: C_11  and  N_12 
REMARK    6  A    between atoms: C_14  and  C_15 
REMARK       I    between atoms: C_15  and  N_16 
REMARK    7  A    between atoms: N_16  and  N_17 
REMARK       I    between atoms: N_17  and  C_18 
REMARK    8  A    between atoms: C_18  and  C_19 
ROOT
HETATM    1  C   UNL     1       7.459  28.770  56.873  1.00  0.00     0.127 C 
ENDROOT
BRANCH   1   2
HETATM    2  C   UNL     1       8.686  29.562  57.289  1.00  0.00    -0.032 A 
HETATM    3  C   UNL     1       8.500  30.708  58.082  1.00  0.00     0.046 A 
HETATM    4  C   UNL     1       9.584  31.486  58.493  1.00  0.00     0.076 A 
HETATM    5  C   UNL     1      10.881  31.108  58.147  1.00  0.00     0.037 A 
HETATM    6  C   UNL     1      11.080  29.989  57.338  1.00  0.00     0.003 A 
HETATM    7  C   UNL     1       9.991  29.229  56.900  1.00  0.00     0.009 A 
BRANCH   4   8
HETATM    8  O   UNL     1       9.294  32.555  59.307  1.00  0.00    -0.311 OA
BRANCH   8   9
HETATM    9  C   UNL     1       8.626  32.328  60.488  1.00  0.00     0.076 A 
HETATM   10  C   UNL     1       9.232  31.796  61.629  1.00  0.00     0.037 A 
HETATM   11  C   UNL     1       8.488  31.639  62.800  1.00  0.00     0.003 A 
HETATM   12  C   UNL     1       7.151  32.035  62.838  1.00  0.00     0.000 A 
HETATM   13  C   UNL     1       6.555  32.595  61.707  1.00  0.00     0.003 A 
HETATM   14  C   UNL     1       7.295  32.746  60.535  1.00  0.00     0.037 A 
ENDBRANCH   8   9
ENDBRANCH   4   8
ENDBRANCH   1   2
BRANCH   1  15
HETATM   15  N   UNL     1       7.605  28.416  55.466  1.00  0.00    -0.339 N 
HETATM   16  C   UNL     1       6.558  28.493  54.602  1.00  0.00     0.292 C 
HETATM   17  N   UNL     1       6.880  28.061  53.358  1.00  0.00    -0.254 NA
HETATM   18  O   UNL     1       5.442  28.902  54.878  1.00  0.00    -0.254 OA
HETATM   19  H   UNL     1       7.809  28.282  53.029  1.00  0.00     0.128 HD
HETATM   20  H   UNL     1       6.146  28.223  52.680  1.00  0.00     0.128 HD
HETATM   21  H   UNL     1       8.342  27.770  55.220  1.00  0.00     0.164 HD
ENDBRANCH   1  15
BRANCH   1  22
HETATM   22  C   UNL     1       7.127  27.532  57.715  1.00  0.00     0.134 C 
BRANCH  22  23
HETATM   23  C   UNL     1       7.662  26.212  57.201  1.00  0.00     0.238 C 
HETATM   24  N   UNL     1       6.797  25.427  56.468  1.00  0.00    -0.267 N 
HETATM   25  H   UNL     1       5.787  25.477  56.597  1.00  0.00     0.190 HD
HETATM   26  O   UNL     1       8.847  25.905  57.356  1.00  0.00    -0.272 OA
BRANCH  24  27
HETATM   27  N   UNL     1       7.272  24.152  56.099  1.00  0.00    -0.262 N 
HETATM   28  C   UNL     1       7.653  23.944  54.784  1.00  0.00     0.293 C 
HETATM   29  O   UNL     1       7.832  24.881  54.006  1.00  0.00    -0.264 OA
HETATM   30  H   UNL     1       6.896  23.361  56.625  1.00  0.00     0.190 HD
BRANCH  28  31
HETATM   31  C   UNL     1       7.806  22.550  54.429  1.00  0.00     0.144 A 
HETATM   32  O   UNL     1       7.837  22.192  53.105  1.00  0.00    -0.317 OA
HETATM   33  C   UNL     1       7.975  20.843  53.055  1.00  0.00     0.143 A 
HETATM   34  C   UNL     1       8.043  20.319  54.324  1.00  0.00     0.027 A 
HETATM   35  C   UNL     1       7.934  21.417  55.211  1.00  0.00     0.045 A 
ENDBRANCH  28  31
ENDBRANCH  24  27
ENDBRANCH  22  23
ENDBRANCH   1  22
TORSDOF 8
ENDMDL
MODEL 6
REMARK VINA RESULT:      -9.2      2.545      9.672
REMARK  8 active torsions:
REMARK  status: ('A' for Active; 'I' for Inactive)
REMARK    1  A    between atoms: C_4  and  O_5 
REMARK    2  A    between atoms: O_5  and  C_6 
REMARK    3  A    between atoms: C_8  and  C_9 
REMARK    4  A    between atoms: C_9  and  N_10 
REMARK    5  A    between atoms: C_9  and  C_14 
REMARK       I    between atoms: N_10  and  C_11 
REMARK       I    between atoms: C_11  and  N_12 
REMARK    6  A    between atoms: C_14  and  C_15 
REMARK       I    between atoms: C_15  and  N_16 
REMARK    7  A    between atoms: N_16  and  N_17 
REMARK       I    between atoms: N_17  and  C_18 
REMARK    8  A    between atoms: C_18  and  C_19 
ROOT
HETATM    1  C   UNL     1       6.631  28.494  56.285  1.00  0.00     0.127 C 
ENDROOT
BRANCH   1   2
HETATM    2  C   UNL     1       5.811  29.592  56.941  1.00  0.00    -0.032 A 
HETATM    3  C   UNL     1       6.494  30.614  57.623  1.00  0.00     0.046 A 
HETATM    4  C   UNL     1       5.802  31.649  58.255  1.00  0.00     0.076 A 
HETATM    5  C   UNL     1       4.410  31.698  58.184  1.00  0.00     0.037 A 
HETATM    6  C   UNL     1       3.717  30.676  57.534  1.00  0.00     0.003 A 
HETATM    7  C   UNL     1       4.409  29.624  56.929  1.00  0.00     0.009 A 
BRANCH   4   8
HETATM    8  O   UNL     1       6.569  32.622  58.849  1.00  0.00    -0.311 OA
BRANCH   8   9
HETATM    9  C   UNL     1       7.317  32.294  59.957  1.00  0.00     0.076 A 
HETATM   10  C   UNL     1       8.712  32.237  59.959  1.00  0.00     0.037 A 
HETATM   11  C   UNL     1       9.393  31.938  61.141  1.00  0.00     0.003 A 
HETATM   12  C   UNL     1       8.681  31.719  62.322  1.00  0.00     0.000 A 
HETATM   13  C   UNL     1       7.289  31.806  62.325  1.00  0.00     0.003 A 
HETATM   14  C   UNL     1       6.608  32.099  61.143  1.00  0.00     0.037 A 
ENDBRANCH   8   9
ENDBRANCH   4   8
ENDBRANCH   1   2
BRANCH   1  15
HETATM   15  N   UNL     1       6.720  27.377  57.218  1.00  0.00    -0.339 N 
HETATM   16  C   UNL     1       7.921  26.897  57.637  1.00  0.00     0.292 C 
HETATM   17  N   UNL     1       7.792  25.819  58.449  1.00  0.00    -0.254 NA
HETATM   18  O   UNL     1       9.010  27.359  57.339  1.00  0.00    -0.254 OA
HETATM   19  H   UNL     1       7.013  25.827  59.091  1.00  0.00     0.128 HD
HETATM   20  H   UNL     1       8.670  25.526  58.861  1.00  0.00     0.128 HD
HETATM   21  H   UNL     1       5.943  26.733  57.252  1.00  0.00     0.164 HD
ENDBRANCH   1  15
BRANCH   1  22
HETATM   22  C   UNL     1       6.155  28.018  54.907  1.00  0.00     0.134 C 
BRANCH  22  23
HETATM   23  C   UNL     1       6.164  26.521  54.679  1.00  0.00     0.238 C 
HETATM   24  N   UNL     1       7.343  25.961  54.232  1.00  0.00    -0.267 N 
HETATM   25  H   UNL     1       8.018  26.497  53.689  1.00  0.00     0.190 HD
HETATM   26  O   UNL     1       5.186  25.829  54.973  1.00  0.00    -0.272 OA
BRANCH  24  27
HETATM   27  N   UNL     1       7.300  24.589  53.912  1.00  0.00    -0.262 N 
HETATM   28  C   UNL     1       7.944  23.695  54.751  1.00  0.00     0.293 C 
HETATM   29  O   UNL     1       8.322  24.020  55.876  1.00  0.00    -0.264 OA
HETATM   30  H   UNL     1       7.233  24.359  52.918  1.00  0.00     0.190 HD
BRANCH  28  31
HETATM   31  C   UNL     1       8.127  22.379  54.178  1.00  0.00     0.144 A 
HETATM   32  O   UNL     1       8.610  21.364  54.966  1.00  0.00    -0.317 OA
HETATM   33  C   UNL     1       8.696  20.255  54.187  1.00  0.00     0.143 A 
HETATM   34  C   UNL     1       8.269  20.531  52.910  1.00  0.00     0.027 A 
HETATM   35  C   UNL     1       7.902  21.898  52.902  1.00  0.00     0.045 A 
ENDBRANCH  28  31
ENDBRANCH  24  27
ENDBRANCH  22  23
ENDBRANCH   1  22
TORSDOF 8
ENDMDL
MODEL 7
REMARK VINA RESULT:      -9.1      4.769      8.315
REMARK  8 active torsions:
REMARK  status: ('A' for Active; 'I' for Inactive)
REMARK    1  A    between atoms: C_4  and  O_5 
REMARK    2  A    between atoms: O_5  and  C_6 
REMARK    3  A    between atoms: C_8  and  C_9 
REMARK    4  A    between atoms: C_9  and  N_10 
REMARK    5  A    between atoms: C_9  and  C_14 
REMARK       I    between atoms: N_10  and  C_11 
REMARK       I    between atoms: C_11  and  N_12 
REMARK    6  A    between atoms: C_14  and  C_15 
REMARK       I    between atoms: C_15  and  N_16 
REMARK    7  A    between atoms: N_16  and  N_17 
REMARK       I    between atoms: N_17  and  C_18 
REMARK    8  A    between atoms: C_18  and  C_19 
ROOT
HETATM    1  C   UNL     1       6.445  28.703  55.678  1.00  0.00     0.127 C 
ENDROOT
BRANCH   1   2
HETATM    2  C   UNL     1       6.327  27.238  56.059  1.00  0.00    -0.032 A 
HETATM    3  C   UNL     1       7.392  26.379  55.733  1.00  0.00     0.046 A 
HETATM    4  C   UNL     1       7.345  25.020  56.048  1.00  0.00     0.076 A 
HETATM    5  C   UNL     1       6.243  24.502  56.728  1.00  0.00     0.037 A 
HETATM    6  C   UNL     1       5.167  25.336  57.033  1.00  0.00     0.003 A 
HETATM    7  C   UNL     1       5.201  26.690  56.690  1.00  0.00     0.009 A 
BRANCH   4   8
HETATM    8  O   UNL     1       8.460  24.281  55.730  1.00  0.00    -0.311 OA
BRANCH   8   9
HETATM    9  C   UNL     1       8.297  23.080  55.078  1.00  0.00     0.076 A 
HETATM   10  C   UNL     1       8.254  21.846  55.731  1.00  0.00     0.037 A 
HETATM   11  C   UNL     1       8.041  20.679  54.994  1.00  0.00     0.003 A 
HETATM   12  C   UNL     1       7.848  20.748  53.614  1.00  0.00     0.000 A 
HETATM   13  C   UNL     1       7.861  21.984  52.968  1.00  0.00     0.003 A 
HETATM   14  C   UNL     1       8.079  23.150  53.701  1.00  0.00     0.037 A 
ENDBRANCH   8   9
ENDBRANCH   4   8
ENDBRANCH   1   2
BRANCH   1  15
HETATM   15  N   UNL     1       7.808  28.943  55.218  1.00  0.00    -0.339 N 
HETATM   16  C   UNL     1       8.755  29.461  56.044  1.00  0.00     0.292 C 
HETATM   17  N   UNL     1       9.937  29.667  55.413  1.00  0.00    -0.254 NA
HETATM   18  O   UNL     1       8.597  29.720  57.227  1.00  0.00    -0.254 OA
HETATM   19  H   UNL     1      10.206  28.982  54.722  1.00  0.00     0.128 HD
HETATM   20  H   UNL     1      10.681  29.940  56.043  1.00  0.00     0.128 HD
HETATM   21  H   UNL     1       7.949  29.088  54.228  1.00  0.00     0.164 HD
ENDBRANCH   1  15
BRANCH   1  22
HETATM   22  C   UNL     1       5.426  29.228  54.659  1.00  0.00     0.134 C 
BRANCH  22  23
HETATM   23  C   UNL     1       5.411  28.536  53.313  1.00  0.00     0.238 C 
HETATM   24  N   UNL     1       4.180  28.347  52.718  1.00  0.00    -0.267 N 
HETATM   25  H   UNL     1       3.326  28.267  53.268  1.00  0.00     0.190 HD
HETATM   26  O   UNL     1       6.463  28.244  52.738  1.00  0.00    -0.272 OA
BRANCH  24  27
HETATM   27  N   UNL     1       4.174  27.597  51.524  1.00  0.00    -0.262 N 
HETATM   28  C   UNL     1       3.901  28.252  50.335  1.00  0.00     0.293 C 
HETATM   29  O   UNL     1       3.921  29.480  50.253  1.00  0.00    -0.264 OA
HETATM   30  H   UNL     1       3.903  26.616  51.609  1.00  0.00     0.190 HD
BRANCH  28  31
HETATM   31  C   UNL     1       3.592  27.367  49.233  1.00  0.00     0.144 A 
HETATM   32  O   UNL     1       2.343  27.409  48.666  1.00  0.00    -0.317 OA
HETATM   33  C   UNL     1       2.319  26.480  47.676  1.00  0.00     0.143 A 
HETATM   34  C   UNL     1       3.533  25.843  47.584  1.00  0.00     0.027 A 
HETATM   35  C   UNL     1       4.355  26.412  48.586  1.00  0.00     0.045 A 
ENDBRANCH  28  31
ENDBRANCH  24  27
ENDBRANCH  22  23
ENDBRANCH   1  22
TORSDOF 8
ENDMDL
MODEL 8
REMARK VINA RESULT:      -9.1      2.316      3.667
REMARK  8 active torsions:
REMARK  status: ('A' for Active; 'I' for Inactive)
REMARK    1  A    between atoms: C_4  and  O_5 
REMARK    2  A    between atoms: O_5  and  C_6 
REMARK    3  A    between atoms: C_8  and  C_9 
REMARK    4  A    between atoms: C_9  and  N_10 
REMARK    5  A    between atoms: C_9  and  C_14 
REMARK       I    between atoms: N_10  and  C_11 
REMARK       I    between atoms: C_11  and  N_12 
REMARK    6  A    between atoms: C_14  and  C_15 
REMARK       I    between atoms: C_15  and  N_16 
REMARK    7  A    between atoms: N_16  and  N_17 
REMARK       I    between atoms: N_17  and  C_18 
REMARK    8  A    between atoms: C_18  and  C_19 
ROOT
HETATM    1  C   UNL     1       5.907  27.120  55.443  1.00  0.00     0.127 C 
ENDROOT
BRANCH   1   2
HETATM    2  C   UNL     1       6.227  26.435  54.126  1.00  0.00    -0.032 A 
HETATM    3  C   UNL     1       7.303  25.530  54.091  1.00  0.00     0.046 A 
HETATM    4  C   UNL     1       7.656  24.872  52.912  1.00  0.00     0.076 A 
HETATM    5  C   UNL     1       6.913  25.082  51.750  1.00  0.00     0.037 A 
HETATM    6  C   UNL     1       5.860  25.997  51.762  1.00  0.00     0.003 A 
HETATM    7  C   UNL     1       5.528  26.679  52.935  1.00  0.00     0.009 A 
BRANCH   4   8
HETATM    8  O   UNL     1       8.691  23.972  53.002  1.00  0.00    -0.311 OA
BRANCH   8   9
HETATM    9  C   UNL     1       8.474  22.773  53.641  1.00  0.00     0.076 A 
HETATM   10  C   UNL     1       7.903  21.659  53.021  1.00  0.00     0.037 A 
HETATM   11  C   UNL     1       7.759  20.466  53.734  1.00  0.00     0.003 A 
HETATM   12  C   UNL     1       8.206  20.381  55.053  1.00  0.00     0.000 A 
HETATM   13  C   UNL     1       8.804  21.485  55.661  1.00  0.00     0.003 A 
HETATM   14  C   UNL     1       8.943  22.679  54.952  1.00  0.00     0.037 A 
ENDBRANCH   8   9
ENDBRANCH   4   8
ENDBRANCH   1   2
BRANCH   1  15
HETATM   15  N   UNL     1       6.904  26.705  56.423  1.00  0.00    -0.339 N 
HETATM   16  C   UNL     1       6.624  25.765  57.365  1.00  0.00     0.292 C 
HETATM   17  N   UNL     1       7.658  25.566  58.219  1.00  0.00    -0.254 NA
HETATM   18  O   UNL     1       5.575  25.149  57.460  1.00  0.00    -0.254 OA
HETATM   19  H   UNL     1       8.586  25.607  57.824  1.00  0.00     0.128 HD
HETATM   20  H   UNL     1       7.506  24.788  58.850  1.00  0.00     0.128 HD
HETATM   21  H   UNL     1       7.640  27.359  56.646  1.00  0.00     0.164 HD
ENDBRANCH   1  15
BRANCH   1  22
HETATM   22  C   UNL     1       5.782  28.648  55.405  1.00  0.00     0.134 C 
BRANCH  22  23
HETATM   23  C   UNL     1       6.029  29.370  56.713  1.00  0.00     0.238 C 
HETATM   24  N   UNL     1       7.064  30.281  56.741  1.00  0.00    -0.267 N 
HETATM   25  H   UNL     1       7.869  30.197  56.121  1.00  0.00     0.190 HD
HETATM   26  O   UNL     1       5.273  29.213  57.676  1.00  0.00    -0.272 OA
BRANCH  24  27
HETATM   27  N   UNL     1       7.355  30.855  57.995  1.00  0.00    -0.262 N 
HETATM   28  C   UNL     1       8.647  30.754  58.483  1.00  0.00     0.293 C 
HETATM   29  O   UNL     1       9.587  30.418  57.763  1.00  0.00    -0.264 OA
HETATM   30  H   UNL     1       6.585  30.888  58.666  1.00  0.00     0.190 HD
BRANCH  28  31
HETATM   31  C   UNL     1       8.771  31.070  59.890  1.00  0.00     0.144 A 
HETATM   32  O   UNL     1       8.971  30.055  60.792  1.00  0.00    -0.317 OA
HETATM   33  C   UNL     1       9.039  30.619  62.025  1.00  0.00     0.143 A 
HETATM   34  C   UNL     1       8.894  31.984  61.938  1.00  0.00     0.027 A 
HETATM   35  C   UNL     1       8.722  32.276  60.564  1.00  0.00     0.045 A 
ENDBRANCH  28  31
ENDBRANCH  24  27
ENDBRANCH  22  23
ENDBRANCH   1  22
TORSDOF 8
ENDMDL
MODEL 9
REMARK VINA RESULT:      -9.0      1.917     10.090
REMARK  8 active torsions:
REMARK  status: ('A' for Active; 'I' for Inactive)
REMARK    1  A    between atoms: C_4  and  O_5 
REMARK    2  A    between atoms: O_5  and  C_6 
REMARK    3  A    between atoms: C_8  and  C_9 
REMARK    4  A    between atoms: C_9  and  N_10 
REMARK    5  A    between atoms: C_9  and  C_14 
REMARK       I    between atoms: N_10  and  C_11 
REMARK       I    between atoms: C_11  and  N_12 
REMARK    6  A    between atoms: C_14  and  C_15 
REMARK       I    between atoms: C_15  and  N_16 
REMARK    7  A    between atoms: N_16  and  N_17 
REMARK       I    between atoms: N_17  and  C_18 
REMARK    8  A    between atoms: C_18  and  C_19 
ROOT
HETATM    1  C   UNL     1       8.136  30.601  58.453  1.00  0.00     0.127 C 
ENDROOT
BRANCH   1   2
HETATM    2  C   UNL     1       8.242  30.966  59.923  1.00  0.00    -0.032 A 
HETATM    3  C   UNL     1       7.572  32.118  60.373  1.00  0.00     0.046 A 
HETATM    4  C   UNL     1       7.634  32.514  61.710  1.00  0.00     0.076 A 
HETATM    5  C   UNL     1       8.340  31.741  62.631  1.00  0.00     0.037 A 
HETATM    6  C   UNL     1       9.031  30.610  62.196  1.00  0.00     0.003 A 
HETATM    7  C   UNL     1       8.995  30.232  60.851  1.00  0.00     0.009 A 
BRANCH   4   8
HETATM    8  O   UNL     1       6.902  33.627  62.050  1.00  0.00    -0.311 OA
BRANCH   8   9
HETATM    9  C   UNL     1       6.398  33.724  63.327  1.00  0.00     0.076 A 
HETATM   10  C   UNL     1       5.039  33.617  63.631  1.00  0.00     0.037 A 
HETATM   11  C   UNL     1       4.620  33.684  64.962  1.00  0.00     0.003 A 
HETATM   12  C   UNL     1       5.557  33.834  65.985  1.00  0.00     0.000 A 
HETATM   13  C   UNL     1       6.916  33.911  65.681  1.00  0.00     0.003 A 
HETATM   14  C   UNL     1       7.337  33.849  64.352  1.00  0.00     0.037 A 
ENDBRANCH   8   9
ENDBRANCH   4   8
ENDBRANCH   1   2
BRANCH   1  15
HETATM   15  N   UNL     1       9.426  30.074  58.024  1.00  0.00    -0.339 N 
HETATM   16  C   UNL     1      10.476  30.896  57.759  1.00  0.00     0.292 C 
HETATM   17  N   UNL     1      11.563  30.220  57.314  1.00  0.00    -0.254 NA
HETATM   18  O   UNL     1      10.477  32.109  57.896  1.00  0.00    -0.254 OA
HETATM   19  H   UNL     1      11.737  29.317  57.732  1.00  0.00     0.128 HD
HETATM   20  H   UNL     1      12.385  30.805  57.225  1.00  0.00     0.128 HD
HETATM   21  H   UNL     1       9.435  29.174  57.566  1.00  0.00     0.164 HD
ENDBRANCH   1  15
BRANCH   1  22
HETATM   22  C   UNL     1       7.001  29.646  58.066  1.00  0.00     0.134 C 
BRANCH  22  23
HETATM   23  C   UNL     1       7.418  28.339  57.423  1.00  0.00     0.238 C 
HETATM   24  N   UNL     1       7.298  28.248  56.052  1.00  0.00    -0.267 N 
HETATM   25  H   UNL     1       6.612  28.798  55.536  1.00  0.00     0.190 HD
HETATM   26  O   UNL     1       7.929  27.438  58.093  1.00  0.00    -0.272 OA
BRANCH  24  27
HETATM   27  N   UNL     1       7.577  26.988  55.484  1.00  0.00    -0.262 N 
HETATM   28  C   UNL     1       6.515  26.191  55.092  1.00  0.00     0.293 C 
HETATM   29  O   UNL     1       5.374  26.640  54.985  1.00  0.00    -0.264 OA
HETATM   30  H   UNL     1       8.435  26.531  55.800  1.00  0.00     0.190 HD
BRANCH  28  31
HETATM   31  C   UNL     1       6.876  24.813  54.837  1.00  0.00     0.144 A 
HETATM   32  O   UNL     1       7.075  23.963  55.895  1.00  0.00    -0.317 OA
HETATM   33  C   UNL     1       7.411  22.752  55.382  1.00  0.00     0.143 A 
HETATM   34  C   UNL     1       7.425  22.799  54.008  1.00  0.00     0.027 A 
HETATM   35  C   UNL     1       7.080  24.126  53.655  1.00  0.00     0.045 A 
ENDBRANCH  28  31
ENDBRANCH  24  27
ENDBRANCH  22  23
ENDBRANCH   1  22
TORSDOF 8
ENDMDL
MODEL 10
REMARK VINA RESULT:      -8.9      2.909      3.942
REMARK  8 active torsions:
REMARK  status: ('A' for Active; 'I' for Inactive)
REMARK    1  A    between atoms: C_4  and  O_5 
REMARK    2  A    between atoms: O_5  and  C_6 
REMARK    3  A    between atoms: C_8  and  C_9 
REMARK    4  A    between atoms: C_9  and  N_10 
REMARK    5  A    between atoms: C_9  and  C_14 
REMARK       I    between atoms: N_10  and  C_11 
REMARK       I    between atoms: C_11  and  N_12 
REMARK    6  A    between atoms: C_14  and  C_15 
REMARK       I    between atoms: C_15  and  N_16 
REMARK    7  A    between atoms: N_16  and  N_17 
REMARK       I    between atoms: N_17  and  C_18 
REMARK    8  A    between atoms: C_18  and  C_19 
ROOT
HETATM    1  C   UNL     1       5.235  27.982  54.610  1.00  0.00     0.127 C 
ENDROOT
BRANCH   1   2
HETATM    2  C   UNL     1       5.775  26.713  55.246  1.00  0.00    -0.032 A 
HETATM    3  C   UNL     1       6.772  25.997  54.559  1.00  0.00     0.046 A 
HETATM    4  C   UNL     1       7.306  24.819  55.083  1.00  0.00     0.076 A 
HETATM    5  C   UNL     1       6.877  24.354  56.326  1.00  0.00     0.037 A 
HETATM    6  C   UNL     1       5.869  25.038  57.007  1.00  0.00     0.003 A 
HETATM    7  C   UNL     1       5.312  26.200  56.466  1.00  0.00     0.009 A 
BRANCH   4   8
HETATM    8  O   UNL     1       8.310  24.227  54.354  1.00  0.00    -0.311 OA
BRANCH   8   9
HETATM    9  C   UNL     1       8.350  22.854  54.272  1.00  0.00     0.076 A 
HETATM   10  C   UNL     1       7.796  22.127  53.216  1.00  0.00     0.037 A 
HETATM   11  C   UNL     1       7.921  20.736  53.192  1.00  0.00     0.003 A 
HETATM   12  C   UNL     1       8.617  20.078  54.206  1.00  0.00     0.000 A 
HETATM   13  C   UNL     1       9.196  20.809  55.244  1.00  0.00     0.003 A 
HETATM   14  C   UNL     1       9.067  22.197  55.273  1.00  0.00     0.037 A 
ENDBRANCH   8   9
ENDBRANCH   4   8
ENDBRANCH   1   2
BRANCH   1  15
HETATM   15  N   UNL     1       4.500  27.607  53.407  1.00  0.00    -0.339 N 
HETATM   16  C   UNL     1       4.837  28.102  52.186  1.00  0.00     0.292 C 
HETATM   17  N   UNL     1       3.996  27.685  51.209  1.00  0.00    -0.254 NA
HETATM   18  O   UNL     1       5.784  28.837  51.958  1.00  0.00    -0.254 OA
HETATM   19  H   UNL     1       3.653  26.738  51.280  1.00  0.00     0.128 HD
HETATM   20  H   UNL     1       4.304  27.949  50.281  1.00  0.00     0.128 HD
HETATM   21  H   UNL     1       3.543  27.305  53.519  1.00  0.00     0.164 HD
ENDBRANCH   1  15
BRANCH   1  22
HETATM   22  C   UNL     1       4.385  28.888  55.509  1.00  0.00     0.134 C 
BRANCH  22  23
HETATM   23  C   UNL     1       5.145  29.772  56.475  1.00  0.00     0.238 C 
HETATM   24  N   UNL     1       6.522  29.722  56.421  1.00  0.00    -0.267 N 
HETATM   25  H   UNL     1       7.016  28.892  56.096  1.00  0.00     0.190 HD
HETATM   26  O   UNL     1       4.550  30.566  57.208  1.00  0.00    -0.272 OA
BRANCH  24  27
HETATM   27  N   UNL     1       7.211  30.460  57.405  1.00  0.00    -0.262 N 
HETATM   28  C   UNL     1       7.824  29.770  58.438  1.00  0.00     0.293 C 
HETATM   29  O   UNL     1       8.005  28.554  58.387  1.00  0.00    -0.264 OA
HETATM   30  H   UNL     1       6.860  31.401  57.592  1.00  0.00     0.190 HD
BRANCH  28  31
HETATM   31  C   UNL     1       8.211  30.605  59.554  1.00  0.00     0.144 A 
HETATM   32  O   UNL     1       8.982  30.073  60.557  1.00  0.00    -0.317 OA
HETATM   33  C   UNL     1       9.186  31.054  61.473  1.00  0.00     0.143 A 
HETATM   34  C   UNL     1       8.569  32.217  61.077  1.00  0.00     0.027 A 
HETATM   35  C   UNL     1       7.941  31.931  59.842  1.00  0.00     0.045 A 
ENDBRANCH  28  31
ENDBRANCH  24  27
ENDBRANCH  22  23
ENDBRANCH   1  22
TORSDOF 8
ENDMDL
