MODEL 1
REMARK VINA RESULT:      -8.7      0.000      0.000
REMARK  5 active torsions:
REMARK  status: ('A' for Active; 'I' for Inactive)
REMARK    1  A    between atoms: C_8  and  C_9 
REMARK    2  A    between atoms: C_9  and  N_10 
REMARK    3  A    between atoms: N_10  and  C_13 
REMARK    4  A    between atoms: C_13  and  C_14 
REMARK    5  A    between atoms: C_13  and  C_19 
ROOT
HETATM    1  N   UNL     1       7.661  26.899  56.803  1.00  0.00    -0.056 N 
HETATM    2  H   UNL     1       8.627  26.651  57.060  1.00  0.00     0.278 HD
HETATM    3  H   UNL     1       7.092  26.148  57.211  1.00  0.00     0.278 HD
ENDROOT
BRANCH   1   4
HETATM    4  C   UNL     1       7.320  28.193  57.440  1.00  0.00     0.275 C 
BRANCH   4   5
HETATM    5  C   UNL     1       8.499  29.112  57.507  1.00  0.00     0.004 A 
HETATM    6  C   UNL     1       8.457  30.288  58.241  1.00  0.00     0.113 A 
HETATM    7  C   UNL     1       9.539  31.130  58.347  1.00  0.00     0.105 A 
HETATM    8  O   UNL     1       7.368  30.760  58.916  1.00  0.00    -0.322 OA
HETATM    9  C   UNL     1      10.736  30.850  57.727  1.00  0.00     0.040 A 
HETATM   10  O   UNL     1       9.276  32.223  59.107  1.00  0.00    -0.323 OA
HETATM   11  C   UNL     1      10.822  29.670  56.984  1.00  0.00     0.003 A 
HETATM   12  C   UNL     1       9.716  28.804  56.877  1.00  0.00     0.012 A 
HETATM   13  C   UNL     1       7.920  31.964  59.514  1.00  0.00     0.352 A 
ENDBRANCH   4   5
ENDBRANCH   1   4
BRANCH   1  14
HETATM   14  C   UNL     1       7.537  26.836  55.311  1.00  0.00     0.292 C 
BRANCH  14  15
HETATM   15  C   UNL     1       6.262  27.449  54.796  1.00  0.00     0.190 A 
HETATM   16  N   UNL     1       5.058  27.000  55.188  1.00  0.00    -0.109 NA
HETATM   17  O   UNL     1       4.173  27.859  54.525  1.00  0.00    -0.205 OA
HETATM   18  C   UNL     1       4.940  28.750  53.841  1.00  0.00     0.288 A 
HETATM   19  N   UNL     1       6.229  28.563  53.996  1.00  0.00    -0.215 NA
ENDBRANCH  14  15
BRANCH  14  20
HETATM   20  C   UNL     1       7.562  25.415  54.773  1.00  0.00    -0.020 A 
HETATM   21  C   UNL     1       7.738  25.199  53.394  1.00  0.00     0.011 A 
HETATM   22  C   UNL     1       7.798  23.902  52.875  1.00  0.00     0.024 A 
HETATM   23  C   UNL     1       7.682  22.806  53.726  1.00  0.00     0.034 A 
HETATM   24 CL   UNL     1       7.758  21.213  53.087  1.00  0.00    -0.084 Cl
HETATM   25  C   UNL     1       7.503  22.996  55.093  1.00  0.00     0.024 A 
HETATM   26  C   UNL     1       7.445  24.292  55.617  1.00  0.00     0.011 A 
ENDBRANCH  14  20
ENDBRANCH   1  14
TORSDOF 5
ENDMDL
MODEL 2
REMARK VINA RESULT:      -8.6      3.655      7.305
REMARK  5 active torsions:
REMARK  status: ('A' for Active; 'I' for Inactive)
REMARK    1  A    between atoms: C_8  and  C_9 
REMARK    2  A    between atoms: C_9  and  N_10 
REMARK    3  A    between atoms: N_10  and  C_13 
REMARK    4  A    between atoms: C_13  and  C_14 
REMARK    5  A    between atoms: C_13  and  C_19 
ROOT
HETATM    1  N   UNL     1       7.867  25.757  56.392  1.00  0.00    -0.056 N 
HETATM    2  H   UNL     1       8.578  25.827  57.135  1.00  0.00     0.278 HD
HETATM    3  H   UNL     1       8.410  25.806  55.522  1.00  0.00     0.278 HD
ENDROOT
BRANCH   1   4
HETATM    4  C   UNL     1       7.201  24.437  56.499  1.00  0.00     0.275 C 
BRANCH   4   5
HETATM    5  C   UNL     1       7.501  23.562  55.323  1.00  0.00     0.004 A 
HETATM    6  C   UNL     1       7.977  22.269  55.488  1.00  0.00     0.113 A 
HETATM    7  C   UNL     1       8.227  21.434  54.424  1.00  0.00     0.105 A 
HETATM    8  O   UNL     1       8.272  21.683  56.685  1.00  0.00    -0.322 OA
HETATM    9  C   UNL     1       8.013  21.836  53.125  1.00  0.00     0.040 A 
HETATM   10  O   UNL     1       8.692  20.220  54.813  1.00  0.00    -0.323 OA
HETATM   11  C   UNL     1       7.525  23.129  52.917  1.00  0.00     0.003 A 
HETATM   12  C   UNL     1       7.266  23.985  54.005  1.00  0.00     0.012 A 
HETATM   13  C   UNL     1       8.669  20.355  56.245  1.00  0.00     0.352 A 
ENDBRANCH   4   5
ENDBRANCH   1   4
BRANCH   1  14
HETATM   14  C   UNL     1       6.979  26.961  56.471  1.00  0.00     0.292 C 
BRANCH  14  15
HETATM   15  C   UNL     1       6.450  27.397  55.131  1.00  0.00     0.190 A 
HETATM   16  N   UNL     1       5.144  27.641  54.937  1.00  0.00    -0.109 NA
HETATM   17  O   UNL     1       5.098  28.057  53.600  1.00  0.00    -0.205 OA
HETATM   18  C   UNL     1       6.382  28.053  53.152  1.00  0.00     0.288 A 
HETATM   19  N   UNL     1       7.255  27.685  54.059  1.00  0.00    -0.215 NA
ENDBRANCH  14  15
BRANCH  14  20
HETATM   20  C   UNL     1       7.678  28.176  57.057  1.00  0.00    -0.020 A 
HETATM   21  C   UNL     1       6.923  29.150  57.737  1.00  0.00     0.011 A 
HETATM   22  C   UNL     1       7.544  30.262  58.315  1.00  0.00     0.024 A 
HETATM   23  C   UNL     1       8.924  30.416  58.220  1.00  0.00     0.034 A 
HETATM   24 CL   UNL     1       9.685  31.781  58.932  1.00  0.00    -0.084 Cl
HETATM   25  C   UNL     1       9.690  29.467  57.548  1.00  0.00     0.024 A 
HETATM   26  C   UNL     1       9.074  28.352  56.971  1.00  0.00     0.011 A 
ENDBRANCH  14  20
ENDBRANCH   1  14
TORSDOF 5
ENDMDL
MODEL 3
REMARK VINA RESULT:      -8.6      1.360      2.178
REMARK  5 active torsions:
REMARK  status: ('A' for Active; 'I' for Inactive)
REMARK    1  A    between atoms: C_8  and  C_9 
REMARK    2  A    between atoms: C_9  and  N_10 
REMARK    3  A    between atoms: N_10  and  C_13 
REMARK    4  A    between atoms: C_13  and  C_14 
REMARK    5  A    between atoms: C_13  and  C_19 
ROOT
HETATM    1  N   UNL     1       6.901  26.107  56.485  1.00  0.00    -0.056 N 
HETATM    2  H   UNL     1       6.907  25.149  56.863  1.00  0.00     0.278 HD
HETATM    3  H   UNL     1       5.908  26.368  56.480  1.00  0.00     0.278 HD
ENDROOT
BRANCH   1   4
HETATM    4  C   UNL     1       7.649  26.987  57.415  1.00  0.00     0.275 C 
BRANCH   4   5
HETATM    5  C   UNL     1       6.977  28.312  57.594  1.00  0.00     0.004 A 
HETATM    6  C   UNL     1       7.679  29.423  58.040  1.00  0.00     0.113 A 
HETATM    7  C   UNL     1       7.092  30.658  58.179  1.00  0.00     0.105 A 
HETATM    8  O   UNL     1       8.994  29.431  58.407  1.00  0.00    -0.322 OA
HETATM    9  C   UNL     1       5.765  30.865  57.878  1.00  0.00     0.040 A 
HETATM   10  O   UNL     1       7.959  31.599  58.632  1.00  0.00    -0.323 OA
HETATM   11  C   UNL     1       5.025  29.773  57.418  1.00  0.00     0.003 A 
HETATM   12  C   UNL     1       5.625  28.507  57.272  1.00  0.00     0.012 A 
HETATM   13  C   UNL     1       9.177  30.838  58.725  1.00  0.00     0.352 A 
ENDBRANCH   4   5
ENDBRANCH   1   4
BRANCH   1  14
HETATM   14  C   UNL     1       7.393  26.061  55.070  1.00  0.00     0.292 C 
BRANCH  14  15
HETATM   15  C   UNL     1       6.484  26.772  54.104  1.00  0.00     0.190 A 
HETATM   16  N   UNL     1       5.188  26.441  53.984  1.00  0.00    -0.109 NA
HETATM   17  O   UNL     1       4.715  27.360  53.039  1.00  0.00    -0.205 OA
HETATM   18  C   UNL     1       5.767  28.163  52.724  1.00  0.00     0.288 A 
HETATM   19  N   UNL     1       6.869  27.865  53.371  1.00  0.00    -0.215 NA
ENDBRANCH  14  15
BRANCH  14  20
HETATM   20  C   UNL     1       7.537  24.644  54.539  1.00  0.00    -0.020 A 
HETATM   21  C   UNL     1       7.846  24.441  53.182  1.00  0.00     0.011 A 
HETATM   22  C   UNL     1       8.017  23.150  52.673  1.00  0.00     0.024 A 
HETATM   23  C   UNL     1       7.880  22.047  53.512  1.00  0.00     0.034 A 
HETATM   24 CL   UNL     1       8.093  20.462  52.885  1.00  0.00    -0.084 Cl
HETATM   25  C   UNL     1       7.570  22.224  54.857  1.00  0.00     0.024 A 
HETATM   26  C   UNL     1       7.401  23.514  55.371  1.00  0.00     0.011 A 
ENDBRANCH  14  20
ENDBRANCH   1  14
TORSDOF 5
ENDMDL
MODEL 4
REMARK VINA RESULT:      -8.6      3.225      6.867
REMARK  5 active torsions:
REMARK  status: ('A' for Active; 'I' for Inactive)
REMARK    1  A    between atoms: C_8  and  C_9 
REMARK    2  A    between atoms: C_9  and  N_10 
REMARK    3  A    between atoms: N_10  and  C_13 
REMARK    4  A    between atoms: C_13  and  C_14 
REMARK    5  A    between atoms: C_13  and  C_19 
ROOT
HETATM    1  N   UNL     1       7.295  25.562  56.592  1.00  0.00    -0.056 N 
HETATM    2  H   UNL     1       6.877  25.806  57.501  1.00  0.00     0.278 HD
HETATM    3  H   UNL     1       8.158  25.063  56.838  1.00  0.00     0.278 HD
ENDROOT
BRANCH   1   4
HETATM    4  C   UNL     1       6.372  24.649  55.876  1.00  0.00     0.275 C 
BRANCH   4   5
HETATM    5  C   UNL     1       7.105  23.691  54.992  1.00  0.00     0.004 A 
HETATM    6  C   UNL     1       7.784  22.600  55.516  1.00  0.00     0.113 A 
HETATM    7  C   UNL     1       8.435  21.686  54.721  1.00  0.00     0.105 A 
HETATM    8  O   UNL     1       7.908  22.311  56.844  1.00  0.00    -0.322 OA
HETATM    9  C   UNL     1       8.449  21.802  53.350  1.00  0.00     0.040 A 
HETATM   10  O   UNL     1       9.036  20.705  55.441  1.00  0.00    -0.323 OA
HETATM   11  C   UNL     1       7.769  22.882  52.782  1.00  0.00     0.003 A 
HETATM   12  C   UNL     1       7.098  23.818  53.593  1.00  0.00     0.012 A 
HETATM   13  C   UNL     1       8.658  21.066  56.781  1.00  0.00     0.352 A 
ENDBRANCH   4   5
ENDBRANCH   1   4
BRANCH   1  14
HETATM   14  C   UNL     1       7.661  26.831  55.884  1.00  0.00     0.292 C 
BRANCH  14  15
HETATM   15  C   UNL     1       8.026  27.949  56.822  1.00  0.00     0.190 A 
HETATM   16  N   UNL     1       7.841  27.843  58.148  1.00  0.00    -0.109 NA
HETATM   17  O   UNL     1       8.348  29.054  58.634  1.00  0.00    -0.205 OA
HETATM   18  C   UNL     1       8.816  29.736  57.554  1.00  0.00     0.288 A 
HETATM   19  N   UNL     1       8.671  29.092  56.421  1.00  0.00    -0.215 NA
ENDBRANCH  14  15
BRANCH  14  20
HETATM   20  C   UNL     1       6.538  27.369  55.013  1.00  0.00    -0.020 A 
HETATM   21  C   UNL     1       5.343  27.808  55.615  1.00  0.00     0.011 A 
HETATM   22  C   UNL     1       4.306  28.338  54.842  1.00  0.00     0.024 A 
HETATM   23  C   UNL     1       4.446  28.435  53.460  1.00  0.00     0.034 A 
HETATM   24 CL   UNL     1       3.171  29.088  52.513  1.00  0.00    -0.084 Cl
HETATM   25  C   UNL     1       5.617  28.002  52.843  1.00  0.00     0.024 A 
HETATM   26  C   UNL     1       6.658  27.474  53.613  1.00  0.00     0.011 A 
ENDBRANCH  14  20
ENDBRANCH   1  14
TORSDOF 5
ENDMDL
MODEL 5
REMARK VINA RESULT:      -8.4      4.096      7.667
REMARK  5 active torsions:
REMARK  status: ('A' for Active; 'I' for Inactive)
REMARK    1  A    between atoms: C_8  and  C_9 
REMARK    2  A    between atoms: C_9  and  N_10 
REMARK    3  A    between atoms: N_10  and  C_13 
REMARK    4  A    between atoms: C_13  and  C_14 
REMARK    5  A    between atoms: C_13  and  C_19 
ROOT
HETATM    1  N   UNL     1       6.156  25.736  51.839  1.00  0.00    -0.056 N 
HETATM    2  H   UNL     1       6.784  25.007  51.469  1.00  0.00     0.278 HD
HETATM    3  H   UNL     1       6.625  26.617  51.597  1.00  0.00     0.278 HD
ENDROOT
BRANCH   1   4
HETATM    4  C   UNL     1       4.857  25.643  51.133  1.00  0.00     0.275 C 
BRANCH   4   5
HETATM    5  C   UNL     1       4.797  26.556  49.949  1.00  0.00     0.004 A 
HETATM    6  C   UNL     1       4.082  26.216  48.810  1.00  0.00     0.113 A 
HETATM    7  C   UNL     1       3.983  27.053  47.724  1.00  0.00     0.105 A 
HETATM    8  O   UNL     1       3.423  25.036  48.614  1.00  0.00    -0.322 OA
HETATM    9  C   UNL     1       4.590  28.289  47.706  1.00  0.00     0.040 A 
HETATM   10  O   UNL     1       3.242  26.519  46.720  1.00  0.00    -0.323 OA
HETATM   11  C   UNL     1       5.313  28.673  48.839  1.00  0.00     0.003 A 
HETATM   12  C   UNL     1       5.413  27.818  49.954  1.00  0.00     0.012 A 
HETATM   13  C   UNL     1       2.841  25.266  47.302  1.00  0.00     0.352 A 
ENDBRANCH   4   5
ENDBRANCH   1   4
BRANCH   1  14
HETATM   14  C   UNL     1       6.115  25.611  53.332  1.00  0.00     0.292 C 
BRANCH  14  15
HETATM   15  C   UNL     1       6.736  26.783  54.043  1.00  0.00     0.190 A 
HETATM   16  N   UNL     1       7.893  27.325  53.626  1.00  0.00    -0.109 NA
HETATM   17  O   UNL     1       8.077  28.392  54.514  1.00  0.00    -0.205 OA
HETATM   18  C   UNL     1       6.996  28.397  55.339  1.00  0.00     0.288 A 
HETATM   19  N   UNL     1       6.127  27.450  55.075  1.00  0.00    -0.215 NA
ENDBRANCH  14  15
BRANCH  14  20
HETATM   20  C   UNL     1       6.844  24.380  53.844  1.00  0.00    -0.020 A 
HETATM   21  C   UNL     1       7.562  23.574  52.941  1.00  0.00     0.011 A 
HETATM   22  C   UNL     1       8.269  22.454  53.389  1.00  0.00     0.024 A 
HETATM   23  C   UNL     1       8.267  22.124  54.742  1.00  0.00     0.034 A 
HETATM   24 CL   UNL     1       9.138  20.749  55.290  1.00  0.00    -0.084 Cl
HETATM   25  C   UNL     1       7.559  22.904  55.652  1.00  0.00     0.024 A 
HETATM   26  C   UNL     1       6.853  24.027  55.209  1.00  0.00     0.011 A 
ENDBRANCH  14  20
ENDBRANCH   1  14
TORSDOF 5
ENDMDL
MODEL 6
REMARK VINA RESULT:      -8.4      3.266      6.583
REMARK  5 active torsions:
REMARK  status: ('A' for Active; 'I' for Inactive)
REMARK    1  A    between atoms: C_8  and  C_9 
REMARK    2  A    between atoms: C_9  and  N_10 
REMARK    3  A    between atoms: N_10  and  C_13 
REMARK    4  A    between atoms: C_13  and  C_14 
REMARK    5  A    between atoms: C_13  and  C_19 
ROOT
HETATM    1  N   UNL     1       5.211  26.087  55.240  1.00  0.00    -0.056 N 
HETATM    2  H   UNL     1       5.574  26.205  54.283  1.00  0.00     0.278 HD
HETATM    3  H   UNL     1       4.247  25.760  55.104  1.00  0.00     0.278 HD
ENDROOT
BRANCH   1   4
HETATM    4  C   UNL     1       6.008  25.040  55.923  1.00  0.00     0.275 C 
BRANCH   4   5
HETATM    5  C   UNL     1       6.809  24.227  54.956  1.00  0.00     0.004 A 
HETATM    6  C   UNL     1       7.576  23.151  55.379  1.00  0.00     0.113 A 
HETATM    7  C   UNL     1       8.292  22.367  54.505  1.00  0.00     0.105 A 
HETATM    8  O   UNL     1       7.734  22.755  56.676  1.00  0.00    -0.322 OA
HETATM    9  C   UNL     1       8.286  22.605  53.150  1.00  0.00     0.040 A 
HETATM   10  O   UNL     1       8.974  21.376  55.134  1.00  0.00    -0.323 OA
HETATM   11  C   UNL     1       7.518  23.675  52.682  1.00  0.00     0.003 A 
HETATM   12  C   UNL     1       6.781  24.477  53.574  1.00  0.00     0.012 A 
HETATM   13  C   UNL     1       8.579  21.585  56.502  1.00  0.00     0.352 A 
ENDBRANCH   4   5
ENDBRANCH   1   4
BRANCH   1  14
HETATM   14  C   UNL     1       5.171  27.432  55.900  1.00  0.00     0.292 C 
BRANCH  14  15
HETATM   15  C   UNL     1       4.410  28.460  55.106  1.00  0.00     0.190 A 
HETATM   16  N   UNL     1       4.093  29.657  55.627  1.00  0.00    -0.109 NA
HETATM   17  O   UNL     1       3.450  30.301  54.563  1.00  0.00    -0.205 OA
HETATM   18  C   UNL     1       3.486  29.438  53.512  1.00  0.00     0.288 A 
HETATM   19  N   UNL     1       4.090  28.305  53.781  1.00  0.00    -0.215 NA
ENDBRANCH  14  15
BRANCH  14  20
HETATM   20  C   UNL     1       6.554  28.022  56.126  1.00  0.00    -0.020 A 
HETATM   21  C   UNL     1       7.012  28.230  57.441  1.00  0.00     0.011 A 
HETATM   22  C   UNL     1       8.291  28.740  57.679  1.00  0.00     0.024 A 
HETATM   23  C   UNL     1       9.128  29.051  56.611  1.00  0.00     0.034 A 
HETATM   24 CL   UNL     1      10.700  29.676  56.907  1.00  0.00    -0.084 Cl
HETATM   25  C   UNL     1       8.693  28.859  55.302  1.00  0.00     0.024 A 
HETATM   26  C   UNL     1       7.415  28.345  55.058  1.00  0.00     0.011 A 
ENDBRANCH  14  20
ENDBRANCH   1  14
TORSDOF 5
ENDMDL
MODEL 7
REMARK VINA RESULT:      -8.4      4.000      7.258
REMARK  5 active torsions:
REMARK  status: ('A' for Active; 'I' for Inactive)
REMARK    1  A    between atoms: C_8  and  C_9 
REMARK    2  A    between atoms: C_9  and  N_10 
REMARK    3  A    between atoms: N_10  and  C_13 
REMARK    4  A    between atoms: C_13  and  C_14 
REMARK    5  A    between atoms: C_13  and  C_19 
ROOT
HETATM    1  N   UNL     1       7.075  24.822  55.881  1.00  0.00    -0.056 N 
HETATM    2  H   UNL     1       6.605  23.939  56.127  1.00  0.00     0.278 HD
HETATM    3  H   UNL     1       7.629  25.052  56.714  1.00  0.00     0.278 HD
ENDROOT
BRANCH   1   4
HETATM    4  C   UNL     1       7.974  24.575  54.729  1.00  0.00     0.275 C 
BRANCH   4   5
HETATM    5  C   UNL     1       8.030  23.126  54.364  1.00  0.00     0.004 A 
HETATM    6  C   UNL     1       8.187  22.143  55.331  1.00  0.00     0.113 A 
HETATM    7  C   UNL     1       8.207  20.803  55.025  1.00  0.00     0.105 A 
HETATM    8  O   UNL     1       8.359  22.370  56.667  1.00  0.00    -0.322 OA
HETATM    9  C   UNL     1       8.067  20.356  53.730  1.00  0.00     0.040 A 
HETATM   10  O   UNL     1       8.376  20.020  56.121  1.00  0.00    -0.323 OA
HETATM   11  C   UNL     1       7.898  21.314  52.727  1.00  0.00     0.003 A 
HETATM   12  C   UNL     1       7.874  22.687  53.039  1.00  0.00     0.012 A 
HETATM   13  C   UNL     1       8.417  21.006  57.168  1.00  0.00     0.352 A 
ENDBRANCH   4   5
ENDBRANCH   1   4
BRANCH   1  14
HETATM   14  C   UNL     1       6.028  25.879  55.697  1.00  0.00     0.292 C 
BRANCH  14  15
HETATM   15  C   UNL     1       5.832  26.274  54.258  1.00  0.00     0.190 A 
HETATM   16  N   UNL     1       4.936  25.652  53.474  1.00  0.00    -0.109 NA
HETATM   17  O   UNL     1       5.041  26.348  52.263  1.00  0.00    -0.205 OA
HETATM   18  C   UNL     1       5.957  27.333  52.465  1.00  0.00     0.288 A 
HETATM   19  N   UNL     1       6.452  27.352  53.679  1.00  0.00    -0.215 NA
ENDBRANCH  14  15
BRANCH  14  20
HETATM   20  C   UNL     1       6.347  27.165  56.441  1.00  0.00    -0.020 A 
HETATM   21  C   UNL     1       5.335  28.126  56.630  1.00  0.00     0.011 A 
HETATM   22  C   UNL     1       5.591  29.303  57.340  1.00  0.00     0.024 A 
HETATM   23  C   UNL     1       6.858  29.537  57.867  1.00  0.00     0.034 A 
HETATM   24 CL   UNL     1       7.169  30.983  58.741  1.00  0.00    -0.084 Cl
HETATM   25  C   UNL     1       7.875  28.603  57.688  1.00  0.00     0.024 A 
HETATM   26  C   UNL     1       7.623  27.423  56.982  1.00  0.00     0.011 A 
ENDBRANCH  14  20
ENDBRANCH   1  14
TORSDOF 5
ENDMDL
MODEL 8
REMARK VINA RESULT:      -8.3      4.095      7.241
REMARK  5 active torsions:
REMARK  status: ('A' for Active; 'I' for Inactive)
REMARK    1  A    between atoms: C_8  and  C_9 
REMARK    2  A    between atoms: C_9  and  N_10 
REMARK    3  A    between atoms: N_10  and  C_13 
REMARK    4  A    between atoms: C_13  and  C_14 
REMARK    5  A    between atoms: C_13  and  C_19 
ROOT
HETATM    1  N   UNL     1       6.103  24.508  54.131  1.00  0.00    -0.056 N 
HETATM    2  H   UNL     1       5.816  24.168  53.201  1.00  0.00     0.278 HD
HETATM    3  H   UNL     1       5.612  23.889  54.786  1.00  0.00     0.278 HD
ENDROOT
BRANCH   1   4
HETATM    4  C   UNL     1       7.568  24.328  54.268  1.00  0.00     0.275 C 
BRANCH   4   5
HETATM    5  C   UNL     1       7.912  23.056  54.976  1.00  0.00     0.004 A 
HETATM    6  C   UNL     1       8.146  21.881  54.276  1.00  0.00     0.113 A 
HETATM    7  C   UNL     1       8.499  20.708  54.901  1.00  0.00     0.105 A 
HETATM    8  O   UNL     1       8.041  21.733  52.922  1.00  0.00    -0.322 OA
HETATM    9  C   UNL     1       8.642  20.633  56.268  1.00  0.00     0.040 A 
HETATM   10  O   UNL     1       8.674  19.684  54.027  1.00  0.00    -0.323 OA
HETATM   11  C   UNL     1       8.423  21.797  57.009  1.00  0.00     0.003 A 
HETATM   12  C   UNL     1       8.066  23.001  56.371  1.00  0.00     0.012 A 
HETATM   13  C   UNL     1       8.439  20.343  52.770  1.00  0.00     0.352 A 
ENDBRANCH   4   5
ENDBRANCH   1   4
BRANCH   1  14
HETATM   14  C   UNL     1       5.582  25.902  54.306  1.00  0.00     0.292 C 
BRANCH  14  15
HETATM   15  C   UNL     1       5.336  26.612  53.002  1.00  0.00     0.190 A 
HETATM   16  N   UNL     1       5.882  26.180  51.853  1.00  0.00    -0.109 NA
HETATM   17  O   UNL     1       5.367  27.074  50.906  1.00  0.00    -0.205 OA
HETATM   18  C   UNL     1       4.541  27.917  51.582  1.00  0.00     0.288 A 
HETATM   19  N   UNL     1       4.462  27.660  52.866  1.00  0.00    -0.215 NA
ENDBRANCH  14  15
BRANCH  14  20
HETATM   20  C   UNL     1       6.529  26.793  55.093  1.00  0.00    -0.020 A 
HETATM   21  C   UNL     1       6.647  26.623  56.485  1.00  0.00     0.011 A 
HETATM   22  C   UNL     1       7.534  27.406  57.229  1.00  0.00     0.024 A 
HETATM   23  C   UNL     1       8.313  28.370  56.594  1.00  0.00     0.034 A 
HETATM   24 CL   UNL     1       9.403  29.330  57.510  1.00  0.00    -0.084 Cl
HETATM   25  C   UNL     1       8.209  28.560  55.219  1.00  0.00     0.024 A 
HETATM   26  C   UNL     1       7.325  27.776  54.470  1.00  0.00     0.011 A 
ENDBRANCH  14  20
ENDBRANCH   1  14
TORSDOF 5
ENDMDL
MODEL 9
REMARK VINA RESULT:      -8.3      5.056      7.429
REMARK  5 active torsions:
REMARK  status: ('A' for Active; 'I' for Inactive)
REMARK    1  A    between atoms: C_8  and  C_9 
REMARK    2  A    between atoms: C_9  and  N_10 
REMARK    3  A    between atoms: N_10  and  C_13 
REMARK    4  A    between atoms: C_13  and  C_14 
REMARK    5  A    between atoms: C_13  and  C_19 
ROOT
HETATM    1  N   UNL     1       7.385  31.882  60.483  1.00  0.00    -0.056 N 
HETATM    2  H   UNL     1       6.385  32.125  60.514  1.00  0.00     0.278 HD
HETATM    3  H   UNL     1       7.848  32.755  60.205  1.00  0.00     0.278 HD
ENDROOT
BRANCH   1   4
HETATM    4  C   UNL     1       7.820  31.491  61.845  1.00  0.00     0.275 C 
BRANCH   4   5
HETATM    5  C   UNL     1       7.131  32.293  62.904  1.00  0.00     0.004 A 
HETATM    6  C   UNL     1       5.767  32.541  62.848  1.00  0.00     0.113 A 
HETATM    7  C   UNL     1       5.105  33.244  63.827  1.00  0.00     0.105 A 
HETATM    8  O   UNL     1       4.934  32.151  61.839  1.00  0.00    -0.322 OA
HETATM    9  C   UNL     1       5.763  33.743  64.928  1.00  0.00     0.040 A 
HETATM   10  O   UNL     1       3.779  33.373  63.569  1.00  0.00    -0.323 OA
HETATM   11  C   UNL     1       7.137  33.507  65.026  1.00  0.00     0.003 A 
HETATM   12  C   UNL     1       7.816  32.784  64.027  1.00  0.00     0.012 A 
HETATM   13  C   UNL     1       3.657  32.636  62.340  1.00  0.00     0.352 A 
ENDBRANCH   4   5
ENDBRANCH   1   4
BRANCH   1  14
HETATM   14  C   UNL     1       7.591  30.866  59.400  1.00  0.00     0.292 C 
BRANCH  14  15
HETATM   15  C   UNL     1       8.899  31.031  58.673  1.00  0.00     0.190 A 
HETATM   16  N   UNL     1       9.638  32.145  58.801  1.00  0.00    -0.109 NA
HETATM   17  O   UNL     1      10.764  31.865  58.017  1.00  0.00    -0.205 OA
HETATM   18  C   UNL     1      10.596  30.604  57.538  1.00  0.00     0.288 A 
HETATM   19  N   UNL     1       9.482  30.034  57.934  1.00  0.00    -0.215 NA
ENDBRANCH  14  15
BRANCH  14  20
HETATM   20  C   UNL     1       6.512  30.913  58.331  1.00  0.00    -0.020 A 
HETATM   21  C   UNL     1       6.162  29.734  57.646  1.00  0.00     0.011 A 
HETATM   22  C   UNL     1       5.151  29.741  56.681  1.00  0.00     0.024 A 
HETATM   23  C   UNL     1       4.478  30.923  56.387  1.00  0.00     0.034 A 
HETATM   24 CL   UNL     1       3.234  30.929  55.202  1.00  0.00    -0.084 Cl
HETATM   25  C   UNL     1       4.810  32.102  57.048  1.00  0.00     0.024 A 
HETATM   26  C   UNL     1       5.820  32.100  58.016  1.00  0.00     0.011 A 
ENDBRANCH  14  20
ENDBRANCH   1  14
TORSDOF 5
ENDMDL
MODEL 10
REMARK VINA RESULT:      -8.2      3.229      6.035
REMARK  5 active torsions:
REMARK  status: ('A' for Active; 'I' for Inactive)
REMARK    1  A    between atoms: C_8  and  C_9 
REMARK    2  A    between atoms: C_9  and  N_10 
REMARK    3  A    between atoms: N_10  and  C_13 
REMARK    4  A    between atoms: C_13  and  C_14 
REMARK    5  A    between atoms: C_13  and  C_19 
ROOT
HETATM    1  N   UNL     1       4.921  26.443  55.751  1.00  0.00    -0.056 N 
HETATM    2  H   UNL     1       5.517  26.338  54.917  1.00  0.00     0.278 HD
HETATM    3  H   UNL     1       3.968  26.299  55.398  1.00  0.00     0.278 HD
ENDROOT
BRANCH   1   4
HETATM    4  C   UNL     1       5.268  25.373  56.717  1.00  0.00     0.275 C 
BRANCH   4   5
HETATM    5  C   UNL     1       6.618  24.789  56.444  1.00  0.00     0.004 A 
HETATM    6  C   UNL     1       6.943  24.272  55.199  1.00  0.00     0.113 A 
HETATM    7  C   UNL     1       8.188  23.763  54.913  1.00  0.00     0.105 A 
HETATM    8  O   UNL     1       6.093  24.184  54.134  1.00  0.00    -0.322 OA
HETATM    9  C   UNL     1       9.192  23.740  55.855  1.00  0.00     0.040 A 
HETATM   10  O   UNL     1       8.285  23.306  53.639  1.00  0.00    -0.323 OA
HETATM   11  C   UNL     1       8.908  24.260  57.120  1.00  0.00     0.003 A 
HETATM   12  C   UNL     1       7.635  24.785  57.414  1.00  0.00     0.012 A 
HETATM   13  C   UNL     1       6.978  23.621  53.126  1.00  0.00     0.352 A 
ENDBRANCH   4   5
ENDBRANCH   1   4
BRANCH   1  14
HETATM   14  C   UNL     1       5.042  27.853  56.245  1.00  0.00     0.292 C 
BRANCH  14  15
HETATM   15  C   UNL     1       4.416  28.861  55.319  1.00  0.00     0.190 A 
HETATM   16  N   UNL     1       4.311  30.156  55.658  1.00  0.00    -0.109 NA
HETATM   17  O   UNL     1       3.731  30.732  54.521  1.00  0.00    -0.205 OA
HETATM   18  C   UNL     1       3.589  29.730  53.612  1.00  0.00     0.288 A 
HETATM   19  N   UNL     1       4.021  28.567  54.039  1.00  0.00    -0.215 NA
ENDBRANCH  14  15
BRANCH  14  20
HETATM   20  C   UNL     1       6.484  28.295  56.429  1.00  0.00    -0.020 A 
HETATM   21  C   UNL     1       7.331  28.378  55.308  1.00  0.00     0.011 A 
HETATM   22  C   UNL     1       8.653  28.813  55.442  1.00  0.00     0.024 A 
HETATM   23  C   UNL     1       9.146  29.169  56.695  1.00  0.00     0.034 A 
HETATM   24 CL   UNL     1      10.769  29.706  56.857  1.00  0.00    -0.084 Cl
HETATM   25  C   UNL     1       8.327  29.089  57.818  1.00  0.00     0.024 A 
HETATM   26  C   UNL     1       7.003  28.657  57.688  1.00  0.00     0.011 A 
ENDBRANCH  14  20
ENDBRANCH   1  14
TORSDOF 5
ENDMDL
