MODEL 1
REMARK VINA RESULT:      -8.6      0.000      0.000
REMARK  5 active torsions:
REMARK  status: ('A' for Active; 'I' for Inactive)
REMARK    1  A    between atoms: N_2  and  C_4 
REMARK    2  A    between atoms: C_4  and  C_5 
REMARK    3  A    between atoms: C_8  and  C_9 
REMARK    4  A    between atoms: C_9  and  N_10 
REMARK       I    between atoms: N_10  and  C_11 
REMARK       I    between atoms: C_11  and  N_12 
REMARK    5  A    between atoms: N_12  and  C_13 
ROOT
HETATM    1  N   UNL     1       8.610  30.621  60.649  1.00  0.00    -0.339 N 
HETATM    2  C   UNL     1       8.654  31.553  59.660  1.00  0.00     0.322 C 
HETATM    3  N   UNL     1       8.261  31.179  58.416  1.00  0.00    -0.287 N 
HETATM    4  O   UNL     1       9.051  32.703  59.847  1.00  0.00    -0.247 OA
HETATM    5  H   UNL     1       8.251  29.702  60.404  1.00  0.00     0.164 HD
HETATM    6  H   UNL     1       8.311  31.892  57.704  1.00  0.00     0.172 HD
ENDROOT
BRANCH   1   7
HETATM    7  C   UNL     1       8.840  30.937  62.037  1.00  0.00     0.162 C 
BRANCH   7   8
HETATM    8  C   UNL     1       7.720  31.713  62.695  1.00  0.00    -0.040 A 
HETATM    9  C   UNL     1       6.372  31.430  62.444  1.00  0.00     0.009 A 
HETATM   10  C   UNL     1       5.355  32.096  63.133  1.00  0.00     0.009 A 
HETATM   11  C   UNL     1       5.667  33.051  64.109  1.00  0.00    -0.033 A 
HETATM   12  C   UNL     1       7.014  33.344  64.363  1.00  0.00     0.009 A 
HETATM   13  C   UNL     1       8.026  32.679  63.664  1.00  0.00     0.009 A 
BRANCH  11  14
HETATM   14  C   UNL     1       4.576  33.702  64.914  1.00  0.00     0.272 C 
BRANCH  14  15
HETATM   15  N   UNL     1       5.109  34.660  65.959  1.00  0.00    -0.075 N 
HETATM   16  C   UNL     1       4.831  34.212  67.367  1.00  0.00     0.269 C 
HETATM   17  H   UNL     1       6.130  34.661  65.851  1.00  0.00     0.279 HD
HETATM   18  C   UNL     1       4.632  36.062  65.720  1.00  0.00     0.269 C 
ENDBRANCH  14  15
ENDBRANCH  11  14
ENDBRANCH   7   8
ENDBRANCH   1   7
BRANCH   3  19
HETATM   19  C   UNL     1       7.725  29.974  58.067  1.00  0.00     0.175 A 
HETATM   20  S   UNL     1       6.136  30.056  57.468  1.00  0.00    -0.050 SA
HETATM   21  C   UNL     1       6.122  28.339  57.312  1.00  0.00     0.037 A 
HETATM   22  C   UNL     1       7.359  27.837  57.727  1.00  0.00     0.076 A 
HETATM   23  C   UNL     1       5.091  27.500  56.860  1.00  0.00     0.021 A 
HETATM   24  N   UNL     1       8.277  28.790  58.151  1.00  0.00    -0.223 NA
HETATM   25  C   UNL     1       7.570  26.443  57.689  1.00  0.00     0.033 A 
HETATM   26  C   UNL     1       6.548  25.598  57.242  1.00  0.00     0.002 A 
HETATM   27  C   UNL     1       5.325  26.121  56.834  1.00  0.00     0.002 A 
ENDBRANCH   3  19
TORSDOF 5
ENDMDL
MODEL 2
REMARK VINA RESULT:      -8.4      8.022     11.636
REMARK  5 active torsions:
REMARK  status: ('A' for Active; 'I' for Inactive)
REMARK    1  A    between atoms: N_2  and  C_4 
REMARK    2  A    between atoms: C_4  and  C_5 
REMARK    3  A    between atoms: C_8  and  C_9 
REMARK    4  A    between atoms: C_9  and  N_10 
REMARK       I    between atoms: N_10  and  C_11 
REMARK       I    between atoms: C_11  and  N_12 
REMARK    5  A    between atoms: N_12  and  C_13 
ROOT
HETATM    1  N   UNL     1       6.153  26.374  55.107  1.00  0.00    -0.339 N 
HETATM    2  C   UNL     1       7.061  26.626  56.087  1.00  0.00     0.322 C 
HETATM    3  N   UNL     1       7.914  25.628  56.434  1.00  0.00    -0.287 N 
HETATM    4  O   UNL     1       7.124  27.704  56.674  1.00  0.00    -0.247 OA
HETATM    5  H   UNL     1       6.188  25.458  54.665  1.00  0.00     0.164 HD
HETATM    6  H   UNL     1       8.571  25.845  57.168  1.00  0.00     0.172 HD
ENDROOT
BRANCH   1   7
HETATM    7  C   UNL     1       5.311  27.395  54.535  1.00  0.00     0.162 C 
BRANCH   7   8
HETATM    8  C   UNL     1       5.128  27.287  53.037  1.00  0.00    -0.040 A 
HETATM    9  C   UNL     1       5.533  26.156  52.318  1.00  0.00     0.009 A 
HETATM   10  C   UNL     1       5.270  26.039  50.951  1.00  0.00     0.009 A 
HETATM   11  C   UNL     1       4.573  27.047  50.273  1.00  0.00    -0.033 A 
HETATM   12  C   UNL     1       4.168  28.185  50.984  1.00  0.00     0.009 A 
HETATM   13  C   UNL     1       4.441  28.300  52.351  1.00  0.00     0.009 A 
BRANCH  11  14
HETATM   14  C   UNL     1       4.210  26.880  48.824  1.00  0.00     0.272 C 
BRANCH  14  15
HETATM   15  N   UNL     1       2.862  26.218  48.628  1.00  0.00    -0.075 N 
HETATM   16  C   UNL     1       2.934  24.966  47.799  1.00  0.00     0.269 C 
HETATM   17  H   UNL     1       2.547  25.930  49.561  1.00  0.00     0.279 HD
HETATM   18  C   UNL     1       1.845  27.180  48.088  1.00  0.00     0.269 C 
ENDBRANCH  14  15
ENDBRANCH  11  14
ENDBRANCH   7   8
ENDBRANCH   1   7
BRANCH   3  19
HETATM   19  C   UNL     1       8.022  24.410  55.828  1.00  0.00     0.175 A 
HETATM   20  S   UNL     1       8.371  23.126  56.885  1.00  0.00    -0.050 SA
HETATM   21  C   UNL     1       8.407  22.048  55.539  1.00  0.00     0.037 A 
HETATM   22  C   UNL     1       8.133  22.770  54.374  1.00  0.00     0.076 A 
HETATM   23  C   UNL     1       8.662  20.667  55.518  1.00  0.00     0.021 A 
HETATM   24  N   UNL     1       7.905  24.129  54.555  1.00  0.00    -0.223 NA
HETATM   25  C   UNL     1       8.117  22.085  53.142  1.00  0.00     0.033 A 
HETATM   26  C   UNL     1       8.372  20.709  53.109  1.00  0.00     0.002 A 
HETATM   27  C   UNL     1       8.641  20.012  54.282  1.00  0.00     0.002 A 
ENDBRANCH   3  19
TORSDOF 5
ENDMDL
MODEL 3
REMARK VINA RESULT:      -8.4      4.036      6.811
REMARK  5 active torsions:
REMARK  status: ('A' for Active; 'I' for Inactive)
REMARK    1  A    between atoms: N_2  and  C_4 
REMARK    2  A    between atoms: C_4  and  C_5 
REMARK    3  A    between atoms: C_8  and  C_9 
REMARK    4  A    between atoms: C_9  and  N_10 
REMARK       I    between atoms: N_10  and  C_11 
REMARK       I    between atoms: C_11  and  N_12 
REMARK    5  A    between atoms: N_12  and  C_13 
ROOT
HETATM    1  N   UNL     1       6.462  26.772  55.261  1.00  0.00    -0.339 N 
HETATM    2  C   UNL     1       6.958  26.911  54.004  1.00  0.00     0.322 C 
HETATM    3  N   UNL     1       7.653  25.870  53.476  1.00  0.00    -0.287 N 
HETATM    4  O   UNL     1       6.818  27.938  53.342  1.00  0.00    -0.247 OA
HETATM    5  H   UNL     1       6.612  25.879  55.724  1.00  0.00     0.164 HD
HETATM    6  H   UNL     1       8.013  26.007  52.544  1.00  0.00     0.172 HD
ENDROOT
BRANCH   1   7
HETATM    7  C   UNL     1       5.570  27.733  55.864  1.00  0.00     0.162 C 
BRANCH   7   8
HETATM    8  C   UNL     1       6.252  28.726  56.781  1.00  0.00    -0.040 A 
HETATM    9  C   UNL     1       5.679  29.966  57.090  1.00  0.00     0.009 A 
HETATM   10  C   UNL     1       6.281  30.827  58.011  1.00  0.00     0.009 A 
HETATM   11  C   UNL     1       7.464  30.456  58.662  1.00  0.00    -0.033 A 
HETATM   12  C   UNL     1       8.046  29.219  58.354  1.00  0.00     0.009 A 
HETATM   13  C   UNL     1       7.443  28.365  57.425  1.00  0.00     0.009 A 
BRANCH  11  14
HETATM   14  C   UNL     1       8.062  31.342  59.720  1.00  0.00     0.272 C 
BRANCH  14  15
HETATM   15  N   UNL     1       7.933  30.764  61.113  1.00  0.00    -0.075 N 
HETATM   16  C   UNL     1       7.088  31.609  62.027  1.00  0.00     0.269 C 
HETATM   17  H   UNL     1       7.439  29.870  61.007  1.00  0.00     0.279 HD
HETATM   18  C   UNL     1       9.273  30.467  61.718  1.00  0.00     0.269 C 
ENDBRANCH  14  15
ENDBRANCH  11  14
ENDBRANCH   7   8
ENDBRANCH   1   7
BRANCH   3  19
HETATM   19  C   UNL     1       7.826  24.643  54.048  1.00  0.00     0.175 A 
HETATM   20  S   UNL     1       7.649  23.336  52.975  1.00  0.00    -0.050 SA
HETATM   21  C   UNL     1       7.924  22.245  54.282  1.00  0.00     0.037 A 
HETATM   22  C   UNL     1       8.143  22.985  55.449  1.00  0.00     0.076 A 
HETATM   23  C   UNL     1       7.939  20.842  54.276  1.00  0.00     0.021 A 
HETATM   24  N   UNL     1       8.093  24.365  55.299  1.00  0.00    -0.223 NA
HETATM   25  C   UNL     1       8.385  22.291  56.653  1.00  0.00     0.033 A 
HETATM   26  C   UNL     1       8.400  20.892  56.658  1.00  0.00     0.002 A 
HETATM   27  C   UNL     1       8.180  20.179  55.484  1.00  0.00     0.002 A 
ENDBRANCH   3  19
TORSDOF 5
ENDMDL
MODEL 4
REMARK VINA RESULT:      -8.2      3.420     10.058
REMARK  5 active torsions:
REMARK  status: ('A' for Active; 'I' for Inactive)
REMARK    1  A    between atoms: N_2  and  C_4 
REMARK    2  A    between atoms: C_4  and  C_5 
REMARK    3  A    between atoms: C_8  and  C_9 
REMARK    4  A    between atoms: C_9  and  N_10 
REMARK       I    between atoms: N_10  and  C_11 
REMARK       I    between atoms: C_11  and  N_12 
REMARK    5  A    between atoms: N_12  and  C_13 
ROOT
HETATM    1  N   UNL     1       6.113  27.992  57.317  1.00  0.00    -0.339 N 
HETATM    2  C   UNL     1       6.704  28.729  56.340  1.00  0.00     0.322 C 
HETATM    3  N   UNL     1       7.368  29.855  56.707  1.00  0.00    -0.287 N 
HETATM    4  O   UNL     1       6.643  28.425  55.150  1.00  0.00    -0.247 OA
HETATM    5  H   UNL     1       6.232  28.312  58.276  1.00  0.00     0.164 HD
HETATM    6  H   UNL     1       7.791  30.382  55.957  1.00  0.00     0.172 HD
ENDROOT
BRANCH   1   7
HETATM    7  C   UNL     1       5.525  26.697  57.079  1.00  0.00     0.162 C 
BRANCH   7   8
HETATM    8  C   UNL     1       6.491  25.663  56.541  1.00  0.00    -0.040 A 
HETATM    9  C   UNL     1       7.634  25.274  57.250  1.00  0.00     0.009 A 
HETATM   10  C   UNL     1       8.461  24.251  56.779  1.00  0.00     0.009 A 
HETATM   11  C   UNL     1       8.148  23.577  55.591  1.00  0.00    -0.033 A 
HETATM   12  C   UNL     1       7.009  23.963  54.873  1.00  0.00     0.009 A 
HETATM   13  C   UNL     1       6.190  24.994  55.346  1.00  0.00     0.009 A 
BRANCH  11  14
HETATM   14  C   UNL     1       8.987  22.416  55.131  1.00  0.00     0.272 C 
BRANCH  14  15
HETATM   15  N   UNL     1       8.177  21.155  54.917  1.00  0.00    -0.075 N 
HETATM   16  C   UNL     1       8.015  20.337  56.169  1.00  0.00     0.269 C 
HETATM   17  H   UNL     1       7.235  21.462  54.648  1.00  0.00     0.279 HD
HETATM   18  C   UNL     1       8.719  20.332  53.786  1.00  0.00     0.269 C 
ENDBRANCH  14  15
ENDBRANCH  11  14
ENDBRANCH   7   8
ENDBRANCH   1   7
BRANCH   3  19
HETATM   19  C   UNL     1       7.591  30.281  57.983  1.00  0.00     0.175 A 
HETATM   20  S   UNL     1       6.574  31.545  58.491  1.00  0.00    -0.050 SA
HETATM   21  C   UNL     1       7.395  31.577  60.007  1.00  0.00     0.037 A 
HETATM   22  C   UNL     1       8.389  30.593  60.004  1.00  0.00     0.076 A 
HETATM   23  C   UNL     1       7.177  32.412  61.114  1.00  0.00     0.021 A 
HETATM   24  N   UNL     1       8.485  29.848  58.836  1.00  0.00    -0.223 NA
HETATM   25  C   UNL     1       9.195  30.443  61.151  1.00  0.00     0.033 A 
HETATM   26  C   UNL     1       8.988  31.272  62.259  1.00  0.00     0.002 A 
HETATM   27  C   UNL     1       7.992  32.243  62.239  1.00  0.00     0.002 A 
ENDBRANCH   3  19
TORSDOF 5
ENDMDL
MODEL 5
REMARK VINA RESULT:      -8.1      7.333     10.401
REMARK  5 active torsions:
REMARK  status: ('A' for Active; 'I' for Inactive)
REMARK    1  A    between atoms: N_2  and  C_4 
REMARK    2  A    between atoms: C_4  and  C_5 
REMARK    3  A    between atoms: C_8  and  C_9 
REMARK    4  A    between atoms: C_9  and  N_10 
REMARK       I    between atoms: N_10  and  C_11 
REMARK       I    between atoms: C_11  and  N_12 
REMARK    5  A    between atoms: N_12  and  C_13 
ROOT
HETATM    1  N   UNL     1       6.630  26.691  56.391  1.00  0.00    -0.339 N 
HETATM    2  C   UNL     1       7.645  26.583  57.287  1.00  0.00     0.322 C 
HETATM    3  N   UNL     1       8.371  25.435  57.289  1.00  0.00    -0.287 N 
HETATM    4  O   UNL     1       7.914  27.468  58.098  1.00  0.00    -0.247 OA
HETATM    5  H   UNL     1       6.493  25.915  55.747  1.00  0.00     0.164 HD
HETATM    6  H   UNL     1       9.114  25.384  57.970  1.00  0.00     0.172 HD
ENDROOT
BRANCH   1   7
HETATM    7  C   UNL     1       5.898  27.915  56.177  1.00  0.00     0.162 C 
BRANCH   7   8
HETATM    8  C   UNL     1       5.439  28.127  54.750  1.00  0.00    -0.040 A 
HETATM    9  C   UNL     1       6.274  27.874  53.655  1.00  0.00     0.009 A 
HETATM   10  C   UNL     1       5.800  27.986  52.346  1.00  0.00     0.009 A 
HETATM   11  C   UNL     1       4.465  28.336  52.102  1.00  0.00    -0.033 A 
HETATM   12  C   UNL     1       3.624  28.596  53.192  1.00  0.00     0.009 A 
HETATM   13  C   UNL     1       4.107  28.489  54.500  1.00  0.00     0.009 A 
BRANCH  11  14
HETATM   14  C   UNL     1       3.931  28.369  50.697  1.00  0.00     0.272 C 
BRANCH  14  15
HETATM   15  N   UNL     1       4.923  27.845  49.679  1.00  0.00    -0.075 N 
HETATM   16  C   UNL     1       5.392  28.900  48.715  1.00  0.00     0.269 C 
HETATM   17  H   UNL     1       5.750  27.551  50.211  1.00  0.00     0.279 HD
HETATM   18  C   UNL     1       4.397  26.637  48.962  1.00  0.00     0.269 C 
ENDBRANCH  14  15
ENDBRANCH  11  14
ENDBRANCH   7   8
ENDBRANCH   1   7
BRANCH   3  19
HETATM   19  C   UNL     1       8.250  24.401  56.408  1.00  0.00     0.175 A 
HETATM   20  S   UNL     1       8.310  22.859  57.119  1.00  0.00    -0.050 SA
HETATM   21  C   UNL     1       8.162  22.148  55.555  1.00  0.00     0.037 A 
HETATM   22  C   UNL     1       8.066  23.167  54.602  1.00  0.00     0.076 A 
HETATM   23  C   UNL     1       8.138  20.790  55.199  1.00  0.00     0.021 A 
HETATM   24  N   UNL     1       8.108  24.460  55.107  1.00  0.00    -0.223 NA
HETATM   25  C   UNL     1       7.943  22.812  53.244  1.00  0.00     0.033 A 
HETATM   26  C   UNL     1       7.920  21.461  52.877  1.00  0.00     0.002 A 
HETATM   27  C   UNL     1       8.016  20.465  53.844  1.00  0.00     0.002 A 
ENDBRANCH   3  19
TORSDOF 5
ENDMDL
MODEL 6
REMARK VINA RESULT:      -7.8      9.171     11.995
REMARK  5 active torsions:
REMARK  status: ('A' for Active; 'I' for Inactive)
REMARK    1  A    between atoms: N_2  and  C_4 
REMARK    2  A    between atoms: C_4  and  C_5 
REMARK    3  A    between atoms: C_8  and  C_9 
REMARK    4  A    between atoms: C_9  and  N_10 
REMARK       I    between atoms: N_10  and  C_11 
REMARK       I    between atoms: C_11  and  N_12 
REMARK    5  A    between atoms: N_12  and  C_13 
ROOT
HETATM    1  N   UNL     1       4.851  27.704  53.121  1.00  0.00    -0.339 N 
HETATM    2  C   UNL     1       4.545  29.026  53.044  1.00  0.00     0.322 C 
HETATM    3  N   UNL     1       4.038  29.494  51.874  1.00  0.00    -0.287 N 
HETATM    4  O   UNL     1       4.727  29.806  53.977  1.00  0.00    -0.247 OA
HETATM    5  H   UNL     1       4.649  27.132  52.304  1.00  0.00     0.164 HD
HETATM    6  H   UNL     1       3.828  30.480  51.847  1.00  0.00     0.172 HD
ENDROOT
BRANCH   1   7
HETATM    7  C   UNL     1       5.235  27.057  54.351  1.00  0.00     0.162 C 
BRANCH   7   8
HETATM    8  C   UNL     1       6.096  25.826  54.166  1.00  0.00    -0.040 A 
HETATM    9  C   UNL     1       6.898  25.643  53.034  1.00  0.00     0.009 A 
HETATM   10  C   UNL     1       7.755  24.544  52.927  1.00  0.00     0.009 A 
HETATM   11  C   UNL     1       7.845  23.610  53.968  1.00  0.00    -0.033 A 
HETATM   12  C   UNL     1       7.041  23.784  55.103  1.00  0.00     0.009 A 
HETATM   13  C   UNL     1       6.180  24.881  55.199  1.00  0.00     0.009 A 
BRANCH  11  14
HETATM   14  C   UNL     1       8.832  22.479  53.893  1.00  0.00     0.272 C 
BRANCH  14  15
HETATM   15  N   UNL     1       8.180  21.120  54.034  1.00  0.00    -0.075 N 
HETATM   16  C   UNL     1       8.691  20.339  55.214  1.00  0.00     0.269 C 
HETATM   17  H   UNL     1       7.185  21.297  54.213  1.00  0.00     0.279 HD
HETATM   18  C   UNL     1       8.273  20.326  52.764  1.00  0.00     0.269 C 
ENDBRANCH  14  15
ENDBRANCH  11  14
ENDBRANCH   7   8
ENDBRANCH   1   7
BRANCH   3  19
HETATM   19  C   UNL     1       3.707  28.746  50.781  1.00  0.00     0.175 A 
HETATM   20  S   UNL     1       2.190  29.116  50.109  1.00  0.00    -0.050 SA
HETATM   21  C   UNL     1       2.421  27.871  48.939  1.00  0.00     0.037 A 
HETATM   22  C   UNL     1       3.667  27.272  49.156  1.00  0.00     0.076 A 
HETATM   23  C   UNL     1       1.563  27.454  47.909  1.00  0.00     0.021 A 
HETATM   24  N   UNL     1       4.401  27.792  50.215  1.00  0.00    -0.223 NA
HETATM   25  C   UNL     1       4.064  26.216  48.312  1.00  0.00     0.033 A 
HETATM   26  C   UNL     1       3.215  25.790  47.284  1.00  0.00     0.002 A 
HETATM   27  C   UNL     1       1.982  26.402  47.087  1.00  0.00     0.002 A 
ENDBRANCH   3  19
TORSDOF 5
ENDMDL
MODEL 7
REMARK VINA RESULT:      -7.5      3.717      9.253
REMARK  5 active torsions:
REMARK  status: ('A' for Active; 'I' for Inactive)
REMARK    1  A    between atoms: N_2  and  C_4 
REMARK    2  A    between atoms: C_4  and  C_5 
REMARK    3  A    between atoms: C_8  and  C_9 
REMARK    4  A    between atoms: C_9  and  N_10 
REMARK       I    between atoms: N_10  and  C_11 
REMARK       I    between atoms: C_11  and  N_12 
REMARK    5  A    between atoms: N_12  and  C_13 
ROOT
HETATM    1  N   UNL     1       6.701  33.571  63.902  1.00  0.00    -0.339 N 
HETATM    2  C   UNL     1       5.347  33.513  64.000  1.00  0.00     0.322 C 
HETATM    3  N   UNL     1       4.652  34.675  63.900  1.00  0.00    -0.287 N 
HETATM    4  O   UNL     1       4.739  32.461  64.190  1.00  0.00    -0.247 OA
HETATM    5  H   UNL     1       7.116  34.483  63.727  1.00  0.00     0.164 HD
HETATM    6  H   UNL     1       3.649  34.598  63.982  1.00  0.00     0.172 HD
ENDROOT
BRANCH   1   7
HETATM    7  C   UNL     1       7.535  32.397  63.824  1.00  0.00     0.162 C 
BRANCH   7   8
HETATM    8  C   UNL     1       8.067  32.101  62.439  1.00  0.00    -0.040 A 
HETATM    9  C   UNL     1       7.650  32.820  61.313  1.00  0.00     0.009 A 
HETATM   10  C   UNL     1       8.224  32.592  60.059  1.00  0.00     0.009 A 
HETATM   11  C   UNL     1       9.248  31.648  59.908  1.00  0.00    -0.033 A 
HETATM   12  C   UNL     1       9.667  30.920  61.029  1.00  0.00     0.009 A 
HETATM   13  C   UNL     1       9.083  31.148  62.279  1.00  0.00     0.009 A 
BRANCH  11  14
HETATM   14  C   UNL     1       9.927  31.468  58.579  1.00  0.00     0.272 C 
BRANCH  14  15
HETATM   15  N   UNL     1       9.917  30.030  58.104  1.00  0.00    -0.075 N 
HETATM   16  C   UNL     1      10.915  29.762  57.011  1.00  0.00     0.269 C 
HETATM   17  H   UNL     1      10.209  29.462  58.909  1.00  0.00     0.279 HD
HETATM   18  C   UNL     1       8.539  29.582  57.716  1.00  0.00     0.269 C 
ENDBRANCH  14  15
ENDBRANCH  11  14
ENDBRANCH   7   8
ENDBRANCH   1   7
BRANCH   3  19
HETATM   19  C   UNL     1       5.171  35.904  63.612  1.00  0.00     0.175 A 
HETATM   20  S   UNL     1       5.021  37.043  64.865  1.00  0.00    -0.050 SA
HETATM   21  C   UNL     1       5.766  38.227  63.859  1.00  0.00     0.037 A 
HETATM   22  C   UNL     1       6.085  37.640  62.629  1.00  0.00     0.076 A 
HETATM   23  C   UNL     1       6.045  39.575  64.135  1.00  0.00     0.021 A 
HETATM   24  N   UNL     1       5.744  36.299  62.504  1.00  0.00    -0.223 NA
HETATM   25  C   UNL     1       6.702  38.434  61.642  1.00  0.00     0.033 A 
HETATM   26  C   UNL     1       6.982  39.780  61.906  1.00  0.00     0.002 A 
HETATM   27  C   UNL     1       6.657  40.341  63.136  1.00  0.00     0.002 A 
ENDBRANCH   3  19
TORSDOF 5
ENDMDL
MODEL 8
REMARK VINA RESULT:      -7.5      8.197     12.021
REMARK  5 active torsions:
REMARK  status: ('A' for Active; 'I' for Inactive)
REMARK    1  A    between atoms: N_2  and  C_4 
REMARK    2  A    between atoms: C_4  and  C_5 
REMARK    3  A    between atoms: C_8  and  C_9 
REMARK    4  A    between atoms: C_9  and  N_10 
REMARK       I    between atoms: N_10  and  C_11 
REMARK       I    between atoms: C_11  and  N_12 
REMARK    5  A    between atoms: N_12  and  C_13 
ROOT
HETATM    1  N   UNL     1       4.794  27.403  54.064  1.00  0.00    -0.339 N 
HETATM    2  C   UNL     1       4.614  27.414  55.411  1.00  0.00     0.322 C 
HETATM    3  N   UNL     1       5.160  26.402  56.134  1.00  0.00    -0.287 N 
HETATM    4  O   UNL     1       3.968  28.287  55.988  1.00  0.00    -0.247 OA
HETATM    5  H   UNL     1       5.359  26.651  53.677  1.00  0.00     0.164 HD
HETATM    6  H   UNL     1       5.003  26.437  57.130  1.00  0.00     0.172 HD
ENDROOT
BRANCH   1   7
HETATM    7  C   UNL     1       4.411  28.501  53.211  1.00  0.00     0.162 C 
BRANCH   7   8
HETATM    8  C   UNL     1       4.432  28.178  51.732  1.00  0.00    -0.040 A 
HETATM    9  C   UNL     1       4.902  26.953  51.245  1.00  0.00     0.009 A 
HETATM   10  C   UNL     1       4.825  26.641  49.885  1.00  0.00     0.009 A 
HETATM   11  C   UNL     1       4.252  27.544  48.981  1.00  0.00    -0.033 A 
HETATM   12  C   UNL     1       3.783  28.775  49.460  1.00  0.00     0.009 A 
HETATM   13  C   UNL     1       3.871  29.085  50.821  1.00  0.00     0.009 A 
BRANCH  11  14
HETATM   14  C   UNL     1       4.086  27.172  47.534  1.00  0.00     0.272 C 
BRANCH  14  15
HETATM   15  N   UNL     1       2.821  26.381  47.272  1.00  0.00    -0.075 N 
HETATM   16  C   UNL     1       1.599  27.001  47.891  1.00  0.00     0.269 C 
HETATM   17  H   UNL     1       2.674  26.405  46.256  1.00  0.00     0.279 HD
HETATM   18  C   UNL     1       2.973  24.943  47.669  1.00  0.00     0.269 C 
ENDBRANCH  14  15
ENDBRANCH  11  14
ENDBRANCH   7   8
ENDBRANCH   1   7
BRANCH   3  19
HETATM   19  C   UNL     1       5.965  25.411  55.655  1.00  0.00     0.175 A 
HETATM   20  S   UNL     1       7.156  24.882  56.746  1.00  0.00    -0.050 SA
HETATM   21  C   UNL     1       7.746  23.789  55.550  1.00  0.00     0.037 A 
HETATM   22  C   UNL     1       6.962  23.913  54.398  1.00  0.00     0.076 A 
HETATM   23  C   UNL     1       8.823  22.892  55.624  1.00  0.00     0.021 A 
HETATM   24  N   UNL     1       5.934  24.844  54.475  1.00  0.00    -0.223 NA
HETATM   25  C   UNL     1       7.271  23.110  53.281  1.00  0.00     0.033 A 
HETATM   26  C   UNL     1       8.344  22.215  53.344  1.00  0.00     0.002 A 
HETATM   27  C   UNL     1       9.109  22.109  54.501  1.00  0.00     0.002 A 
ENDBRANCH   3  19
TORSDOF 5
ENDMDL
MODEL 9
REMARK VINA RESULT:      -7.4      3.813      9.288
REMARK  5 active torsions:
REMARK  status: ('A' for Active; 'I' for Inactive)
REMARK    1  A    between atoms: N_2  and  C_4 
REMARK    2  A    between atoms: C_4  and  C_5 
REMARK    3  A    between atoms: C_8  and  C_9 
REMARK    4  A    between atoms: C_9  and  N_10 
REMARK       I    between atoms: N_10  and  C_11 
REMARK       I    between atoms: C_11  and  N_12 
REMARK    5  A    between atoms: N_12  and  C_13 
ROOT
HETATM    1  N   UNL     1       5.154  34.351  63.988  1.00  0.00    -0.339 N 
HETATM    2  C   UNL     1       3.841  34.698  64.050  1.00  0.00     0.322 C 
HETATM    3  N   UNL     1       3.520  36.005  63.866  1.00  0.00    -0.287 N 
HETATM    4  O   UNL     1       2.948  33.885  64.281  1.00  0.00    -0.247 OA
HETATM    5  H   UNL     1       5.820  35.089  63.773  1.00  0.00     0.164 HD
HETATM    6  H   UNL     1       2.538  36.231  63.923  1.00  0.00     0.172 HD
ENDROOT
BRANCH   1   7
HETATM    7  C   UNL     1       5.605  32.981  64.000  1.00  0.00     0.162 C 
BRANCH   7   8
HETATM    8  C   UNL     1       6.604  32.645  62.913  1.00  0.00    -0.040 A 
HETATM    9  C   UNL     1       6.365  32.940  61.566  1.00  0.00     0.009 A 
HETATM   10  C   UNL     1       7.339  32.706  60.593  1.00  0.00     0.009 A 
HETATM   11  C   UNL     1       8.590  32.186  60.951  1.00  0.00    -0.033 A 
HETATM   12  C   UNL     1       8.836  31.883  62.297  1.00  0.00     0.009 A 
HETATM   13  C   UNL     1       7.853  32.113  63.265  1.00  0.00     0.009 A 
BRANCH  11  14
HETATM   14  C   UNL     1       9.670  32.019  59.919  1.00  0.00     0.272 C 
BRANCH  14  15
HETATM   15  N   UNL     1       9.207  31.239  58.706  1.00  0.00    -0.075 N 
HETATM   16  C   UNL     1       8.436  29.998  59.061  1.00  0.00     0.269 C 
HETATM   17  H   UNL     1       8.554  31.852  58.204  1.00  0.00     0.279 HD
HETATM   18  C   UNL     1      10.343  30.936  57.774  1.00  0.00     0.269 C 
ENDBRANCH  14  15
ENDBRANCH  11  14
ENDBRANCH   7   8
ENDBRANCH   1   7
BRANCH   3  19
HETATM   19  C   UNL     1       4.380  37.007  63.524  1.00  0.00     0.175 A 
HETATM   20  S   UNL     1       4.466  37.324  61.856  1.00  0.00    -0.050 SA
HETATM   21  C   UNL     1       5.657  38.533  62.161  1.00  0.00     0.037 A 
HETATM   22  C   UNL     1       5.887  38.603  63.539  1.00  0.00     0.076 A 
HETATM   23  C   UNL     1       6.339  39.353  61.249  1.00  0.00     0.021 A 
HETATM   24  N   UNL     1       5.138  37.726  64.313  1.00  0.00    -0.223 NA
HETATM   25  C   UNL     1       6.836  39.528  64.019  1.00  0.00     0.033 A 
HETATM   26  C   UNL     1       7.523  40.349  63.118  1.00  0.00     0.002 A 
HETATM   27  C   UNL     1       7.277  40.261  61.752  1.00  0.00     0.002 A 
ENDBRANCH   3  19
TORSDOF 5
ENDMDL
MODEL 10
REMARK VINA RESULT:      -7.3      3.218      9.166
REMARK  5 active torsions:
REMARK  status: ('A' for Active; 'I' for Inactive)
REMARK    1  A    between atoms: N_2  and  C_4 
REMARK    2  A    between atoms: C_4  and  C_5 
REMARK    3  A    between atoms: C_8  and  C_9 
REMARK    4  A    between atoms: C_9  and  N_10 
REMARK       I    between atoms: N_10  and  C_11 
REMARK       I    between atoms: C_11  and  N_12 
REMARK    5  A    between atoms: N_12  and  C_13 
ROOT
HETATM    1  N   UNL     1       8.831  29.264  57.706  1.00  0.00    -0.339 N 
HETATM    2  C   UNL     1       9.944  30.033  57.577  1.00  0.00     0.322 C 
HETATM    3  N   UNL     1       9.986  31.209  58.255  1.00  0.00    -0.287 N 
HETATM    4  O   UNL     1      10.894  29.714  56.865  1.00  0.00    -0.247 OA
HETATM    5  H   UNL     1       8.103  29.601  58.332  1.00  0.00     0.164 HD
HETATM    6  H   UNL     1      10.823  31.759  58.134  1.00  0.00     0.172 HD
ENDROOT
BRANCH   1   7
HETATM    7  C   UNL     1       8.734  27.927  57.176  1.00  0.00     0.162 C 
BRANCH   7   8
HETATM    8  C   UNL     1       7.696  27.761  56.086  1.00  0.00    -0.040 A 
HETATM    9  C   UNL     1       7.878  28.285  54.801  1.00  0.00     0.009 A 
HETATM   10  C   UNL     1       6.950  28.040  53.785  1.00  0.00     0.009 A 
HETATM   11  C   UNL     1       5.825  27.242  54.029  1.00  0.00    -0.033 A 
HETATM   12  C   UNL     1       5.633  26.718  55.314  1.00  0.00     0.009 A 
HETATM   13  C   UNL     1       6.561  26.974  56.329  1.00  0.00     0.009 A 
BRANCH  11  14
HETATM   14  C   UNL     1       4.875  26.903  52.914  1.00  0.00     0.272 C 
BRANCH  14  15
HETATM   15  N   UNL     1       4.503  28.107  52.073  1.00  0.00    -0.075 N 
HETATM   16  C   UNL     1       3.230  28.770  52.520  1.00  0.00     0.269 C 
HETATM   17  H   UNL     1       5.253  28.795  52.211  1.00  0.00     0.279 HD
HETATM   18  C   UNL     1       4.467  27.772  50.611  1.00  0.00     0.269 C 
ENDBRANCH  14  15
ENDBRANCH  11  14
ENDBRANCH   7   8
ENDBRANCH   1   7
BRANCH   3  19
HETATM   19  C   UNL     1       9.054  31.664  59.142  1.00  0.00     0.175 A 
HETATM   20  S   UNL     1       9.630  31.863  60.729  1.00  0.00    -0.050 SA
HETATM   21  C   UNL     1       8.053  32.352  61.224  1.00  0.00     0.037 A 
HETATM   22  C   UNL     1       7.204  32.334  60.113  1.00  0.00     0.076 A 
HETATM   23  C   UNL     1       7.601  32.721  62.501  1.00  0.00     0.021 A 
HETATM   24  N   UNL     1       7.795  31.944  58.918  1.00  0.00    -0.223 NA
HETATM   25  C   UNL     1       5.853  32.696  60.289  1.00  0.00     0.033 A 
HETATM   26  C   UNL     1       5.391  33.063  61.559  1.00  0.00     0.002 A 
HETATM   27  C   UNL     1       6.256  33.074  62.649  1.00  0.00     0.002 A 
ENDBRANCH   3  19
TORSDOF 5
ENDMDL
