MODEL 1
REMARK VINA RESULT:      -8.1      0.000      0.000
REMARK  6 active torsions:
REMARK  status: ('A' for Active; 'I' for Inactive)
REMARK    1  A    between atoms: C_2  and  N_3 
REMARK    2  A    between atoms: C_2  and  C_18 
REMARK    3  A    between atoms: N_3  and  C_6 
REMARK    4  A    between atoms: C_6  and  C_7 
REMARK    5  A    between atoms: C_10  and  N_11 
REMARK       I    between atoms: N_11  and  C_12 
REMARK    6  A    between atoms: C_12  and  O_13 
ROOT
HETATM    1  N   UNL     1       7.323  26.800  53.289  1.00  0.00    -0.063 N 
HETATM    2  H   UNL     1       7.929  26.540  54.077  1.00  0.00     0.278 HD
HETATM    3  H   UNL     1       7.962  27.215  52.596  1.00  0.00     0.278 HD
ENDROOT
BRANCH   1   4
HETATM    4  C   UNL     1       6.696  25.577  52.688  1.00  0.00     0.216 C 
HETATM    5  C   UNL     1       5.181  25.761  52.624  1.00  0.00     0.045 C 
BRANCH   4   6
HETATM    6  C   UNL     1       7.078  24.345  53.471  1.00  0.00    -0.009 A 
HETATM    7  C   UNL     1       6.938  24.327  54.857  1.00  0.00     0.126 A 
HETATM    8  N   UNL     1       7.214  23.286  55.658  1.00  0.00    -0.259 NA
HETATM    9  C   UNL     1       7.690  22.167  55.050  1.00  0.00     0.074 A 
HETATM   10  C   UNL     1       7.878  22.088  53.671  1.00  0.00     0.034 A 
HETATM   11  C   UNL     1       8.053  20.959  55.709  1.00  0.00     0.040 A 
HETATM   12  S   UNL     1       8.490  20.549  53.214  1.00  0.00    -0.100 SA
HETATM   13  C   UNL     1       7.572  23.188  52.853  1.00  0.00     0.032 A 
HETATM   14  C   UNL     1       8.503  19.997  54.833  1.00  0.00     0.053 A 
ENDBRANCH   4   6
ENDBRANCH   1   4
BRANCH   1  15
HETATM   15  C   UNL     1       6.392  27.876  53.732  1.00  0.00     0.271 C 
BRANCH  15  16
HETATM   16  C   UNL     1       6.702  28.282  55.144  1.00  0.00    -0.033 A 
HETATM   17  C   UNL     1       5.823  29.104  55.860  1.00  0.00     0.011 A 
HETATM   18  C   UNL     1       6.137  29.533  57.157  1.00  0.00     0.030 A 
HETATM   19  C   UNL     1       7.333  29.154  57.764  1.00  0.00     0.036 A 
HETATM   20  C   UNL     1       8.208  28.325  57.048  1.00  0.00     0.030 A 
HETATM   21  C   UNL     1       7.903  27.897  55.751  1.00  0.00     0.011 A 
BRANCH  19  22
HETATM   22  N   UNL     1       7.741  29.533  59.052  1.00  0.00    -0.303 N 
HETATM   23  C   UNL     1       8.422  30.623  59.526  1.00  0.00     0.364 C 
HETATM   24  O   UNL     1       8.651  30.726  60.727  1.00  0.00    -0.238 OA
HETATM   25  H   UNL     1       7.514  28.908  59.817  1.00  0.00     0.171 HD
BRANCH  23  26
HETATM   26  O   UNL     1       8.818  31.523  58.594  1.00  0.00    -0.309 OA
HETATM   27  C   UNL     1      10.210  31.462  58.278  1.00  0.00     0.215 C 
ENDBRANCH  23  26
ENDBRANCH  19  22
ENDBRANCH  15  16
ENDBRANCH   1  15
TORSDOF 6
ENDMDL
MODEL 2
REMARK VINA RESULT:      -8.1      1.625      2.125
REMARK  6 active torsions:
REMARK  status: ('A' for Active; 'I' for Inactive)
REMARK    1  A    between atoms: C_2  and  N_3 
REMARK    2  A    between atoms: C_2  and  C_18 
REMARK    3  A    between atoms: N_3  and  C_6 
REMARK    4  A    between atoms: C_6  and  C_7 
REMARK    5  A    between atoms: C_10  and  N_11 
REMARK       I    between atoms: N_11  and  C_12 
REMARK    6  A    between atoms: C_12  and  O_13 
ROOT
HETATM    1  N   UNL     1       5.292  25.959  55.319  1.00  0.00    -0.063 N 
HETATM    2  H   UNL     1       4.672  26.658  54.891  1.00  0.00     0.278 HD
HETATM    3  H   UNL     1       4.851  25.054  55.105  1.00  0.00     0.278 HD
ENDROOT
BRANCH   1   4
HETATM    4  C   UNL     1       6.644  25.996  54.671  1.00  0.00     0.216 C 
HETATM    5  C   UNL     1       6.591  26.888  53.431  1.00  0.00     0.045 C 
BRANCH   4   6
HETATM    6  C   UNL     1       7.112  24.601  54.338  1.00  0.00    -0.009 A 
HETATM    7  C   UNL     1       7.328  24.236  53.011  1.00  0.00     0.126 A 
HETATM    8  N   UNL     1       7.770  23.040  52.590  1.00  0.00    -0.259 NA
HETATM    9  C   UNL     1       8.003  22.110  53.554  1.00  0.00     0.074 A 
HETATM   10  C   UNL     1       7.807  22.373  54.909  1.00  0.00     0.034 A 
HETATM   11  C   UNL     1       8.464  20.783  53.328  1.00  0.00     0.040 A 
HETATM   12  S   UNL     1       8.188  21.000  55.870  1.00  0.00    -0.100 SA
HETATM   13  C   UNL     1       7.353  23.636  55.325  1.00  0.00     0.032 A 
HETATM   14  C   UNL     1       8.609  20.071  54.498  1.00  0.00     0.053 A 
ENDBRANCH   4   6
ENDBRANCH   1   4
BRANCH   1  15
HETATM   15  C   UNL     1       5.259  26.129  56.799  1.00  0.00     0.271 C 
BRANCH  15  16
HETATM   16  C   UNL     1       5.974  27.389  57.194  1.00  0.00    -0.033 A 
HETATM   17  C   UNL     1       5.319  28.626  57.147  1.00  0.00     0.011 A 
HETATM   18  C   UNL     1       6.000  29.811  57.458  1.00  0.00     0.030 A 
HETATM   19  C   UNL     1       7.347  29.787  57.818  1.00  0.00     0.036 A 
HETATM   20  C   UNL     1       7.998  28.547  57.872  1.00  0.00     0.030 A 
HETATM   21  C   UNL     1       7.325  27.360  57.559  1.00  0.00     0.011 A 
BRANCH  19  22
HETATM   22  N   UNL     1       8.117  30.915  58.142  1.00  0.00    -0.303 N 
HETATM   23  C   UNL     1       8.421  31.520  59.332  1.00  0.00     0.364 C 
HETATM   24  O   UNL     1       9.140  32.514  59.346  1.00  0.00    -0.238 OA
HETATM   25  H   UNL     1       8.551  31.418  57.377  1.00  0.00     0.171 HD
BRANCH  23  26
HETATM   26  O   UNL     1       7.868  30.963  60.436  1.00  0.00    -0.309 OA
HETATM   27  C   UNL     1       8.753  30.883  61.555  1.00  0.00     0.215 C 
ENDBRANCH  23  26
ENDBRANCH  19  22
ENDBRANCH  15  16
ENDBRANCH   1  15
TORSDOF 6
ENDMDL
MODEL 3
REMARK VINA RESULT:      -7.8      4.582      6.889
REMARK  6 active torsions:
REMARK  status: ('A' for Active; 'I' for Inactive)
REMARK    1  A    between atoms: C_2  and  N_3 
REMARK    2  A    between atoms: C_2  and  C_18 
REMARK    3  A    between atoms: N_3  and  C_6 
REMARK    4  A    between atoms: C_6  and  C_7 
REMARK    5  A    between atoms: C_10  and  N_11 
REMARK       I    between atoms: N_11  and  C_12 
REMARK    6  A    between atoms: C_12  and  O_13 
ROOT
HETATM    1  N   UNL     1       5.368  25.957  55.494  1.00  0.00    -0.063 N 
HETATM    2  H   UNL     1       5.294  25.201  54.802  1.00  0.00     0.278 HD
HETATM    3  H   UNL     1       4.582  25.796  56.140  1.00  0.00     0.278 HD
ENDROOT
BRANCH   1   4
HETATM    4  C   UNL     1       6.650  25.836  56.263  1.00  0.00     0.216 C 
HETATM    5  C   UNL     1       7.605  26.953  55.841  1.00  0.00     0.045 C 
BRANCH   4   6
HETATM    6  C   UNL     1       7.263  24.472  56.064  1.00  0.00    -0.009 A 
HETATM    7  C   UNL     1       7.909  23.836  57.122  1.00  0.00     0.126 A 
HETATM    8  N   UNL     1       8.467  22.615  57.079  1.00  0.00    -0.259 NA
HETATM    9  C   UNL     1       8.402  21.965  55.887  1.00  0.00     0.074 A 
HETATM   10  C   UNL     1       7.787  22.519  54.766  1.00  0.00     0.034 A 
HETATM   11  C   UNL     1       8.933  20.671  55.621  1.00  0.00     0.040 A 
HETATM   12  S   UNL     1       7.872  21.454  53.420  1.00  0.00    -0.100 SA
HETATM   13  C   UNL     1       7.203  23.795  54.838  1.00  0.00     0.032 A 
HETATM   14  C   UNL     1       8.716  20.271  54.322  1.00  0.00     0.053 A 
ENDBRANCH   4   6
ENDBRANCH   1   4
BRANCH   1  15
HETATM   15  C   UNL     1       5.121  27.260  54.813  1.00  0.00     0.271 C 
BRANCH  15  16
HETATM   16  C   UNL     1       5.070  27.065  53.324  1.00  0.00    -0.033 A 
HETATM   17  C   UNL     1       5.071  25.779  52.772  1.00  0.00     0.011 A 
HETATM   18  C   UNL     1       5.082  25.594  51.383  1.00  0.00     0.030 A 
HETATM   19  C   UNL     1       5.095  26.687  50.518  1.00  0.00     0.036 A 
HETATM   20  C   UNL     1       5.086  27.974  51.073  1.00  0.00     0.030 A 
HETATM   21  C   UNL     1       5.079  28.165  52.460  1.00  0.00     0.011 A 
BRANCH  19  22
HETATM   22  N   UNL     1       5.113  26.609  49.116  1.00  0.00    -0.303 N 
HETATM   23  C   UNL     1       4.125  26.691  48.171  1.00  0.00     0.364 C 
HETATM   24  O   UNL     1       4.409  26.597  46.981  1.00  0.00    -0.238 OA
HETATM   25  H   UNL     1       6.009  26.456  48.668  1.00  0.00     0.171 HD
BRANCH  23  26
HETATM   26  O   UNL     1       2.867  26.858  48.644  1.00  0.00    -0.309 OA
HETATM   27  C   UNL     1       1.846  26.694  47.657  1.00  0.00     0.215 C 
ENDBRANCH  23  26
ENDBRANCH  19  22
ENDBRANCH  15  16
ENDBRANCH   1  15
TORSDOF 6
ENDMDL
MODEL 4
REMARK VINA RESULT:      -7.8      4.603      8.686
REMARK  6 active torsions:
REMARK  status: ('A' for Active; 'I' for Inactive)
REMARK    1  A    between atoms: C_2  and  N_3 
REMARK    2  A    between atoms: C_2  and  C_18 
REMARK    3  A    between atoms: N_3  and  C_6 
REMARK    4  A    between atoms: C_6  and  C_7 
REMARK    5  A    between atoms: C_10  and  N_11 
REMARK       I    between atoms: N_11  and  C_12 
REMARK    6  A    between atoms: C_12  and  O_13 
ROOT
HETATM    1  N   UNL     1       6.653  27.594  55.611  1.00  0.00    -0.063 N 
HETATM    2  H   UNL     1       6.178  26.753  55.964  1.00  0.00     0.278 HD
HETATM    3  H   UNL     1       5.966  28.351  55.736  1.00  0.00     0.278 HD
ENDROOT
BRANCH   1   4
HETATM    4  C   UNL     1       7.859  27.900  56.448  1.00  0.00     0.216 C 
HETATM    5  C   UNL     1       8.251  26.661  57.253  1.00  0.00     0.045 C 
BRANCH   4   6
HETATM    6  C   UNL     1       7.599  29.088  57.341  1.00  0.00    -0.009 A 
HETATM    7  C   UNL     1       6.485  29.896  57.122  1.00  0.00     0.126 A 
HETATM    8  N   UNL     1       6.131  30.959  57.861  1.00  0.00    -0.259 NA
HETATM    9  C   UNL     1       6.953  31.272  58.898  1.00  0.00     0.074 A 
HETATM   10  C   UNL     1       8.098  30.535  59.194  1.00  0.00     0.034 A 
HETATM   11  C   UNL     1       6.770  32.359  59.799  1.00  0.00     0.040 A 
HETATM   12  S   UNL     1       8.920  31.183  60.557  1.00  0.00    -0.100 SA
HETATM   13  C   UNL     1       8.442  29.421  58.410  1.00  0.00     0.032 A 
HETATM   14  C   UNL     1       7.764  32.428  60.749  1.00  0.00     0.053 A 
ENDBRANCH   4   6
ENDBRANCH   1   4
BRANCH   1  15
HETATM   15  C   UNL     1       6.880  27.439  54.147  1.00  0.00     0.271 C 
BRANCH  15  16
HETATM   16  C   UNL     1       7.079  25.991  53.802  1.00  0.00    -0.033 A 
HETATM   17  C   UNL     1       6.538  24.984  54.611  1.00  0.00     0.011 A 
HETATM   18  C   UNL     1       6.770  23.632  54.325  1.00  0.00     0.030 A 
HETATM   19  C   UNL     1       7.547  23.257  53.230  1.00  0.00     0.036 A 
HETATM   20  C   UNL     1       8.081  24.267  52.418  1.00  0.00     0.030 A 
HETATM   21  C   UNL     1       7.857  25.619  52.700  1.00  0.00     0.011 A 
BRANCH  19  22
HETATM   22  N   UNL     1       7.842  21.934  52.863  1.00  0.00    -0.303 N 
HETATM   23  C   UNL     1       8.450  20.902  53.526  1.00  0.00     0.364 C 
HETATM   24  O   UNL     1       8.582  19.814  52.974  1.00  0.00    -0.238 OA
HETATM   25  H   UNL     1       7.576  21.638  51.931  1.00  0.00     0.171 HD
BRANCH  23  26
HETATM   26  O   UNL     1       8.888  21.180  54.778  1.00  0.00    -0.309 OA
HETATM   27  C   UNL     1       8.220  20.446  55.806  1.00  0.00     0.215 C 
ENDBRANCH  23  26
ENDBRANCH  19  22
ENDBRANCH  15  16
ENDBRANCH   1  15
TORSDOF 6
ENDMDL
MODEL 5
REMARK VINA RESULT:      -7.8      1.171      1.433
REMARK  6 active torsions:
REMARK  status: ('A' for Active; 'I' for Inactive)
REMARK    1  A    between atoms: C_2  and  N_3 
REMARK    2  A    between atoms: C_2  and  C_18 
REMARK    3  A    between atoms: N_3  and  C_6 
REMARK    4  A    between atoms: C_6  and  C_7 
REMARK    5  A    between atoms: C_10  and  N_11 
REMARK       I    between atoms: N_11  and  C_12 
REMARK    6  A    between atoms: C_12  and  O_13 
ROOT
HETATM    1  N   UNL     1       7.177  26.364  53.885  1.00  0.00    -0.063 N 
HETATM    2  H   UNL     1       7.678  26.029  54.717  1.00  0.00     0.278 HD
HETATM    3  H   UNL     1       7.906  26.799  53.301  1.00  0.00     0.278 HD
ENDROOT
BRANCH   1   4
HETATM    4  C   UNL     1       6.588  25.210  53.131  1.00  0.00     0.216 C 
HETATM    5  C   UNL     1       5.065  25.243  53.256  1.00  0.00     0.045 C 
BRANCH   4   6
HETATM    6  C   UNL     1       7.162  23.904  53.623  1.00  0.00    -0.009 A 
HETATM    7  C   UNL     1       7.526  22.914  52.713  1.00  0.00     0.126 A 
HETATM    8  N   UNL     1       8.071  21.727  53.024  1.00  0.00    -0.259 NA
HETATM    9  C   UNL     1       8.259  21.478  54.347  1.00  0.00     0.074 A 
HETATM   10  C   UNL     1       7.917  22.398  55.336  1.00  0.00     0.034 A 
HETATM   11  C   UNL     1       8.812  20.286  54.893  1.00  0.00     0.040 A 
HETATM   12  S   UNL     1       8.277  21.789  56.903  1.00  0.00    -0.100 SA
HETATM   13  C   UNL     1       7.357  23.638  54.985  1.00  0.00     0.032 A 
HETATM   14  C   UNL     1       8.880  20.320  56.268  1.00  0.00     0.053 A 
ENDBRANCH   4   6
ENDBRANCH   1   4
BRANCH   1  15
HETATM   15  C   UNL     1       6.235  27.444  54.292  1.00  0.00     0.271 C 
BRANCH  15  16
HETATM   16  C   UNL     1       6.639  28.011  55.623  1.00  0.00    -0.033 A 
HETATM   17  C   UNL     1       5.822  28.939  56.281  1.00  0.00     0.011 A 
HETATM   18  C   UNL     1       6.224  29.515  57.494  1.00  0.00     0.030 A 
HETATM   19  C   UNL     1       7.447  29.180  58.073  1.00  0.00     0.036 A 
HETATM   20  C   UNL     1       8.259  28.246  57.416  1.00  0.00     0.030 A 
HETATM   21  C   UNL     1       7.866  27.670  56.202  1.00  0.00     0.011 A 
BRANCH  19  22
HETATM   22  N   UNL     1       7.941  29.704  59.278  1.00  0.00    -0.303 N 
HETATM   23  C   UNL     1       8.681  30.818  59.571  1.00  0.00     0.364 C 
HETATM   24  O   UNL     1       8.982  31.063  60.735  1.00  0.00    -0.238 OA
HETATM   25  H   UNL     1       7.741  29.188  60.127  1.00  0.00     0.171 HD
BRANCH  23  26
HETATM   26  O   UNL     1       9.047  31.579  58.512  1.00  0.00    -0.309 OA
HETATM   27  C   UNL     1      10.379  31.337  58.053  1.00  0.00     0.215 C 
ENDBRANCH  23  26
ENDBRANCH  19  22
ENDBRANCH  15  16
ENDBRANCH   1  15
TORSDOF 6
ENDMDL
MODEL 6
REMARK VINA RESULT:      -7.8      1.487      1.892
REMARK  6 active torsions:
REMARK  status: ('A' for Active; 'I' for Inactive)
REMARK    1  A    between atoms: C_2  and  N_3 
REMARK    2  A    between atoms: C_2  and  C_18 
REMARK    3  A    between atoms: N_3  and  C_6 
REMARK    4  A    between atoms: C_6  and  C_7 
REMARK    5  A    between atoms: C_10  and  N_11 
REMARK       I    between atoms: N_11  and  C_12 
REMARK    6  A    between atoms: C_12  and  O_13 
ROOT
HETATM    1  N   UNL     1       7.276  26.710  55.005  1.00  0.00    -0.063 N 
HETATM    2  H   UNL     1       7.764  26.688  55.908  1.00  0.00     0.278 HD
HETATM    3  H   UNL     1       8.003  26.485  54.311  1.00  0.00     0.278 HD
ENDROOT
BRANCH   1   4
HETATM    4  C   UNL     1       6.223  25.643  54.955  1.00  0.00     0.216 C 
HETATM    5  C   UNL     1       5.513  25.565  56.306  1.00  0.00     0.045 C 
BRANCH   4   6
HETATM    6  C   UNL     1       6.827  24.317  54.563  1.00  0.00    -0.009 A 
HETATM    7  C   UNL     1       7.057  24.024  53.221  1.00  0.00     0.126 A 
HETATM    8  N   UNL     1       7.612  22.897  52.749  1.00  0.00    -0.259 NA
HETATM    9  C   UNL     1       7.957  21.962  53.674  1.00  0.00     0.074 A 
HETATM   10  C   UNL     1       7.758  22.154  55.040  1.00  0.00     0.034 A 
HETATM   11  C   UNL     1       8.549  20.699  53.392  1.00  0.00     0.040 A 
HETATM   12  S   UNL     1       8.295  20.794  55.944  1.00  0.00    -0.100 SA
HETATM   13  C   UNL     1       7.183  23.347  55.510  1.00  0.00     0.032 A 
HETATM   14  C   UNL     1       8.786  19.964  54.532  1.00  0.00     0.053 A 
ENDBRANCH   4   6
ENDBRANCH   1   4
BRANCH   1  15
HETATM   15  C   UNL     1       6.823  28.104  54.735  1.00  0.00     0.271 C 
BRANCH  15  16
HETATM   16  C   UNL     1       6.804  28.899  56.009  1.00  0.00    -0.033 A 
HETATM   17  C   UNL     1       5.999  30.039  56.126  1.00  0.00     0.011 A 
HETATM   18  C   UNL     1       6.023  30.817  57.292  1.00  0.00     0.030 A 
HETATM   19  C   UNL     1       6.850  30.476  58.361  1.00  0.00     0.036 A 
HETATM   20  C   UNL     1       7.650  29.331  58.243  1.00  0.00     0.030 A 
HETATM   21  C   UNL     1       7.634  28.552  57.080  1.00  0.00     0.011 A 
BRANCH  19  22
HETATM   22  N   UNL     1       6.951  31.191  59.565  1.00  0.00    -0.303 N 
HETATM   23  C   UNL     1       7.822  32.152  60.003  1.00  0.00     0.364 C 
HETATM   24  O   UNL     1       7.685  32.637  61.122  1.00  0.00    -0.238 OA
HETATM   25  H   UNL     1       6.269  30.987  60.287  1.00  0.00     0.171 HD
BRANCH  23  26
HETATM   26  O   UNL     1       8.810  32.491  59.141  1.00  0.00    -0.309 OA
HETATM   27  C   UNL     1      10.078  31.907  59.449  1.00  0.00     0.215 C 
ENDBRANCH  23  26
ENDBRANCH  19  22
ENDBRANCH  15  16
ENDBRANCH   1  15
TORSDOF 6
ENDMDL
MODEL 7
REMARK VINA RESULT:      -7.7      4.799      7.793
REMARK  6 active torsions:
REMARK  status: ('A' for Active; 'I' for Inactive)
REMARK    1  A    between atoms: C_2  and  N_3 
REMARK    2  A    between atoms: C_2  and  C_18 
REMARK    3  A    between atoms: N_3  and  C_6 
REMARK    4  A    between atoms: C_6  and  C_7 
REMARK    5  A    between atoms: C_10  and  N_11 
REMARK       I    between atoms: N_11  and  C_12 
REMARK    6  A    between atoms: C_12  and  O_13 
ROOT
HETATM    1  N   UNL     1       7.058  28.128  53.624  1.00  0.00    -0.063 N 
HETATM    2  H   UNL     1       7.523  27.650  52.843  1.00  0.00     0.278 HD
HETATM    3  H   UNL     1       7.648  28.950  53.815  1.00  0.00     0.278 HD
ENDROOT
BRANCH   1   4
HETATM    4  C   UNL     1       5.698  28.603  53.210  1.00  0.00     0.216 C 
HETATM    5  C   UNL     1       4.668  28.179  54.257  1.00  0.00     0.045 C 
BRANCH   4   6
HETATM    6  C   UNL     1       5.347  28.081  51.838  1.00  0.00    -0.009 A 
HETATM    7  C   UNL     1       5.175  26.713  51.634  1.00  0.00     0.126 A 
HETATM    8  N   UNL     1       4.836  26.131  50.472  1.00  0.00    -0.259 NA
HETATM    9  C   UNL     1       4.670  26.962  49.409  1.00  0.00     0.074 A 
HETATM   10  C   UNL     1       4.831  28.342  49.506  1.00  0.00     0.034 A 
HETATM   11  C   UNL     1       4.320  26.555  48.090  1.00  0.00     0.040 A 
HETATM   12  S   UNL     1       4.554  29.109  47.992  1.00  0.00    -0.100 SA
HETATM   13  C   UNL     1       5.177  28.929  50.735  1.00  0.00     0.032 A 
HETATM   14  C   UNL     1       4.223  27.619  47.221  1.00  0.00     0.053 A 
ENDBRANCH   4   6
ENDBRANCH   1   4
BRANCH   1  15
HETATM   15  C   UNL     1       7.119  27.251  54.828  1.00  0.00     0.271 C 
BRANCH  15  16
HETATM   16  C   UNL     1       7.268  25.814  54.418  1.00  0.00    -0.033 A 
HETATM   17  C   UNL     1       6.899  24.782  55.288  1.00  0.00     0.011 A 
HETATM   18  C   UNL     1       7.091  23.440  54.932  1.00  0.00     0.030 A 
HETATM   19  C   UNL     1       7.656  23.101  53.703  1.00  0.00     0.036 A 
HETATM   20  C   UNL     1       8.017  24.137  52.831  1.00  0.00     0.030 A 
HETATM   21  C   UNL     1       7.832  25.479  53.182  1.00  0.00     0.011 A 
BRANCH  19  22
HETATM   22  N   UNL     1       7.894  21.792  53.256  1.00  0.00    -0.303 N 
HETATM   23  C   UNL     1       8.670  20.773  53.742  1.00  0.00     0.364 C 
HETATM   24  O   UNL     1       8.699  19.695  53.157  1.00  0.00    -0.238 OA
HETATM   25  H   UNL     1       7.426  21.496  52.408  1.00  0.00     0.171 HD
BRANCH  23  26
HETATM   26  O   UNL     1       9.381  21.054  54.860  1.00  0.00    -0.309 OA
HETATM   27  C   UNL     1       8.937  20.354  56.025  1.00  0.00     0.215 C 
ENDBRANCH  23  26
ENDBRANCH  19  22
ENDBRANCH  15  16
ENDBRANCH   1  15
TORSDOF 6
ENDMDL
MODEL 8
REMARK VINA RESULT:      -7.6      4.676      7.930
REMARK  6 active torsions:
REMARK  status: ('A' for Active; 'I' for Inactive)
REMARK    1  A    between atoms: C_2  and  N_3 
REMARK    2  A    between atoms: C_2  and  C_18 
REMARK    3  A    between atoms: N_3  and  C_6 
REMARK    4  A    between atoms: C_6  and  C_7 
REMARK    5  A    between atoms: C_10  and  N_11 
REMARK       I    between atoms: N_11  and  C_12 
REMARK    6  A    between atoms: C_12  and  O_13 
ROOT
HETATM    1  N   UNL     1       8.387  30.464  60.407  1.00  0.00    -0.063 N 
HETATM    2  H   UNL     1       7.548  30.997  60.148  1.00  0.00     0.278 HD
HETATM    3  H   UNL     1       8.046  29.507  60.574  1.00  0.00     0.278 HD
ENDROOT
BRANCH   1   4
HETATM    4  C   UNL     1       9.358  30.433  59.265  1.00  0.00     0.216 C 
HETATM    5  C   UNL     1       9.845  31.851  58.970  1.00  0.00     0.045 C 
BRANCH   4   6
HETATM    6  C   UNL     1       8.730  29.793  58.051  1.00  0.00    -0.009 A 
HETATM    7  C   UNL     1       9.419  29.766  56.841  1.00  0.00     0.126 A 
HETATM    8  N   UNL     1       8.982  29.204  55.702  1.00  0.00    -0.259 NA
HETATM    9  C   UNL     1       7.748  28.634  55.748  1.00  0.00     0.074 A 
HETATM   10  C   UNL     1       6.974  28.619  56.906  1.00  0.00     0.034 A 
HETATM   11  C   UNL     1       7.094  27.993  54.658  1.00  0.00     0.040 A 
HETATM   12  S   UNL     1       5.471  27.827  56.639  1.00  0.00    -0.100 SA
HETATM   13  C   UNL     1       7.458  29.206  58.087  1.00  0.00     0.032 A 
HETATM   14  C   UNL     1       5.852  27.510  55.002  1.00  0.00     0.053 A 
ENDBRANCH   4   6
ENDBRANCH   1   4
BRANCH   1  15
HETATM   15  C   UNL     1       8.904  30.981  61.706  1.00  0.00     0.271 C 
BRANCH  15  16
HETATM   16  C   UNL     1       7.975  32.026  62.255  1.00  0.00    -0.033 A 
HETATM   17  C   UNL     1       7.079  32.697  61.415  1.00  0.00     0.011 A 
HETATM   18  C   UNL     1       6.252  33.713  61.913  1.00  0.00     0.030 A 
HETATM   19  C   UNL     1       6.304  34.082  63.256  1.00  0.00     0.036 A 
HETATM   20  C   UNL     1       7.197  33.403  64.097  1.00  0.00     0.030 A 
HETATM   21  C   UNL     1       8.028  32.390  63.605  1.00  0.00     0.011 A 
BRANCH  19  22
HETATM   22  N   UNL     1       5.524  35.087  63.849  1.00  0.00    -0.303 N 
HETATM   23  C   UNL     1       4.241  35.104  64.329  1.00  0.00     0.364 C 
HETATM   24  O   UNL     1       3.786  36.132  64.820  1.00  0.00    -0.238 OA
HETATM   25  H   UNL     1       5.948  36.001  63.963  1.00  0.00     0.171 HD
BRANCH  23  26
HETATM   26  O   UNL     1       3.548  33.947  64.202  1.00  0.00    -0.309 OA
HETATM   27  C   UNL     1       2.457  34.019  63.282  1.00  0.00     0.215 C 
ENDBRANCH  23  26
ENDBRANCH  19  22
ENDBRANCH  15  16
ENDBRANCH   1  15
TORSDOF 6
ENDMDL
MODEL 9
REMARK VINA RESULT:      -7.6      4.059      7.203
REMARK  6 active torsions:
REMARK  status: ('A' for Active; 'I' for Inactive)
REMARK    1  A    between atoms: C_2  and  N_3 
REMARK    2  A    between atoms: C_2  and  C_18 
REMARK    3  A    between atoms: N_3  and  C_6 
REMARK    4  A    between atoms: C_6  and  C_7 
REMARK    5  A    between atoms: C_10  and  N_11 
REMARK       I    between atoms: N_11  and  C_12 
REMARK    6  A    between atoms: C_12  and  O_13 
ROOT
HETATM    1  N   UNL     1       4.204  27.060  51.471  1.00  0.00    -0.063 N 
HETATM    2  H   UNL     1       3.823  26.531  52.264  1.00  0.00     0.278 HD
HETATM    3  H   UNL     1       3.442  27.074  50.778  1.00  0.00     0.278 HD
ENDROOT
BRANCH   1   4
HETATM    4  C   UNL     1       4.504  28.471  51.880  1.00  0.00     0.216 C 
HETATM    5  C   UNL     1       5.593  29.045  50.974  1.00  0.00     0.045 C 
BRANCH   4   6
HETATM    6  C   UNL     1       4.899  28.530  53.335  1.00  0.00    -0.009 A 
HETATM    7  C   UNL     1       3.919  28.514  54.326  1.00  0.00     0.126 A 
HETATM    8  N   UNL     1       4.143  28.533  55.649  1.00  0.00    -0.259 NA
HETATM    9  C   UNL     1       5.444  28.593  56.039  1.00  0.00     0.074 A 
HETATM   10  C   UNL     1       6.497  28.625  55.127  1.00  0.00     0.034 A 
HETATM   11  C   UNL     1       5.903  28.630  57.386  1.00  0.00     0.040 A 
HETATM   12  S   UNL     1       8.014  28.701  55.931  1.00  0.00    -0.100 SA
HETATM   13  C   UNL     1       6.237  28.595  53.746  1.00  0.00     0.032 A 
HETATM   14  C   UNL     1       7.275  28.689  57.473  1.00  0.00     0.053 A 
ENDBRANCH   4   6
ENDBRANCH   1   4
BRANCH   1  15
HETATM   15  C   UNL     1       5.330  26.287  50.873  1.00  0.00     0.271 C 
BRANCH  15  16
HETATM   16  C   UNL     1       6.029  25.485  51.933  1.00  0.00    -0.033 A 
HETATM   17  C   UNL     1       7.374  25.124  51.784  1.00  0.00     0.011 A 
HETATM   18  C   UNL     1       8.013  24.327  52.743  1.00  0.00     0.030 A 
HETATM   19  C   UNL     1       7.325  23.871  53.866  1.00  0.00     0.036 A 
HETATM   20  C   UNL     1       5.981  24.240  54.017  1.00  0.00     0.030 A 
HETATM   21  C   UNL     1       5.335  25.032  53.061  1.00  0.00     0.011 A 
BRANCH  19  22
HETATM   22  N   UNL     1       7.872  23.065  54.878  1.00  0.00    -0.303 N 
HETATM   23  C   UNL     1       8.065  21.714  54.984  1.00  0.00     0.364 C 
HETATM   24  O   UNL     1       8.585  21.248  55.993  1.00  0.00    -0.238 OA
HETATM   25  H   UNL     1       8.199  23.529  55.718  1.00  0.00     0.171 HD
BRANCH  23  26
HETATM   26  O   UNL     1       7.634  20.971  53.936  1.00  0.00    -0.309 OA
HETATM   27  C   UNL     1       8.686  20.418  53.142  1.00  0.00     0.215 C 
ENDBRANCH  23  26
ENDBRANCH  19  22
ENDBRANCH  15  16
ENDBRANCH   1  15
TORSDOF 6
ENDMDL
MODEL 10
REMARK VINA RESULT:      -7.6     10.092     15.444
REMARK  6 active torsions:
REMARK  status: ('A' for Active; 'I' for Inactive)
REMARK    1  A    between atoms: C_2  and  N_3 
REMARK    2  A    between atoms: C_2  and  C_18 
REMARK    3  A    between atoms: N_3  and  C_6 
REMARK    4  A    between atoms: C_6  and  C_7 
REMARK    5  A    between atoms: C_10  and  N_11 
REMARK       I    between atoms: N_11  and  C_12 
REMARK    6  A    between atoms: C_12  and  O_13 
ROOT
HETATM    1  N   UNL     1       6.496  34.597  66.731  1.00  0.00    -0.063 N 
HETATM    2  H   UNL     1       6.724  35.580  66.924  1.00  0.00     0.278 HD
HETATM    3  H   UNL     1       7.402  34.158  66.513  1.00  0.00     0.278 HD
ENDROOT
BRANCH   1   4
HETATM    4  C   UNL     1       5.931  33.942  67.956  1.00  0.00     0.216 C 
HETATM    5  C   UNL     1       4.405  33.924  67.867  1.00  0.00     0.045 C 
BRANCH   4   6
HETATM    6  C   UNL     1       6.411  34.642  69.203  1.00  0.00    -0.009 A 
HETATM    7  C   UNL     1       7.532  35.468  69.153  1.00  0.00     0.126 A 
HETATM    8  N   UNL     1       8.038  36.165  70.183  1.00  0.00    -0.259 NA
HETATM    9  C   UNL     1       7.400  36.026  71.375  1.00  0.00     0.074 A 
HETATM   10  C   UNL     1       6.278  35.215  71.533  1.00  0.00     0.034 A 
HETATM   11  C   UNL     1       7.773  36.665  72.591  1.00  0.00     0.040 A 
HETATM   12  S   UNL     1       5.707  35.251  73.154  1.00  0.00    -0.100 SA
HETATM   13  C   UNL     1       5.762  34.502  70.437  1.00  0.00     0.032 A 
HETATM   14  C   UNL     1       6.940  36.334  73.636  1.00  0.00     0.053 A 
ENDBRANCH   4   6
ENDBRANCH   1   4
BRANCH   1  15
HETATM   15  C   UNL     1       5.664  34.529  65.496  1.00  0.00     0.271 C 
BRANCH  15  16
HETATM   16  C   UNL     1       6.238  33.525  64.537  1.00  0.00    -0.033 A 
HETATM   17  C   UNL     1       7.622  33.438  64.340  1.00  0.00     0.011 A 
HETATM   18  C   UNL     1       8.158  32.543  63.403  1.00  0.00     0.030 A 
HETATM   19  C   UNL     1       7.326  31.722  62.644  1.00  0.00     0.036 A 
HETATM   20  C   UNL     1       5.942  31.806  62.849  1.00  0.00     0.030 A 
HETATM   21  C   UNL     1       5.400  32.700  63.780  1.00  0.00     0.011 A 
BRANCH  19  22
HETATM   22  N   UNL     1       7.762  30.800  61.680  1.00  0.00    -0.303 N 
HETATM   23  C   UNL     1       8.015  30.910  60.338  1.00  0.00     0.364 C 
HETATM   24  O   UNL     1       8.406  29.933  59.707  1.00  0.00    -0.238 OA
HETATM   25  H   UNL     1       7.933  29.849  61.987  1.00  0.00     0.171 HD
BRANCH  23  26
HETATM   26  O   UNL     1       7.789  32.130  59.793  1.00  0.00    -0.309 OA
HETATM   27  C   UNL     1       6.501  32.270  59.190  1.00  0.00     0.215 C 
ENDBRANCH  23  26
ENDBRANCH  19  22
ENDBRANCH  15  16
ENDBRANCH   1  15
TORSDOF 6
ENDMDL
