MODEL 1
REMARK VINA RESULT:     -10.4      0.000      0.000
REMARK  6 active torsions:
REMARK  status: ('A' for Active; 'I' for Inactive)
REMARK    1  A    between atoms: C_2  and  N_3 
REMARK    2  A    between atoms: C_11  and  C_12 
REMARK    3  A    between atoms: C_14  and  C_15 
REMARK    4  A    between atoms: C_15  and  O_16 
REMARK    5  A    between atoms: O_16  and  C_17 
REMARK    6  A    between atoms: C_25  and  O_26 
ROOT
HETATM    1  N   UNL     1       7.407  22.952  53.717  1.00  0.00    -0.067 N 
HETATM    2  H   UNL     1       6.486  23.113  53.287  1.00  0.00     0.280 HD
HETATM    3  C   UNL     1       7.221  23.196  55.217  1.00  0.00     0.281 C 
HETATM    4  C   UNL     1       6.961  24.640  55.480  1.00  0.00     0.018 A 
HETATM    5  C   UNL     1       7.190  25.667  54.585  1.00  0.00    -0.023 A 
HETATM    6  C   UNL     1       6.782  26.928  55.127  1.00  0.00     0.073 A 
HETATM    7  C   UNL     1       6.311  26.803  56.412  1.00  0.00     0.088 A 
HETATM    8  N   UNL     1       5.858  27.838  57.142  1.00  0.00    -0.358 N 
HETATM    9  C   UNL     1       5.983  29.197  56.669  1.00  0.00     0.219 C 
HETATM   10  N   UNL     1       6.308  29.260  55.264  1.00  0.00    -0.332 N 
HETATM   11  C   UNL     1       6.792  28.236  54.504  1.00  0.00     0.256 C 
HETATM   12  O   UNL     1       7.192  28.417  53.359  1.00  0.00    -0.267 OA
HETATM   13  S   UNL     1       6.349  25.196  56.967  1.00  0.00    -0.074 SA
HETATM   14  C   UNL     1       7.745  25.407  53.217  1.00  0.00     0.068 C 
HETATM   15  C   UNL     1       8.350  23.995  53.110  1.00  0.00     0.240 C 
HETATM   16  H   UNL     1       5.685  27.736  58.138  1.00  0.00     0.162 HD
HETATM   17  H   UNL     1       6.355  30.171  54.836  1.00  0.00     0.165 HD
ENDROOT
BRANCH   9  18
HETATM   18  C   UNL     1       6.974  29.968  57.519  1.00  0.00    -0.016 A 
HETATM   19  C   UNL     1       6.511  30.849  58.511  1.00  0.00     0.023 A 
HETATM   20  C   UNL     1       7.403  31.596  59.307  1.00  0.00    -0.000 A 
HETATM   21  C   UNL     1       8.787  31.452  59.112  1.00  0.00     0.076 A 
HETATM   22  C   UNL     1       9.254  30.557  58.146  1.00  0.00     0.038 A 
HETATM   23  C   UNL     1       8.359  29.821  57.362  1.00  0.00     0.014 A 
BRANCH  20  24
HETATM   24  C   UNL     1       6.841  32.530  60.359  1.00  0.00     0.217 C 
BRANCH  24  25
HETATM   25  O   UNL     1       6.607  31.773  61.549  1.00  0.00    -0.347 OA
BRANCH  25  26
HETATM   26  C   UNL     1       6.553  32.464  62.728  1.00  0.00     0.070 A 
HETATM   27  C   UNL     1       5.285  32.957  63.055  1.00  0.00     0.063 A 
HETATM   28  C   UNL     1       5.092  33.679  64.233  1.00  0.00     0.075 A 
HETATM   29 CL   UNL     1       3.522  34.273  64.614  1.00  0.00    -0.081 Cl
HETATM   30  C   UNL     1       6.166  33.910  65.087  1.00  0.00     0.138 A 
HETATM   31  F   UNL     1       6.006  34.598  66.225  1.00  0.00    -0.204 F 
HETATM   32  C   UNL     1       7.433  33.428  64.769  1.00  0.00     0.047 A 
HETATM   33  C   UNL     1       7.628  32.708  63.587  1.00  0.00     0.040 A 
ENDBRANCH  25  26
ENDBRANCH  24  25
ENDBRANCH  20  24
BRANCH  21  34
HETATM   34  O   UNL     1       9.591  32.218  59.912  1.00  0.00    -0.355 OA
HETATM   35  C   UNL     1      10.068  31.639  61.121  1.00  0.00     0.210 C 
ENDBRANCH  21  34
ENDBRANCH   9  18
BRANCH   1  36
HETATM   36  C   UNL     1       7.837  21.545  53.388  1.00  0.00     0.231 C 
HETATM   37  C   UNL     1       7.973  20.713  54.650  1.00  0.00     0.034 C 
ENDBRANCH   1  36
TORSDOF 6
ENDMDL
MODEL 2
REMARK VINA RESULT:     -10.2      2.782      4.066
REMARK  6 active torsions:
REMARK  status: ('A' for Active; 'I' for Inactive)
REMARK    1  A    between atoms: C_2  and  N_3 
REMARK    2  A    between atoms: C_11  and  C_12 
REMARK    3  A    between atoms: C_14  and  C_15 
REMARK    4  A    between atoms: C_15  and  O_16 
REMARK    5  A    between atoms: O_16  and  C_17 
REMARK    6  A    between atoms: C_25  and  O_26 
ROOT
HETATM    1  N   UNL     1       8.255  21.868  54.655  1.00  0.00    -0.067 N 
HETATM    2  H   UNL     1       9.251  22.097  54.768  1.00  0.00     0.280 HD
HETATM    3  C   UNL     1       7.706  22.863  53.631  1.00  0.00     0.281 C 
HETATM    4  C   UNL     1       7.681  24.239  54.205  1.00  0.00     0.018 A 
HETATM    5  C   UNL     1       7.799  24.544  55.547  1.00  0.00    -0.023 A 
HETATM    6  C   UNL     1       7.794  25.960  55.759  1.00  0.00     0.073 A 
HETATM    7  C   UNL     1       7.628  26.652  54.584  1.00  0.00     0.088 A 
HETATM    8  N   UNL     1       7.598  27.995  54.509  1.00  0.00    -0.358 N 
HETATM    9  C   UNL     1       7.581  28.809  55.702  1.00  0.00     0.219 C 
HETATM   10  N   UNL     1       7.936  28.058  56.882  1.00  0.00    -0.332 N 
HETATM   11  C   UNL     1       7.952  26.698  56.996  1.00  0.00     0.256 C 
HETATM   12  O   UNL     1       8.111  26.144  58.079  1.00  0.00    -0.267 OA
HETATM   13  S   UNL     1       7.486  25.624  53.236  1.00  0.00    -0.074 SA
HETATM   14  C   UNL     1       7.963  23.474  56.584  1.00  0.00     0.068 C 
HETATM   15  C   UNL     1       7.607  22.084  56.026  1.00  0.00     0.240 C 
HETATM   16  H   UNL     1       7.300  28.462  53.657  1.00  0.00     0.162 HD
HETATM   17  H   UNL     1       8.008  28.561  57.752  1.00  0.00     0.165 HD
ENDROOT
BRANCH   9  18
HETATM   18  C   UNL     1       6.244  29.508  55.852  1.00  0.00    -0.016 A 
HETATM   19  C   UNL     1       6.065  30.470  56.860  1.00  0.00     0.023 A 
HETATM   20  C   UNL     1       4.830  31.127  57.041  1.00  0.00    -0.000 A 
HETATM   21  C   UNL     1       3.755  30.821  56.188  1.00  0.00     0.076 A 
HETATM   22  C   UNL     1       3.936  29.886  55.166  1.00  0.00     0.038 A 
HETATM   23  C   UNL     1       5.167  29.241  54.997  1.00  0.00     0.014 A 
BRANCH  20  24
HETATM   24  C   UNL     1       4.700  32.153  58.147  1.00  0.00     0.217 C 
BRANCH  24  25
HETATM   25  O   UNL     1       6.009  32.623  58.477  1.00  0.00    -0.347 OA
BRANCH  25  26
HETATM   26  C   UNL     1       6.389  32.542  59.789  1.00  0.00     0.070 A 
HETATM   27  C   UNL     1       7.749  32.281  59.985  1.00  0.00     0.063 A 
HETATM   28  C   UNL     1       8.268  32.178  61.276  1.00  0.00     0.075 A 
HETATM   29 CL   UNL     1       9.945  31.857  61.491  1.00  0.00    -0.081 Cl
HETATM   30  C   UNL     1       7.427  32.333  62.373  1.00  0.00     0.138 A 
HETATM   31  F   UNL     1       7.902  32.240  63.623  1.00  0.00    -0.204 F 
HETATM   32  C   UNL     1       6.071  32.589  62.190  1.00  0.00     0.047 A 
HETATM   33  C   UNL     1       5.550  32.690  60.897  1.00  0.00     0.040 A 
ENDBRANCH  25  26
ENDBRANCH  24  25
ENDBRANCH  20  24
BRANCH  21  34
HETATM   34  O   UNL     1       2.585  31.488  56.431  1.00  0.00    -0.355 OA
HETATM   35  C   UNL     1       2.073  32.325  55.401  1.00  0.00     0.210 C 
ENDBRANCH  21  34
ENDBRANCH   9  18
BRANCH   1  36
HETATM   36  C   UNL     1       8.155  20.431  54.206  1.00  0.00     0.231 C 
HETATM   37  C   UNL     1       8.399  20.314  52.712  1.00  0.00     0.034 C 
ENDBRANCH   1  36
TORSDOF 6
ENDMDL
MODEL 3
REMARK VINA RESULT:     -10.1      7.914     11.440
REMARK  6 active torsions:
REMARK  status: ('A' for Active; 'I' for Inactive)
REMARK    1  A    between atoms: C_2  and  N_3 
REMARK    2  A    between atoms: C_11  and  C_12 
REMARK    3  A    between atoms: C_14  and  C_15 
REMARK    4  A    between atoms: C_15  and  O_16 
REMARK    5  A    between atoms: O_16  and  C_17 
REMARK    6  A    between atoms: C_25  and  O_26 
ROOT
HETATM    1  N   UNL     1      -0.075  29.085  45.313  1.00  0.00    -0.067 N 
HETATM    2  H   UNL     1       0.612  28.817  44.596  1.00  0.00     0.280 HD
HETATM    3  C   UNL     1       0.632  30.095  46.218  1.00  0.00     0.281 C 
HETATM    4  C   UNL     1       1.709  29.427  47.002  1.00  0.00     0.018 A 
HETATM    5  C   UNL     1       1.844  28.061  47.168  1.00  0.00    -0.023 A 
HETATM    6  C   UNL     1       3.015  27.744  47.928  1.00  0.00     0.073 A 
HETATM    7  C   UNL     1       3.680  28.875  48.337  1.00  0.00     0.088 A 
HETATM    8  N   UNL     1       4.816  28.850  49.058  1.00  0.00    -0.358 N 
HETATM    9  C   UNL     1       5.335  27.612  49.591  1.00  0.00     0.219 C 
HETATM   10  N   UNL     1       4.715  26.455  48.991  1.00  0.00    -0.332 N 
HETATM   11  C   UNL     1       3.553  26.445  48.276  1.00  0.00     0.256 C 
HETATM   12  O   UNL     1       3.014  25.396  47.938  1.00  0.00    -0.267 OA
HETATM   13  S   UNL     1       2.920  30.304  47.815  1.00  0.00    -0.074 SA
HETATM   14  C   UNL     1       0.876  27.097  46.551  1.00  0.00     0.068 C 
HETATM   15  C   UNL     1      -0.409  27.804  46.085  1.00  0.00     0.240 C 
HETATM   16  H   UNL     1       5.178  29.697  49.487  1.00  0.00     0.162 HD
HETATM   17  H   UNL     1       5.060  25.548  49.261  1.00  0.00     0.165 HD
ENDROOT
BRANCH   9  18
HETATM   18  C   UNL     1       5.227  27.596  51.104  1.00  0.00    -0.016 A 
HETATM   19  C   UNL     1       5.370  26.387  51.804  1.00  0.00     0.023 A 
HETATM   20  C   UNL     1       5.259  26.331  53.209  1.00  0.00    -0.000 A 
HETATM   21  C   UNL     1       5.006  27.512  53.927  1.00  0.00     0.076 A 
HETATM   22  C   UNL     1       4.891  28.723  53.239  1.00  0.00     0.038 A 
HETATM   23  C   UNL     1       5.004  28.765  51.844  1.00  0.00     0.014 A 
BRANCH  20  24
HETATM   24  C   UNL     1       5.421  24.996  53.905  1.00  0.00     0.217 C 
BRANCH  24  25
HETATM   25  O   UNL     1       6.806  24.817  54.210  1.00  0.00    -0.347 OA
BRANCH  25  26
HETATM   26  C   UNL     1       7.292  23.539  54.177  1.00  0.00     0.070 A 
HETATM   27  C   UNL     1       7.523  22.973  55.436  1.00  0.00     0.063 A 
HETATM   28  C   UNL     1       8.016  21.672  55.544  1.00  0.00     0.075 A 
HETATM   29 CL   UNL     1       8.290  20.998  57.104  1.00  0.00    -0.081 Cl
HETATM   30  C   UNL     1       8.281  20.935  54.394  1.00  0.00     0.138 A 
HETATM   31  F   UNL     1       8.753  19.683  54.471  1.00  0.00    -0.204 F 
HETATM   32  C   UNL     1       8.059  21.490  53.137  1.00  0.00     0.047 A 
HETATM   33  C   UNL     1       7.568  22.794  53.027  1.00  0.00     0.040 A 
ENDBRANCH  25  26
ENDBRANCH  24  25
ENDBRANCH  20  24
BRANCH  21  34
HETATM   34  O   UNL     1       4.898  27.380  55.285  1.00  0.00    -0.355 OA
HETATM   35  C   UNL     1       4.607  28.547  56.044  1.00  0.00     0.210 C 
ENDBRANCH  21  34
ENDBRANCH   9  18
BRANCH   1  36
HETATM   36  C   UNL     1      -1.284  29.652  44.613  1.00  0.00     0.231 C 
HETATM   37  C   UNL     1      -1.461  29.019  43.244  1.00  0.00     0.034 C 
ENDBRANCH   1  36
TORSDOF 6
ENDMDL
MODEL 4
REMARK VINA RESULT:      -9.8      2.064      2.832
REMARK  6 active torsions:
REMARK  status: ('A' for Active; 'I' for Inactive)
REMARK    1  A    between atoms: C_2  and  N_3 
REMARK    2  A    between atoms: C_11  and  C_12 
REMARK    3  A    between atoms: C_14  and  C_15 
REMARK    4  A    between atoms: C_15  and  O_16 
REMARK    5  A    between atoms: O_16  and  C_17 
REMARK    6  A    between atoms: C_25  and  O_26 
ROOT
HETATM    1  N   UNL     1       8.042  22.823  54.153  1.00  0.00    -0.067 N 
HETATM    2  H   UNL     1       7.142  22.348  54.004  1.00  0.00     0.280 HD
HETATM    3  C   UNL     1       7.946  23.487  55.528  1.00  0.00     0.281 C 
HETATM    4  C   UNL     1       6.963  24.606  55.498  1.00  0.00     0.018 A 
HETATM    5  C   UNL     1       6.463  25.197  54.353  1.00  0.00    -0.023 A 
HETATM    6  C   UNL     1       5.495  26.204  54.669  1.00  0.00     0.073 A 
HETATM    7  C   UNL     1       5.344  26.359  56.026  1.00  0.00     0.088 A 
HETATM    8  N   UNL     1       4.488  27.235  56.583  1.00  0.00    -0.358 N 
HETATM    9  C   UNL     1       3.774  28.197  55.777  1.00  0.00     0.219 C 
HETATM   10  N   UNL     1       3.825  27.878  54.371  1.00  0.00    -0.332 N 
HETATM   11  C   UNL     1       4.695  27.014  53.772  1.00  0.00     0.256 C 
HETATM   12  O   UNL     1       4.776  26.922  52.552  1.00  0.00    -0.267 OA
HETATM   13  S   UNL     1       6.341  25.309  56.917  1.00  0.00    -0.074 SA
HETATM   14  C   UNL     1       6.888  24.746  52.987  1.00  0.00     0.068 C 
HETATM   15  C   UNL     1       8.157  23.877  53.047  1.00  0.00     0.240 C 
HETATM   16  H   UNL     1       4.531  27.442  57.577  1.00  0.00     0.162 HD
HETATM   17  H   UNL     1       3.302  28.464  53.739  1.00  0.00     0.165 HD
ENDROOT
BRANCH   9  18
HETATM   18  C   UNL     1       4.266  29.602  56.062  1.00  0.00    -0.016 A 
HETATM   19  C   UNL     1       5.121  29.839  57.151  1.00  0.00     0.023 A 
HETATM   20  C   UNL     1       5.585  31.135  57.457  1.00  0.00    -0.000 A 
HETATM   21  C   UNL     1       5.189  32.216  56.651  1.00  0.00     0.076 A 
HETATM   22  C   UNL     1       4.362  31.983  55.549  1.00  0.00     0.038 A 
HETATM   23  C   UNL     1       3.909  30.692  55.256  1.00  0.00     0.014 A 
BRANCH  20  24
HETATM   24  C   UNL     1       6.504  31.324  58.646  1.00  0.00     0.217 C 
BRANCH  24  25
HETATM   25  O   UNL     1       5.760  31.959  59.689  1.00  0.00    -0.347 OA
BRANCH  25  26
HETATM   26  C   UNL     1       6.413  32.189  60.869  1.00  0.00     0.070 A 
HETATM   27  C   UNL     1       5.580  32.563  61.929  1.00  0.00     0.063 A 
HETATM   28  C   UNL     1       6.118  32.824  63.189  1.00  0.00     0.075 A 
HETATM   29 CL   UNL     1       5.073  33.280  64.479  1.00  0.00    -0.081 Cl
HETATM   30  C   UNL     1       7.491  32.714  63.391  1.00  0.00     0.138 A 
HETATM   31  F   UNL     1       8.032  32.958  64.593  1.00  0.00    -0.204 F 
HETATM   32  C   UNL     1       8.329  32.348  62.343  1.00  0.00     0.047 A 
HETATM   33  C   UNL     1       7.791  32.088  61.078  1.00  0.00     0.040 A 
ENDBRANCH  25  26
ENDBRANCH  24  25
ENDBRANCH  20  24
BRANCH  21  34
HETATM   34  O   UNL     1       5.667  33.445  57.015  1.00  0.00    -0.355 OA
HETATM   35  C   UNL     1       4.747  34.529  57.057  1.00  0.00     0.210 C 
ENDBRANCH  21  34
ENDBRANCH   9  18
BRANCH   1  36
HETATM   36  C   UNL     1       9.137  21.790  54.062  1.00  0.00     0.231 C 
HETATM   37  C   UNL     1       8.736  20.659  53.133  1.00  0.00     0.034 C 
ENDBRANCH   1  36
TORSDOF 6
ENDMDL
MODEL 5
REMARK VINA RESULT:      -9.7      5.251     10.347
REMARK  6 active torsions:
REMARK  status: ('A' for Active; 'I' for Inactive)
REMARK    1  A    between atoms: C_2  and  N_3 
REMARK    2  A    between atoms: C_11  and  C_12 
REMARK    3  A    between atoms: C_14  and  C_15 
REMARK    4  A    between atoms: C_15  and  O_16 
REMARK    5  A    between atoms: O_16  and  C_17 
REMARK    6  A    between atoms: C_25  and  O_26 
ROOT
HETATM    1  N   UNL     1       7.914  31.580  59.927  1.00  0.00    -0.067 N 
HETATM    2  H   UNL     1       7.264  31.127  60.582  1.00  0.00     0.280 HD
HETATM    3  C   UNL     1       7.044  32.216  58.841  1.00  0.00     0.281 C 
HETATM    4  C   UNL     1       6.394  31.161  58.012  1.00  0.00     0.018 A 
HETATM    5  C   UNL     1       6.766  29.831  57.979  1.00  0.00    -0.023 A 
HETATM    6  C   UNL     1       5.904  29.072  57.124  1.00  0.00     0.073 A 
HETATM    7  C   UNL     1       4.957  29.864  56.521  1.00  0.00     0.088 A 
HETATM    8  N   UNL     1       4.021  29.393  55.678  1.00  0.00    -0.358 N 
HETATM    9  C   UNL     1       4.047  28.022  55.223  1.00  0.00     0.219 C 
HETATM   10  N   UNL     1       4.932  27.201  56.013  1.00  0.00    -0.332 N 
HETATM   11  C   UNL     1       5.906  27.648  56.857  1.00  0.00     0.256 C 
HETATM   12  O   UNL     1       6.719  26.884  57.367  1.00  0.00    -0.267 OA
HETATM   13  S   UNL     1       5.089  31.499  56.973  1.00  0.00    -0.074 SA
HETATM   14  C   UNL     1       7.906  29.314  58.806  1.00  0.00     0.068 C 
HETATM   15  C   UNL     1       8.782  30.461  59.342  1.00  0.00     0.240 C 
HETATM   16  H   UNL     1       3.455  30.028  55.121  1.00  0.00     0.162 HD
HETATM   17  H   UNL     1       4.967  26.216  55.803  1.00  0.00     0.165 HD
ENDROOT
BRANCH   9  18
HETATM   18  C   UNL     1       4.376  27.957  53.745  1.00  0.00    -0.016 A 
HETATM   19  C   UNL     1       5.103  26.868  53.235  1.00  0.00     0.023 A 
HETATM   20  C   UNL     1       5.443  26.783  51.869  1.00  0.00    -0.000 A 
HETATM   21  C   UNL     1       5.040  27.806  50.994  1.00  0.00     0.076 A 
HETATM   22  C   UNL     1       4.293  28.878  51.489  1.00  0.00     0.038 A 
HETATM   23  C   UNL     1       3.961  28.951  52.848  1.00  0.00     0.014 A 
BRANCH  20  24
HETATM   24  C   UNL     1       6.229  25.583  51.382  1.00  0.00     0.217 C 
BRANCH  24  25
HETATM   25  O   UNL     1       7.447  25.515  52.127  1.00  0.00    -0.347 OA
BRANCH  25  26
HETATM   26  C   UNL     1       7.521  24.574  53.117  1.00  0.00     0.070 A 
HETATM   27  C   UNL     1       7.656  23.259  52.658  1.00  0.00     0.063 A 
HETATM   28  C   UNL     1       7.745  22.202  53.565  1.00  0.00     0.075 A 
HETATM   29 CL   UNL     1       7.912  20.593  52.976  1.00  0.00    -0.081 Cl
HETATM   30  C   UNL     1       7.699  22.459  54.932  1.00  0.00     0.138 A 
HETATM   31  F   UNL     1       7.785  21.461  55.823  1.00  0.00    -0.204 F 
HETATM   32  C   UNL     1       7.561  23.762  55.399  1.00  0.00     0.047 A 
HETATM   33  C   UNL     1       7.468  24.821  54.491  1.00  0.00     0.040 A 
ENDBRANCH  25  26
ENDBRANCH  24  25
ENDBRANCH  20  24
BRANCH  21  34
HETATM   34  O   UNL     1       5.416  27.663  49.686  1.00  0.00    -0.355 OA
HETATM   35  C   UNL     1       4.390  27.609  48.703  1.00  0.00     0.210 C 
ENDBRANCH  21  34
ENDBRANCH   9  18
BRANCH   1  36
HETATM   36  C   UNL     1       8.734  32.581  60.700  1.00  0.00     0.231 C 
HETATM   37  C   UNL     1       9.806  31.885  61.519  1.00  0.00     0.034 C 
ENDBRANCH   1  36
TORSDOF 6
ENDMDL
MODEL 6
REMARK VINA RESULT:      -9.7      4.928      8.293
REMARK  6 active torsions:
REMARK  status: ('A' for Active; 'I' for Inactive)
REMARK    1  A    between atoms: C_2  and  N_3 
REMARK    2  A    between atoms: C_11  and  C_12 
REMARK    3  A    between atoms: C_14  and  C_15 
REMARK    4  A    between atoms: C_15  and  O_16 
REMARK    5  A    between atoms: O_16  and  C_17 
REMARK    6  A    between atoms: C_25  and  O_26 
ROOT
HETATM    1  N   UNL     1       4.574  31.747  49.356  1.00  0.00    -0.067 N 
HETATM    2  H   UNL     1       3.563  31.566  49.309  1.00  0.00     0.280 HD
HETATM    3  C   UNL     1       5.255  30.474  48.848  1.00  0.00     0.281 C 
HETATM    4  C   UNL     1       5.057  29.358  49.815  1.00  0.00     0.018 A 
HETATM    5  C   UNL     1       4.634  29.502  51.123  1.00  0.00    -0.023 A 
HETATM    6  C   UNL     1       4.491  28.229  51.765  1.00  0.00     0.073 A 
HETATM    7  C   UNL     1       4.853  27.195  50.935  1.00  0.00     0.088 A 
HETATM    8  N   UNL     1       4.801  25.900  51.295  1.00  0.00    -0.358 N 
HETATM    9  C   UNL     1       4.504  25.514  52.655  1.00  0.00     0.219 C 
HETATM   10  N   UNL     1       3.961  26.606  53.427  1.00  0.00    -0.332 N 
HETATM   11  C   UNL     1       4.020  27.929  53.101  1.00  0.00     0.256 C 
HETATM   12  O   UNL     1       3.675  28.803  53.890  1.00  0.00    -0.267 OA
HETATM   13  S   UNL     1       5.353  27.734  49.401  1.00  0.00    -0.074 SA
HETATM   14  C   UNL     1       4.331  30.849  51.706  1.00  0.00     0.068 C 
HETATM   15  C   UNL     1       4.898  31.984  50.834  1.00  0.00     0.240 C 
HETATM   16  H   UNL     1       5.239  25.184  50.722  1.00  0.00     0.162 HD
HETATM   17  H   UNL     1       3.669  26.409  54.371  1.00  0.00     0.165 HD
ENDROOT
BRANCH   9  18
HETATM   18  C   UNL     1       5.724  24.901  53.313  1.00  0.00    -0.016 A 
HETATM   19  C   UNL     1       5.997  25.162  54.666  1.00  0.00     0.023 A 
HETATM   20  C   UNL     1       7.131  24.623  55.307  1.00  0.00    -0.000 A 
HETATM   21  C   UNL     1       8.007  23.799  54.580  1.00  0.00     0.076 A 
HETATM   22  C   UNL     1       7.727  23.513  53.242  1.00  0.00     0.038 A 
HETATM   23  C   UNL     1       6.596  24.053  52.617  1.00  0.00     0.014 A 
BRANCH  20  24
HETATM   24  C   UNL     1       7.370  24.944  56.768  1.00  0.00     0.217 C 
BRANCH  24  25
HETATM   25  O   UNL     1       8.375  25.958  56.844  1.00  0.00    -0.347 OA
BRANCH  25  26
HETATM   26  C   UNL     1       7.956  27.232  57.112  1.00  0.00     0.070 A 
HETATM   27  C   UNL     1       8.988  28.169  57.231  1.00  0.00     0.063 A 
HETATM   28  C   UNL     1       8.698  29.507  57.500  1.00  0.00     0.075 A 
HETATM   29 CL   UNL     1       9.984  30.642  57.640  1.00  0.00    -0.081 Cl
HETATM   30  C   UNL     1       7.374  29.910  57.651  1.00  0.00     0.138 A 
HETATM   31  F   UNL     1       7.069  31.190  57.908  1.00  0.00    -0.204 F 
HETATM   32  C   UNL     1       6.340  28.986  57.540  1.00  0.00     0.047 A 
HETATM   33  C   UNL     1       6.631  27.644  57.273  1.00  0.00     0.040 A 
ENDBRANCH  25  26
ENDBRANCH  24  25
ENDBRANCH  20  24
BRANCH  21  34
HETATM   34  O   UNL     1       9.093  23.323  55.264  1.00  0.00    -0.355 OA
HETATM   35  C   UNL     1       9.272  21.913  55.325  1.00  0.00     0.210 C 
ENDBRANCH  21  34
ENDBRANCH   9  18
BRANCH   1  36
HETATM   36  C   UNL     1       4.871  32.962  48.513  1.00  0.00     0.231 C 
HETATM   37  C   UNL     1       6.367  33.132  48.319  1.00  0.00     0.034 C 
ENDBRANCH   1  36
TORSDOF 6
ENDMDL
MODEL 7
REMARK VINA RESULT:      -9.0      3.367      4.846
REMARK  6 active torsions:
REMARK  status: ('A' for Active; 'I' for Inactive)
REMARK    1  A    between atoms: C_2  and  N_3 
REMARK    2  A    between atoms: C_11  and  C_12 
REMARK    3  A    between atoms: C_14  and  C_15 
REMARK    4  A    between atoms: C_15  and  O_16 
REMARK    5  A    between atoms: O_16  and  C_17 
REMARK    6  A    between atoms: C_25  and  O_26 
ROOT
HETATM    1  N   UNL     1       6.961  25.680  55.822  1.00  0.00    -0.067 N 
HETATM    2  H   UNL     1       7.346  26.209  55.028  1.00  0.00     0.280 HD
HETATM    3  C   UNL     1       5.787  26.507  56.351  1.00  0.00     0.281 C 
HETATM    4  C   UNL     1       6.281  27.765  56.980  1.00  0.00     0.018 A 
HETATM    5  C   UNL     1       7.589  28.011  57.351  1.00  0.00    -0.023 A 
HETATM    6  C   UNL     1       7.739  29.336  57.874  1.00  0.00     0.073 A 
HETATM    7  C   UNL     1       6.541  30.008  57.915  1.00  0.00     0.088 A 
HETATM    8  N   UNL     1       6.412  31.272  58.356  1.00  0.00    -0.358 N 
HETATM    9  C   UNL     1       7.520  31.965  58.971  1.00  0.00     0.219 C 
HETATM   10  N   UNL     1       8.779  31.298  58.740  1.00  0.00    -0.332 N 
HETATM   11  C   UNL     1       8.942  30.011  58.317  1.00  0.00     0.256 C 
HETATM   12  O   UNL     1      10.044  29.473  58.300  1.00  0.00    -0.267 OA
HETATM   13  S   UNL     1       5.247  29.070  57.331  1.00  0.00    -0.074 SA
HETATM   14  C   UNL     1       8.667  26.989  57.149  1.00  0.00     0.068 C 
HETATM   15  C   UNL     1       8.081  25.595  56.864  1.00  0.00     0.240 C 
HETATM   16  H   UNL     1       5.494  31.669  58.535  1.00  0.00     0.162 HD
HETATM   17  H   UNL     1       9.615  31.745  59.082  1.00  0.00     0.165 HD
ENDROOT
BRANCH   9  18
HETATM   18  C   UNL     1       7.256  32.190  60.447  1.00  0.00    -0.016 A 
HETATM   19  C   UNL     1       5.982  32.597  60.877  1.00  0.00     0.023 A 
HETATM   20  C   UNL     1       5.705  32.833  62.239  1.00  0.00    -0.000 A 
HETATM   21  C   UNL     1       6.723  32.650  63.191  1.00  0.00     0.076 A 
HETATM   22  C   UNL     1       7.984  32.218  62.773  1.00  0.00     0.038 A 
HETATM   23  C   UNL     1       8.247  31.987  61.417  1.00  0.00     0.014 A 
BRANCH  20  24
HETATM   24  C   UNL     1       4.312  33.271  62.640  1.00  0.00     0.217 C 
BRANCH  24  25
HETATM   25  O   UNL     1       4.187  34.668  62.365  1.00  0.00    -0.347 OA
BRANCH  25  26
HETATM   26  C   UNL     1       3.386  35.029  61.317  1.00  0.00     0.070 A 
HETATM   27  C   UNL     1       2.038  34.686  61.472  1.00  0.00     0.063 A 
HETATM   28  C   UNL     1       1.113  35.000  60.476  1.00  0.00     0.075 A 
HETATM   29 CL   UNL     1      -0.540  34.568  60.690  1.00  0.00    -0.081 Cl
HETATM   30  C   UNL     1       1.533  35.657  59.324  1.00  0.00     0.138 A 
HETATM   31  F   UNL     1       0.663  35.971  58.354  1.00  0.00    -0.204 F 
HETATM   32  C   UNL     1       2.871  35.999  59.157  1.00  0.00     0.047 A 
HETATM   33  C   UNL     1       3.801  35.682  60.153  1.00  0.00     0.040 A 
ENDBRANCH  25  26
ENDBRANCH  24  25
ENDBRANCH  20  24
BRANCH  21  34
HETATM   34  O   UNL     1       6.385  32.910  64.492  1.00  0.00    -0.355 OA
HETATM   35  C   UNL     1       7.148  33.884  65.193  1.00  0.00     0.210 C 
ENDBRANCH  21  34
ENDBRANCH   9  18
BRANCH   1  36
HETATM   36  C   UNL     1       6.555  24.317  55.321  1.00  0.00     0.231 C 
HETATM   37  C   UNL     1       7.392  23.910  54.122  1.00  0.00     0.034 C 
ENDBRANCH   1  36
TORSDOF 6
ENDMDL
MODEL 8
REMARK VINA RESULT:      -9.0      2.209      2.697
REMARK  6 active torsions:
REMARK  status: ('A' for Active; 'I' for Inactive)
REMARK    1  A    between atoms: C_2  and  N_3 
REMARK    2  A    between atoms: C_11  and  C_12 
REMARK    3  A    between atoms: C_14  and  C_15 
REMARK    4  A    between atoms: C_15  and  O_16 
REMARK    5  A    between atoms: O_16  and  C_17 
REMARK    6  A    between atoms: C_25  and  O_26 
ROOT
HETATM    1  N   UNL     1       7.407  22.942  53.596  1.00  0.00    -0.067 N 
HETATM    2  H   UNL     1       6.494  23.084  53.143  1.00  0.00     0.280 HD
HETATM    3  C   UNL     1       7.178  23.180  55.090  1.00  0.00     0.281 C 
HETATM    4  C   UNL     1       6.882  24.618  55.347  1.00  0.00     0.018 A 
HETATM    5  C   UNL     1       7.112  25.651  54.458  1.00  0.00    -0.023 A 
HETATM    6  C   UNL     1       6.665  26.903  54.991  1.00  0.00     0.073 A 
HETATM    7  C   UNL     1       6.165  26.767  56.263  1.00  0.00     0.088 A 
HETATM    8  N   UNL     1       5.671  27.792  56.981  1.00  0.00    -0.358 N 
HETATM    9  C   UNL     1       5.781  29.154  56.512  1.00  0.00     0.219 C 
HETATM   10  N   UNL     1       6.140  29.224  55.116  1.00  0.00    -0.332 N 
HETATM   11  C   UNL     1       6.664  28.211  54.368  1.00  0.00     0.256 C 
HETATM   12  O   UNL     1       7.089  28.401  53.233  1.00  0.00    -0.267 OA
HETATM   13  S   UNL     1       6.221  25.161  56.818  1.00  0.00    -0.074 SA
HETATM   14  C   UNL     1       7.707  25.403  53.104  1.00  0.00     0.068 C 
HETATM   15  C   UNL     1       8.344  24.004  53.013  1.00  0.00     0.240 C 
HETATM   16  H   UNL     1       5.475  27.685  57.973  1.00  0.00     0.162 HD
HETATM   17  H   UNL     1       6.179  30.136  54.689  1.00  0.00     0.165 HD
ENDROOT
BRANCH   9  18
HETATM   18  C   UNL     1       6.734  29.944  57.387  1.00  0.00    -0.016 A 
HETATM   19  C   UNL     1       6.234  30.922  58.264  1.00  0.00     0.023 A 
HETATM   20  C   UNL     1       7.092  31.688  59.079  1.00  0.00    -0.000 A 
HETATM   21  C   UNL     1       8.479  31.467  59.020  1.00  0.00     0.076 A 
HETATM   22  C   UNL     1       8.980  30.477  58.170  1.00  0.00     0.038 A 
HETATM   23  C   UNL     1       8.118  29.722  57.366  1.00  0.00     0.014 A 
BRANCH  20  24
HETATM   24  C   UNL     1       6.491  32.728  60.003  1.00  0.00     0.217 C 
BRANCH  24  25
HETATM   25  O   UNL     1       5.068  32.627  59.922  1.00  0.00    -0.347 OA
BRANCH  25  26
HETATM   26  C   UNL     1       4.360  33.797  59.907  1.00  0.00     0.070 A 
HETATM   27  C   UNL     1       4.181  34.384  61.164  1.00  0.00     0.063 A 
HETATM   28  C   UNL     1       3.478  35.583  61.289  1.00  0.00     0.075 A 
HETATM   29 CL   UNL     1       3.273  36.287  62.846  1.00  0.00    -0.081 Cl
HETATM   30  C   UNL     1       2.952  36.197  60.156  1.00  0.00     0.138 A 
HETATM   31  F   UNL     1       2.275  37.350  60.249  1.00  0.00    -0.204 F 
HETATM   32  C   UNL     1       3.119  35.619  58.901  1.00  0.00     0.047 A 
HETATM   33  C   UNL     1       3.821  34.416  58.776  1.00  0.00     0.040 A 
ENDBRANCH  25  26
ENDBRANCH  24  25
ENDBRANCH  20  24
BRANCH  21  34
HETATM   34  O   UNL     1       9.250  32.257  59.829  1.00  0.00    -0.355 OA
HETATM   35  C   UNL     1       9.670  31.718  61.077  1.00  0.00     0.210 C 
ENDBRANCH  21  34
ENDBRANCH   9  18
BRANCH   1  36
HETATM   36  C   UNL     1       7.874  21.544  53.277  1.00  0.00     0.231 C 
HETATM   37  C   UNL     1       8.799  21.023  54.363  1.00  0.00     0.034 C 
ENDBRANCH   1  36
TORSDOF 6
ENDMDL
MODEL 9
REMARK VINA RESULT:      -8.9      2.905      4.186
REMARK  6 active torsions:
REMARK  status: ('A' for Active; 'I' for Inactive)
REMARK    1  A    between atoms: C_2  and  N_3 
REMARK    2  A    between atoms: C_11  and  C_12 
REMARK    3  A    between atoms: C_14  and  C_15 
REMARK    4  A    between atoms: C_15  and  O_16 
REMARK    5  A    between atoms: O_16  and  C_17 
REMARK    6  A    between atoms: C_25  and  O_26 
ROOT
HETATM    1  N   UNL     1       8.356  21.889  54.659  1.00  0.00    -0.067 N 
HETATM    2  H   UNL     1       9.334  22.152  54.839  1.00  0.00     0.280 HD
HETATM    3  C   UNL     1       7.839  22.877  53.611  1.00  0.00     0.281 C 
HETATM    4  C   UNL     1       7.730  24.244  54.195  1.00  0.00     0.018 A 
HETATM    5  C   UNL     1       7.750  24.538  55.545  1.00  0.00    -0.023 A 
HETATM    6  C   UNL     1       7.681  25.951  55.769  1.00  0.00     0.073 A 
HETATM    7  C   UNL     1       7.567  26.650  54.591  1.00  0.00     0.088 A 
HETATM    8  N   UNL     1       7.494  27.991  54.527  1.00  0.00    -0.358 N 
HETATM    9  C   UNL     1       7.372  28.791  55.723  1.00  0.00     0.219 C 
HETATM   10  N   UNL     1       7.677  28.039  56.917  1.00  0.00    -0.332 N 
HETATM   11  C   UNL     1       7.734  26.680  57.020  1.00  0.00     0.256 C 
HETATM   12  O   UNL     1       7.842  26.120  58.105  1.00  0.00    -0.267 OA
HETATM   13  S   UNL     1       7.548  25.632  53.228  1.00  0.00    -0.074 SA
HETATM   14  C   UNL     1       7.885  23.462  56.581  1.00  0.00     0.068 C 
HETATM   15  C   UNL     1       7.614  22.068  55.988  1.00  0.00     0.240 C 
HETATM   16  H   UNL     1       7.236  28.457  53.661  1.00  0.00     0.162 HD
HETATM   17  H   UNL     1       7.676  28.536  57.794  1.00  0.00     0.165 HD
ENDROOT
BRANCH   9  18
HETATM   18  C   UNL     1       6.005  29.442  55.793  1.00  0.00    -0.016 A 
HETATM   19  C   UNL     1       5.555  30.001  57.001  1.00  0.00     0.023 A 
HETATM   20  C   UNL     1       4.282  30.598  57.107  1.00  0.00    -0.000 A 
HETATM   21  C   UNL     1       3.445  30.644  55.978  1.00  0.00     0.076 A 
HETATM   22  C   UNL     1       3.899  30.115  54.767  1.00  0.00     0.038 A 
HETATM   23  C   UNL     1       5.165  29.525  54.674  1.00  0.00     0.014 A 
BRANCH  20  24
HETATM   24  C   UNL     1       3.854  31.182  58.438  1.00  0.00     0.217 C 
BRANCH  24  25
HETATM   25  O   UNL     1       4.434  32.482  58.562  1.00  0.00    -0.347 OA
BRANCH  25  26
HETATM   26  C   UNL     1       4.076  33.223  59.655  1.00  0.00     0.070 A 
HETATM   27  C   UNL     1       5.136  33.548  60.509  1.00  0.00     0.063 A 
HETATM   28  C   UNL     1       4.907  34.304  61.659  1.00  0.00     0.075 A 
HETATM   29 CL   UNL     1       6.227  34.692  62.693  1.00  0.00    -0.081 Cl
HETATM   30  C   UNL     1       3.618  34.734  61.959  1.00  0.00     0.138 A 
HETATM   31  F   UNL     1       3.373  35.463  63.057  1.00  0.00    -0.204 F 
HETATM   32  C   UNL     1       2.556  34.413  61.119  1.00  0.00     0.047 A 
HETATM   33  C   UNL     1       2.783  33.653  59.967  1.00  0.00     0.040 A 
ENDBRANCH  25  26
ENDBRANCH  24  25
ENDBRANCH  20  24
BRANCH  21  34
HETATM   34  O   UNL     1       2.221  31.227  56.160  1.00  0.00    -0.355 OA
HETATM   35  C   UNL     1       1.855  32.288  55.286  1.00  0.00     0.210 C 
ENDBRANCH  21  34
ENDBRANCH   9  18
BRANCH   1  36
HETATM   36  C   UNL     1       8.336  20.456  54.192  1.00  0.00     0.231 C 
HETATM   37  C   UNL     1       8.364  20.381  52.677  1.00  0.00     0.034 C 
ENDBRANCH   1  36
TORSDOF 6
ENDMDL
MODEL 10
REMARK VINA RESULT:      -8.8      3.158      4.565
REMARK  6 active torsions:
REMARK  status: ('A' for Active; 'I' for Inactive)
REMARK    1  A    between atoms: C_2  and  N_3 
REMARK    2  A    between atoms: C_11  and  C_12 
REMARK    3  A    between atoms: C_14  and  C_15 
REMARK    4  A    between atoms: C_15  and  O_16 
REMARK    5  A    between atoms: O_16  and  C_17 
REMARK    6  A    between atoms: C_25  and  O_26 
ROOT
HETATM    1  N   UNL     1       6.772  25.886  55.670  1.00  0.00    -0.067 N 
HETATM    2  H   UNL     1       7.205  26.420  54.905  1.00  0.00     0.280 HD
HETATM    3  C   UNL     1       5.615  26.746  56.183  1.00  0.00     0.281 C 
HETATM    4  C   UNL     1       6.136  27.965  56.863  1.00  0.00     0.018 A 
HETATM    5  C   UNL     1       7.440  28.147  57.285  1.00  0.00    -0.023 A 
HETATM    6  C   UNL     1       7.625  29.450  57.850  1.00  0.00     0.073 A 
HETATM    7  C   UNL     1       6.453  30.169  57.871  1.00  0.00     0.088 A 
HETATM    8  N   UNL     1       6.360  31.425  58.343  1.00  0.00    -0.358 N 
HETATM    9  C   UNL     1       7.473  32.055  59.014  1.00  0.00     0.219 C 
HETATM   10  N   UNL     1       8.711  31.344  58.806  1.00  0.00    -0.332 N 
HETATM   11  C   UNL     1       8.837  30.063  58.353  1.00  0.00     0.256 C 
HETATM   12  O   UNL     1       9.917  29.481  58.357  1.00  0.00    -0.267 OA
HETATM   13  S   UNL     1       5.144  29.301  57.218  1.00  0.00    -0.074 SA
HETATM   14  C   UNL     1       8.483  27.088  57.090  1.00  0.00     0.068 C 
HETATM   15  C   UNL     1       7.851  25.727  56.746  1.00  0.00     0.240 C 
HETATM   16  H   UNL     1       5.453  31.854  58.502  1.00  0.00     0.162 HD
HETATM   17  H   UNL     1       9.552  31.747  59.189  1.00  0.00     0.165 HD
ENDROOT
BRANCH   9  18
HETATM   18  C   UNL     1       7.167  32.250  60.486  1.00  0.00    -0.016 A 
HETATM   19  C   UNL     1       6.038  32.990  60.876  1.00  0.00     0.023 A 
HETATM   20  C   UNL     1       5.733  33.207  62.235  1.00  0.00    -0.000 A 
HETATM   21  C   UNL     1       6.572  32.666  63.225  1.00  0.00     0.076 A 
HETATM   22  C   UNL     1       7.680  31.906  62.844  1.00  0.00     0.038 A 
HETATM   23  C   UNL     1       7.973  31.697  61.491  1.00  0.00     0.014 A 
BRANCH  20  24
HETATM   24  C   UNL     1       4.502  34.015  62.590  1.00  0.00     0.217 C 
BRANCH  24  25
HETATM   25  O   UNL     1       4.398  35.101  61.667  1.00  0.00    -0.347 OA
BRANCH  25  26
HETATM   26  C   UNL     1       4.774  36.338  62.115  1.00  0.00     0.070 A 
HETATM   27  C   UNL     1       4.268  37.405  61.366  1.00  0.00     0.063 A 
HETATM   28  C   UNL     1       4.573  38.720  61.717  1.00  0.00     0.075 A 
HETATM   29 CL   UNL     1       3.937  40.017  60.781  1.00  0.00    -0.081 Cl
HETATM   30  C   UNL     1       5.387  38.971  62.818  1.00  0.00     0.138 A 
HETATM   31  F   UNL     1       5.693  40.225  63.177  1.00  0.00    -0.204 F 
HETATM   32  C   UNL     1       5.900  37.917  63.568  1.00  0.00     0.047 A 
HETATM   33  C   UNL     1       5.597  36.598  63.214  1.00  0.00     0.040 A 
ENDBRANCH  25  26
ENDBRANCH  24  25
ENDBRANCH  20  24
BRANCH  21  34
HETATM   34  O   UNL     1       6.220  32.929  64.521  1.00  0.00    -0.355 OA
HETATM   35  C   UNL     1       7.090  33.750  65.291  1.00  0.00     0.210 C 
ENDBRANCH  21  34
ENDBRANCH   9  18
BRANCH   1  36
HETATM   36  C   UNL     1       6.330  24.555  55.117  1.00  0.00     0.231 C 
HETATM   37  C   UNL     1       7.527  23.686  54.777  1.00  0.00     0.034 C 
ENDBRANCH   1  36
TORSDOF 6
ENDMDL
