MODEL 1
REMARK VINA RESULT:     -10.7      0.000      0.000
REMARK  6 active torsions:
REMARK  status: ('A' for Active; 'I' for Inactive)
REMARK    1  A    between atoms: C_2  and  C_3 
REMARK    2  A    between atoms: C_3  and  C_4 
REMARK    3  A    between atoms: C_6  and  N_7 
REMARK    4  A    between atoms: C_9  and  C_10 
REMARK    5  A    between atoms: C_16  and  N_17 
REMARK       I    between atoms: N_17  and  C_18 
REMARK    6  A    between atoms: C_18  and  C_19 
ROOT
HETATM    1  N   UNL     1       4.396  28.011  52.009  1.00  0.00    -0.044 N 
HETATM    2  N   UNL     1       3.414  28.308  51.112  1.00  0.00    -0.148 NA
HETATM    3  C   UNL     1       3.753  27.606  50.025  1.00  0.00     0.115 A 
HETATM    4  C   UNL     1       4.913  26.827  50.231  1.00  0.00     0.087 A 
HETATM    5  C   UNL     1       5.309  27.087  51.523  1.00  0.00     0.152 A 
ENDROOT
BRANCH   5   6
HETATM    6  N   UNL     1       6.384  26.557  52.241  1.00  0.00    -0.310 N 
HETATM    7  C   UNL     1       6.279  25.443  53.150  1.00  0.00     0.236 C 
HETATM    8  O   UNL     1       5.211  24.855  53.282  1.00  0.00    -0.272 OA
HETATM    9  H   UNL     1       7.285  27.031  52.130  1.00  0.00     0.170 HD
BRANCH   7  10
HETATM   10  C   UNL     1       7.540  25.024  53.898  1.00  0.00     0.149 C 
HETATM   11  C   UNL     1       7.653  23.525  54.032  1.00  0.00    -0.007 A 
HETATM   12  C   UNL     1       7.635  22.934  55.298  1.00  0.00     0.083 A 
HETATM   13  C   UNL     1       7.785  22.706  52.898  1.00  0.00     0.011 A 
HETATM   14  C   UNL     1       7.744  21.550  55.433  1.00  0.00     0.038 A 
HETATM   15  O   UNL     1       7.501  23.646  56.464  1.00  0.00    -0.310 OA
HETATM   16  C   UNL     1       7.864  20.742  54.303  1.00  0.00     0.003 A 
HETATM   17  C   UNL     1       7.883  21.321  53.035  1.00  0.00     0.001 A 
HETATM   18  C   UNL     1       7.600  25.013  56.415  1.00  0.00     0.083 A 
HETATM   19  C   UNL     1       7.637  25.739  55.223  1.00  0.00    -0.007 A 
HETATM   20  C   UNL     1       7.674  25.668  57.645  1.00  0.00     0.038 A 
HETATM   21  C   UNL     1       7.774  27.137  55.279  1.00  0.00     0.011 A 
HETATM   22  C   UNL     1       7.857  27.789  56.509  1.00  0.00     0.001 A 
HETATM   23  C   UNL     1       7.803  27.056  57.693  1.00  0.00     0.003 A 
ENDBRANCH   7  10
ENDBRANCH   5   6
BRANCH   1  24
HETATM   24  C   UNL     1       4.400  28.621  53.272  1.00  0.00     0.732 A 
HETATM   25  N   UNL     1       4.459  29.908  53.428  1.00  0.00    -0.067 NA
HETATM   26  C   UNL     1       4.415  30.348  54.737  1.00  0.00     0.059 A 
HETATM   27  C   UNL     1       4.395  29.529  55.802  1.00  0.00     0.102 A 
HETATM   28  C   UNL     1       4.377  28.074  55.583  1.00  0.00     0.261 A 
HETATM   29  N   UNL     1       4.337  27.699  54.279  1.00  0.00    -0.152 N 
HETATM   30  O   UNL     1       4.393  27.282  56.515  1.00  0.00    -0.268 OA
HETATM   31  H   UNL     1       4.311  26.707  54.061  1.00  0.00     0.187 HD
BRANCH  26  32
HETATM   32  C   UNL     1       4.378  31.847  54.934  1.00  0.00     0.060 C 
BRANCH  32  33
HETATM   33  C   UNL     1       3.242  32.266  55.872  1.00  0.00     0.002 C 
HETATM   34  C   UNL     1       1.912  32.343  55.140  1.00  0.00     0.005 C 
ENDBRANCH  32  33
ENDBRANCH  26  32
ENDBRANCH   1  24
BRANCH   3  35
HETATM   35  C   UNL     1       2.982  27.661  48.751  1.00  0.00     0.105 A 
HETATM   36  O   UNL     1       2.672  28.818  48.089  1.00  0.00    -0.320 OA
HETATM   37  C   UNL     1       1.958  28.475  46.987  1.00  0.00     0.142 A 
HETATM   38  C   UNL     1       1.802  27.112  46.920  1.00  0.00     0.027 A 
HETATM   39  C   UNL     1       2.462  26.585  48.057  1.00  0.00     0.041 A 
ENDBRANCH   3  35
TORSDOF 6
ENDMDL
MODEL 2
REMARK VINA RESULT:     -10.5      2.183      6.669
REMARK  6 active torsions:
REMARK  status: ('A' for Active; 'I' for Inactive)
REMARK    1  A    between atoms: C_2  and  C_3 
REMARK    2  A    between atoms: C_3  and  C_4 
REMARK    3  A    between atoms: C_6  and  N_7 
REMARK    4  A    between atoms: C_9  and  C_10 
REMARK    5  A    between atoms: C_16  and  N_17 
REMARK       I    between atoms: N_17  and  C_18 
REMARK    6  A    between atoms: C_18  and  C_19 
ROOT
HETATM    1  N   UNL     1       6.279  25.702  52.874  1.00  0.00    -0.044 N 
HETATM    2  N   UNL     1       6.275  24.346  52.733  1.00  0.00    -0.148 NA
HETATM    3  C   UNL     1       7.189  23.932  53.617  1.00  0.00     0.115 A 
HETATM    4  C   UNL     1       7.744  25.000  54.355  1.00  0.00     0.087 A 
HETATM    5  C   UNL     1       7.135  26.137  53.875  1.00  0.00     0.152 A 
ENDROOT
BRANCH   5   6
HETATM    6  N   UNL     1       7.301  27.465  54.277  1.00  0.00    -0.310 N 
HETATM    7  C   UNL     1       6.866  27.984  55.550  1.00  0.00     0.236 C 
HETATM    8  O   UNL     1       6.375  27.234  56.386  1.00  0.00    -0.272 OA
HETATM    9  H   UNL     1       7.723  28.099  53.593  1.00  0.00     0.170 HD
BRANCH   7  10
HETATM   10  C   UNL     1       7.074  29.473  55.811  1.00  0.00     0.149 C 
HETATM   11  C   UNL     1       8.347  29.747  56.573  1.00  0.00    -0.007 A 
HETATM   12  C   UNL     1       8.288  30.320  57.846  1.00  0.00     0.083 A 
HETATM   13  C   UNL     1       9.601  29.442  56.018  1.00  0.00     0.011 A 
HETATM   14  C   UNL     1       9.460  30.583  58.556  1.00  0.00     0.038 A 
HETATM   15  O   UNL     1       7.114  30.645  58.476  1.00  0.00    -0.310 OA
HETATM   16  C   UNL     1      10.701  30.267  58.005  1.00  0.00     0.003 A 
HETATM   17  C   UNL     1      10.771  29.696  56.736  1.00  0.00     0.001 A 
HETATM   18  C   UNL     1       5.947  30.608  57.755  1.00  0.00     0.083 A 
HETATM   19  C   UNL     1       5.856  30.073  56.468  1.00  0.00    -0.007 A 
HETATM   20  C   UNL     1       4.823  31.152  58.376  1.00  0.00     0.038 A 
HETATM   21  C   UNL     1       4.621  30.113  55.799  1.00  0.00     0.011 A 
HETATM   22  C   UNL     1       3.500  30.666  56.418  1.00  0.00     0.001 A 
HETATM   23  C   UNL     1       3.599  31.182  57.708  1.00  0.00     0.003 A 
ENDBRANCH   7  10
ENDBRANCH   5   6
BRANCH   1  24
HETATM   24  C   UNL     1       5.465  26.494  52.052  1.00  0.00     0.732 A 
HETATM   25  N   UNL     1       4.707  27.438  52.518  1.00  0.00    -0.067 NA
HETATM   26  C   UNL     1       3.997  28.150  51.570  1.00  0.00     0.059 A 
HETATM   27  C   UNL     1       4.003  27.861  50.258  1.00  0.00     0.102 A 
HETATM   28  C   UNL     1       4.840  26.751  49.775  1.00  0.00     0.261 A 
HETATM   29  N   UNL     1       5.579  26.141  50.737  1.00  0.00    -0.152 N 
HETATM   30  O   UNL     1       4.857  26.422  48.597  1.00  0.00    -0.268 OA
HETATM   31  H   UNL     1       6.187  25.374  50.466  1.00  0.00     0.187 HD
BRANCH  26  32
HETATM   32  C   UNL     1       3.189  29.320  52.083  1.00  0.00     0.060 C 
BRANCH  32  33
HETATM   33  C   UNL     1       4.016  30.608  52.115  1.00  0.00     0.002 C 
HETATM   34  C   UNL     1       3.238  31.758  52.735  1.00  0.00     0.005 C 
ENDBRANCH  32  33
ENDBRANCH  26  32
ENDBRANCH   1  24
BRANCH   3  35
HETATM   35  C   UNL     1       7.567  22.498  53.782  1.00  0.00     0.105 A 
HETATM   36  O   UNL     1       7.573  21.839  54.981  1.00  0.00    -0.320 OA
HETATM   37  C   UNL     1       7.979  20.567  54.740  1.00  0.00     0.142 A 
HETATM   38  C   UNL     1       8.233  20.388  53.402  1.00  0.00     0.027 A 
HETATM   39  C   UNL     1       7.967  21.633  52.783  1.00  0.00     0.041 A 
ENDBRANCH   3  35
TORSDOF 6
ENDMDL
MODEL 3
REMARK VINA RESULT:     -10.4      1.521      1.971
REMARK  6 active torsions:
REMARK  status: ('A' for Active; 'I' for Inactive)
REMARK    1  A    between atoms: C_2  and  C_3 
REMARK    2  A    between atoms: C_3  and  C_4 
REMARK    3  A    between atoms: C_6  and  N_7 
REMARK    4  A    between atoms: C_9  and  C_10 
REMARK    5  A    between atoms: C_16  and  N_17 
REMARK       I    between atoms: N_17  and  C_18 
REMARK    6  A    between atoms: C_18  and  C_19 
ROOT
HETATM    1  N   UNL     1       4.000  28.793  51.695  1.00  0.00    -0.044 N 
HETATM    2  N   UNL     1       2.942  28.963  50.852  1.00  0.00    -0.148 NA
HETATM    3  C   UNL     1       3.198  28.119  49.846  1.00  0.00     0.115 A 
HETATM    4  C   UNL     1       4.381  27.377  50.058  1.00  0.00     0.087 A 
HETATM    5  C   UNL     1       4.881  27.812  51.264  1.00  0.00     0.152 A 
ENDROOT
BRANCH   5   6
HETATM    6  N   UNL     1       6.019  27.388  51.953  1.00  0.00    -0.310 N 
HETATM    7  C   UNL     1       6.007  26.398  53.001  1.00  0.00     0.236 C 
HETATM    8  O   UNL     1       4.965  25.823  53.292  1.00  0.00    -0.272 OA
HETATM    9  H   UNL     1       6.900  27.852  51.709  1.00  0.00     0.170 HD
BRANCH   7  10
HETATM   10  C   UNL     1       7.332  26.088  53.691  1.00  0.00     0.149 C 
HETATM   11  C   UNL     1       7.529  24.608  53.912  1.00  0.00    -0.007 A 
HETATM   12  C   UNL     1       7.618  24.103  55.211  1.00  0.00     0.083 A 
HETATM   13  C   UNL     1       7.632  23.723  52.826  1.00  0.00     0.011 A 
HETATM   14  C   UNL     1       7.805  22.737  55.426  1.00  0.00     0.038 A 
HETATM   15  O   UNL     1       7.520  24.883  56.336  1.00  0.00    -0.310 OA
HETATM   16  C   UNL     1       7.896  21.863  54.344  1.00  0.00     0.003 A 
HETATM   17  C   UNL     1       7.808  22.356  53.044  1.00  0.00     0.001 A 
HETATM   18  C   UNL     1       7.547  26.248  56.194  1.00  0.00     0.083 A 
HETATM   19  C   UNL     1       7.474  26.894  54.958  1.00  0.00    -0.007 A 
HETATM   20  C   UNL     1       7.663  26.986  57.373  1.00  0.00     0.038 A 
HETATM   21  C   UNL     1       7.544  28.297  54.917  1.00  0.00     0.011 A 
HETATM   22  C   UNL     1       7.669  29.033  56.096  1.00  0.00     0.001 A 
HETATM   23  C   UNL     1       7.725  28.378  57.324  1.00  0.00     0.003 A 
ENDBRANCH   7  10
ENDBRANCH   5   6
BRANCH   1  24
HETATM   24  C   UNL     1       4.102  29.571  52.857  1.00  0.00     0.732 A 
HETATM   25  N   UNL     1       3.980  29.070  54.048  1.00  0.00    -0.067 NA
HETATM   26  C   UNL     1       4.145  29.966  55.087  1.00  0.00     0.059 A 
HETATM   27  C   UNL     1       4.336  31.284  54.915  1.00  0.00     0.102 A 
HETATM   28  C   UNL     1       4.420  31.821  53.547  1.00  0.00     0.261 A 
HETATM   29  N   UNL     1       4.334  30.886  52.567  1.00  0.00    -0.152 N 
HETATM   30  O   UNL     1       4.558  33.017  53.332  1.00  0.00    -0.268 OA
HETATM   31  H   UNL     1       4.397  31.192  51.600  1.00  0.00     0.187 HD
BRANCH  26  32
HETATM   32  C   UNL     1       4.111  29.382  56.481  1.00  0.00     0.060 C 
BRANCH  32  33
HETATM   33  C   UNL     1       4.609  30.383  57.526  1.00  0.00     0.002 C 
HETATM   34  C   UNL     1       3.494  30.813  58.466  1.00  0.00     0.005 C 
ENDBRANCH  32  33
ENDBRANCH  26  32
ENDBRANCH   1  24
BRANCH   3  35
HETATM   35  C   UNL     1       2.321  27.997  48.647  1.00  0.00     0.105 A 
HETATM   36  O   UNL     1       1.594  29.029  48.119  1.00  0.00    -0.320 OA
HETATM   37  C   UNL     1       0.915  28.540  47.051  1.00  0.00     0.142 A 
HETATM   38  C   UNL     1       1.193  27.207  46.873  1.00  0.00     0.027 A 
HETATM   39  C   UNL     1       2.100  26.855  47.902  1.00  0.00     0.041 A 
ENDBRANCH   3  35
TORSDOF 6
ENDMDL
MODEL 4
REMARK VINA RESULT:     -10.4      2.170      7.043
REMARK  6 active torsions:
REMARK  status: ('A' for Active; 'I' for Inactive)
REMARK    1  A    between atoms: C_2  and  C_3 
REMARK    2  A    between atoms: C_3  and  C_4 
REMARK    3  A    between atoms: C_6  and  N_7 
REMARK    4  A    between atoms: C_9  and  C_10 
REMARK    5  A    between atoms: C_16  and  N_17 
REMARK       I    between atoms: N_17  and  C_18 
REMARK    6  A    between atoms: C_18  and  C_19 
ROOT
HETATM    1  N   UNL     1       6.295  25.571  52.827  1.00  0.00    -0.044 N 
HETATM    2  N   UNL     1       6.305  24.213  52.718  1.00  0.00    -0.148 NA
HETATM    3  C   UNL     1       7.184  23.825  53.648  1.00  0.00     0.115 A 
HETATM    4  C   UNL     1       7.702  24.914  54.383  1.00  0.00     0.087 A 
HETATM    5  C   UNL     1       7.106  26.035  53.852  1.00  0.00     0.152 A 
ENDROOT
BRANCH   5   6
HETATM    6  N   UNL     1       7.247  27.373  54.229  1.00  0.00    -0.310 N 
HETATM    7  C   UNL     1       6.882  27.891  55.524  1.00  0.00     0.236 C 
HETATM    8  O   UNL     1       6.478  27.133  56.398  1.00  0.00    -0.272 OA
HETATM    9  H   UNL     1       7.597  28.015  53.511  1.00  0.00     0.170 HD
BRANCH   7  10
HETATM   10  C   UNL     1       7.049  29.389  55.755  1.00  0.00     0.149 C 
HETATM   11  C   UNL     1       8.318  29.714  56.504  1.00  0.00    -0.007 A 
HETATM   12  C   UNL     1       8.250  30.308  57.767  1.00  0.00     0.083 A 
HETATM   13  C   UNL     1       9.577  29.434  55.948  1.00  0.00     0.011 A 
HETATM   14  C   UNL     1       9.418  30.617  58.465  1.00  0.00     0.038 A 
HETATM   15  O   UNL     1       7.070  30.612  58.399  1.00  0.00    -0.310 OA
HETATM   16  C   UNL     1      10.664  30.326  57.912  1.00  0.00     0.003 A 
HETATM   17  C   UNL     1      10.743  29.734  56.653  1.00  0.00     0.001 A 
HETATM   18  C   UNL     1       5.902  30.529  57.685  1.00  0.00     0.083 A 
HETATM   19  C   UNL     1       5.818  29.968  56.409  1.00  0.00    -0.007 A 
HETATM   20  C   UNL     1       4.766  31.052  58.303  1.00  0.00     0.038 A 
HETATM   21  C   UNL     1       4.579  29.960  55.747  1.00  0.00     0.011 A 
HETATM   22  C   UNL     1       3.446  30.493  56.362  1.00  0.00     0.001 A 
HETATM   23  C   UNL     1       3.538  31.035  57.642  1.00  0.00     0.003 A 
ENDBRANCH   7  10
ENDBRANCH   5   6
BRANCH   1  24
HETATM   24  C   UNL     1       5.511  26.339  51.954  1.00  0.00     0.732 A 
HETATM   25  N   UNL     1       5.571  26.213  50.664  1.00  0.00    -0.067 NA
HETATM   26  C   UNL     1       4.705  27.018  49.950  1.00  0.00     0.059 A 
HETATM   27  C   UNL     1       3.902  27.937  50.512  1.00  0.00     0.102 A 
HETATM   28  C   UNL     1       3.899  28.083  51.976  1.00  0.00     0.261 A 
HETATM   29  N   UNL     1       4.706  27.211  52.632  1.00  0.00    -0.152 N 
HETATM   30  O   UNL     1       3.214  28.926  52.538  1.00  0.00    -0.268 OA
HETATM   31  H   UNL     1       4.739  27.252  53.646  1.00  0.00     0.187 HD
BRANCH  26  32
HETATM   32  C   UNL     1       4.686  26.811  48.452  1.00  0.00     0.060 C 
BRANCH  32  33
HETATM   33  C   UNL     1       3.281  26.475  47.946  1.00  0.00     0.002 C 
HETATM   34  C   UNL     1       3.018  24.977  47.976  1.00  0.00     0.005 C 
ENDBRANCH  32  33
ENDBRANCH  26  32
ENDBRANCH   1  24
BRANCH   3  35
HETATM   35  C   UNL     1       7.563  22.399  53.862  1.00  0.00     0.105 A 
HETATM   36  O   UNL     1       7.539  21.772  55.078  1.00  0.00    -0.320 OA
HETATM   37  C   UNL     1       7.958  20.496  54.882  1.00  0.00     0.142 A 
HETATM   38  C   UNL     1       8.249  20.282  53.557  1.00  0.00     0.027 A 
HETATM   39  C   UNL     1       7.995  21.509  52.897  1.00  0.00     0.041 A 
ENDBRANCH   3  35
TORSDOF 6
ENDMDL
MODEL 5
REMARK VINA RESULT:     -10.0      1.920      7.782
REMARK  6 active torsions:
REMARK  status: ('A' for Active; 'I' for Inactive)
REMARK    1  A    between atoms: C_2  and  C_3 
REMARK    2  A    between atoms: C_3  and  C_4 
REMARK    3  A    between atoms: C_6  and  N_7 
REMARK    4  A    between atoms: C_9  and  C_10 
REMARK    5  A    between atoms: C_16  and  N_17 
REMARK       I    between atoms: N_17  and  C_18 
REMARK    6  A    between atoms: C_18  and  C_19 
ROOT
HETATM    1  N   UNL     1       7.109  25.863  54.082  1.00  0.00    -0.044 N 
HETATM    2  N   UNL     1       7.596  24.756  54.709  1.00  0.00    -0.148 NA
HETATM    3  C   UNL     1       7.660  23.841  53.736  1.00  0.00     0.115 A 
HETATM    4  C   UNL     1       7.265  24.362  52.484  1.00  0.00     0.087 A 
HETATM    5  C   UNL     1       6.926  25.675  52.720  1.00  0.00     0.152 A 
ENDROOT
BRANCH   5   6
HETATM    6  N   UNL     1       6.492  26.651  51.820  1.00  0.00    -0.310 N 
HETATM    7  C   UNL     1       5.107  26.984  51.594  1.00  0.00     0.236 C 
HETATM    8  O   UNL     1       4.229  26.447  52.259  1.00  0.00    -0.272 OA
HETATM    9  H   UNL     1       7.218  27.117  51.268  1.00  0.00     0.170 HD
BRANCH   7  10
HETATM   10  C   UNL     1       4.801  28.038  50.534  1.00  0.00     0.149 C 
HETATM   11  C   UNL     1       4.153  29.267  51.121  1.00  0.00    -0.007 A 
HETATM   12  C   UNL     1       2.855  29.620  50.742  1.00  0.00     0.083 A 
HETATM   13  C   UNL     1       4.837  30.075  52.045  1.00  0.00     0.011 A 
HETATM   14  C   UNL     1       2.249  30.758  51.275  1.00  0.00     0.038 A 
HETATM   15  O   UNL     1       2.101  28.892  49.855  1.00  0.00    -0.310 OA
HETATM   16  C   UNL     1       2.929  31.548  52.199  1.00  0.00     0.003 A 
HETATM   17  C   UNL     1       4.224  31.206  52.584  1.00  0.00     0.001 A 
HETATM   18  C   UNL     1       2.709  27.891  49.142  1.00  0.00     0.083 A 
HETATM   19  C   UNL     1       4.004  27.438  49.402  1.00  0.00    -0.007 A 
HETATM   20  C   UNL     1       1.959  27.332  48.107  1.00  0.00     0.038 A 
HETATM   21  C   UNL     1       4.550  26.429  48.591  1.00  0.00     0.011 A 
HETATM   22  C   UNL     1       3.803  25.877  47.551  1.00  0.00     0.001 A 
HETATM   23  C   UNL     1       2.506  26.326  47.311  1.00  0.00     0.003 A 
ENDBRANCH   7  10
ENDBRANCH   5   6
BRANCH   1  24
HETATM   24  C   UNL     1       6.854  27.030  54.817  1.00  0.00     0.732 A 
HETATM   25  N   UNL     1       7.794  27.716  55.390  1.00  0.00    -0.067 NA
HETATM   26  C   UNL     1       7.378  28.860  56.044  1.00  0.00     0.059 A 
HETATM   27  C   UNL     1       6.090  29.224  56.168  1.00  0.00     0.102 A 
HETATM   28  C   UNL     1       5.049  28.392  55.545  1.00  0.00     0.261 A 
HETATM   29  N   UNL     1       5.520  27.327  54.847  1.00  0.00    -0.152 N 
HETATM   30  O   UNL     1       3.861  28.657  55.656  1.00  0.00    -0.268 OA
HETATM   31  H   UNL     1       4.852  26.719  54.382  1.00  0.00     0.187 HD
BRANCH  26  32
HETATM   32  C   UNL     1       8.470  29.728  56.627  1.00  0.00     0.060 C 
BRANCH  32  33
HETATM   33  C   UNL     1       9.806  29.513  55.911  1.00  0.00     0.002 C 
HETATM   34  C   UNL     1      10.980  29.629  56.870  1.00  0.00     0.005 C 
ENDBRANCH  32  33
ENDBRANCH  26  32
ENDBRANCH   1  24
BRANCH   3  35
HETATM   35  C   UNL     1       8.097  22.435  53.971  1.00  0.00     0.105 A 
HETATM   36  O   UNL     1       8.687  21.997  55.125  1.00  0.00    -0.320 OA
HETATM   37  C   UNL     1       8.954  20.675  54.967  1.00  0.00     0.142 A 
HETATM   38  C   UNL     1       8.542  20.247  53.729  1.00  0.00     0.027 A 
HETATM   39  C   UNL     1       7.989  21.381  53.085  1.00  0.00     0.041 A 
ENDBRANCH   3  35
TORSDOF 6
ENDMDL
MODEL 6
REMARK VINA RESULT:     -10.0      1.959      7.615
REMARK  6 active torsions:
REMARK  status: ('A' for Active; 'I' for Inactive)
REMARK    1  A    between atoms: C_2  and  C_3 
REMARK    2  A    between atoms: C_3  and  C_4 
REMARK    3  A    between atoms: C_6  and  N_7 
REMARK    4  A    between atoms: C_9  and  C_10 
REMARK    5  A    between atoms: C_16  and  N_17 
REMARK       I    between atoms: N_17  and  C_18 
REMARK    6  A    between atoms: C_18  and  C_19 
ROOT
HETATM    1  N   UNL     1       7.071  26.093  53.817  1.00  0.00    -0.044 N 
HETATM    2  N   UNL     1       7.602  25.038  54.496  1.00  0.00    -0.148 NA
HETATM    3  C   UNL     1       7.706  24.080  53.568  1.00  0.00     0.115 A 
HETATM    4  C   UNL     1       7.293  24.525  52.292  1.00  0.00     0.087 A 
HETATM    5  C   UNL     1       6.900  25.832  52.465  1.00  0.00     0.152 A 
ENDROOT
BRANCH   5   6
HETATM    6  N   UNL     1       6.429  26.745  51.519  1.00  0.00    -0.310 N 
HETATM    7  C   UNL     1       5.035  26.932  51.199  1.00  0.00     0.236 C 
HETATM    8  O   UNL     1       4.174  26.317  51.818  1.00  0.00    -0.272 OA
HETATM    9  H   UNL     1       7.138  27.276  51.004  1.00  0.00     0.170 HD
BRANCH   7  10
HETATM   10  C   UNL     1       4.694  27.933  50.100  1.00  0.00     0.149 C 
HETATM   11  C   UNL     1       4.112  29.211  50.652  1.00  0.00    -0.007 A 
HETATM   12  C   UNL     1       2.804  29.579  50.328  1.00  0.00     0.083 A 
HETATM   13  C   UNL     1       4.870  30.049  51.486  1.00  0.00     0.011 A 
HETATM   14  C   UNL     1       2.259  30.762  50.828  1.00  0.00     0.038 A 
HETATM   15  O   UNL     1       1.980  28.825  49.529  1.00  0.00    -0.310 OA
HETATM   16  C   UNL     1       3.013  31.583  51.665  1.00  0.00     0.003 A 
HETATM   17  C   UNL     1       4.319  31.225  51.994  1.00  0.00     0.001 A 
HETATM   18  C   UNL     1       2.520  27.768  48.841  1.00  0.00     0.083 A 
HETATM   19  C   UNL     1       3.816  27.294  49.052  1.00  0.00    -0.007 A 
HETATM   20  C   UNL     1       1.696  27.174  47.884  1.00  0.00     0.038 A 
HETATM   21  C   UNL     1       4.287  26.225  48.270  1.00  0.00     0.011 A 
HETATM   22  C   UNL     1       3.466  25.638  47.308  1.00  0.00     0.001 A 
HETATM   23  C   UNL     1       2.169  26.109  47.117  1.00  0.00     0.003 A 
ENDBRANCH   7  10
ENDBRANCH   5   6
BRANCH   1  24
HETATM   24  C   UNL     1       6.766  27.282  54.495  1.00  0.00     0.732 A 
HETATM   25  N   UNL     1       5.577  27.799  54.501  1.00  0.00    -0.067 NA
HETATM   26  C   UNL     1       5.437  28.953  55.249  1.00  0.00     0.059 A 
HETATM   27  C   UNL     1       6.456  29.569  55.871  1.00  0.00     0.102 A 
HETATM   28  C   UNL     1       7.800  28.976  55.800  1.00  0.00     0.261 A 
HETATM   29  N   UNL     1       7.863  27.801  55.123  1.00  0.00    -0.152 N 
HETATM   30  O   UNL     1       8.769  29.512  56.318  1.00  0.00    -0.268 OA
HETATM   31  H   UNL     1       8.763  27.333  55.048  1.00  0.00     0.187 HD
BRANCH  26  32
HETATM   32  C   UNL     1       4.036  29.513  55.353  1.00  0.00     0.060 C 
BRANCH  32  33
HETATM   33  C   UNL     1       4.048  31.023  55.605  1.00  0.00     0.002 C 
HETATM   34  C   UNL     1       2.641  31.598  55.631  1.00  0.00     0.005 C 
ENDBRANCH  32  33
ENDBRANCH  26  32
ENDBRANCH   1  24
BRANCH   3  35
HETATM   35  C   UNL     1       8.200  22.706  53.871  1.00  0.00     0.105 A 
HETATM   36  O   UNL     1       8.878  22.368  55.009  1.00  0.00    -0.320 OA
HETATM   37  C   UNL     1       9.173  21.046  54.926  1.00  0.00     0.142 A 
HETATM   38  C   UNL     1       8.692  20.518  53.752  1.00  0.00     0.027 A 
HETATM   39  C   UNL     1       8.064  21.589  53.070  1.00  0.00     0.041 A 
ENDBRANCH   3  35
TORSDOF 6
ENDMDL
MODEL 7
REMARK VINA RESULT:      -9.9      2.412      7.554
REMARK  6 active torsions:
REMARK  status: ('A' for Active; 'I' for Inactive)
REMARK    1  A    between atoms: C_2  and  C_3 
REMARK    2  A    between atoms: C_3  and  C_4 
REMARK    3  A    between atoms: C_6  and  N_7 
REMARK    4  A    between atoms: C_9  and  C_10 
REMARK    5  A    between atoms: C_16  and  N_17 
REMARK       I    between atoms: N_17  and  C_18 
REMARK    6  A    between atoms: C_18  and  C_19 
ROOT
HETATM    1  N   UNL     1       5.320  25.831  51.952  1.00  0.00    -0.044 N 
HETATM    2  N   UNL     1       6.067  24.692  51.953  1.00  0.00    -0.148 NA
HETATM    3  C   UNL     1       6.259  24.438  53.252  1.00  0.00     0.115 A 
HETATM    4  C   UNL     1       5.603  25.373  54.083  1.00  0.00     0.087 A 
HETATM    5  C   UNL     1       4.987  26.259  53.229  1.00  0.00     0.152 A 
ENDROOT
BRANCH   5   6
HETATM    6  N   UNL     1       4.185  27.362  53.530  1.00  0.00    -0.310 N 
HETATM    7  C   UNL     1       4.688  28.700  53.719  1.00  0.00     0.236 C 
HETATM    8  O   UNL     1       5.879  28.939  53.553  1.00  0.00    -0.272 OA
HETATM    9  H   UNL     1       3.185  27.179  53.657  1.00  0.00     0.170 HD
BRANCH   7  10
HETATM   10  C   UNL     1       3.683  29.783  54.097  1.00  0.00     0.149 C 
HETATM   11  C   UNL     1       3.358  30.691  52.937  1.00  0.00    -0.007 A 
HETATM   12  C   UNL     1       3.681  32.049  53.002  1.00  0.00     0.083 A 
HETATM   13  C   UNL     1       2.726  30.194  51.785  1.00  0.00     0.011 A 
HETATM   14  C   UNL     1       3.380  32.898  51.937  1.00  0.00     0.038 A 
HETATM   15  O   UNL     1       4.306  32.628  54.078  1.00  0.00    -0.310 OA
HETATM   16  C   UNL     1       2.763  32.396  50.792  1.00  0.00     0.003 A 
HETATM   17  C   UNL     1       2.437  31.044  50.716  1.00  0.00     0.001 A 
HETATM   18  C   UNL     1       4.438  31.899  55.233  1.00  0.00     0.083 A 
HETATM   19  C   UNL     1       4.146  30.536  55.320  1.00  0.00    -0.007 A 
HETATM   20  C   UNL     1       4.881  32.601  56.355  1.00  0.00     0.038 A 
HETATM   21  C   UNL     1       4.281  29.887  56.559  1.00  0.00     0.011 A 
HETATM   22  C   UNL     1       4.715  30.592  57.681  1.00  0.00     0.001 A 
HETATM   23  C   UNL     1       5.019  31.948  57.579  1.00  0.00     0.003 A 
ENDBRANCH   7  10
ENDBRANCH   5   6
BRANCH   1  24
HETATM   24  C   UNL     1       4.965  26.436  50.738  1.00  0.00     0.732 A 
HETATM   25  N   UNL     1       5.305  27.651  50.436  1.00  0.00    -0.067 NA
HETATM   26  C   UNL     1       4.908  28.083  49.184  1.00  0.00     0.059 A 
HETATM   27  C   UNL     1       4.153  27.354  48.346  1.00  0.00     0.102 A 
HETATM   28  C   UNL     1       3.748  25.997  48.747  1.00  0.00     0.261 A 
HETATM   29  N   UNL     1       4.234  25.594  49.948  1.00  0.00    -0.152 N 
HETATM   30  O   UNL     1       3.032  25.303  48.038  1.00  0.00    -0.268 OA
HETATM   31  H   UNL     1       4.000  24.662  50.277  1.00  0.00     0.187 HD
BRANCH  26  32
HETATM   32  C   UNL     1       5.383  29.458  48.773  1.00  0.00     0.060 C 
BRANCH  32  33
HETATM   33  C   UNL     1       5.894  30.262  49.971  1.00  0.00     0.002 C 
HETATM   34  C   UNL     1       6.123  31.721  49.611  1.00  0.00     0.005 C 
ENDBRANCH  32  33
ENDBRANCH  26  32
ENDBRANCH   1  24
BRANCH   3  35
HETATM   35  C   UNL     1       7.079  23.293  53.743  1.00  0.00     0.105 A 
HETATM   36  O   UNL     1       7.142  22.898  55.051  1.00  0.00    -0.320 OA
HETATM   37  C   UNL     1       7.992  21.842  55.114  1.00  0.00     0.142 A 
HETATM   38  C   UNL     1       8.480  21.542  53.865  1.00  0.00     0.027 A 
HETATM   39  C   UNL     1       7.892  22.478  52.980  1.00  0.00     0.041 A 
ENDBRANCH   3  35
TORSDOF 6
ENDMDL
MODEL 8
REMARK VINA RESULT:      -9.8      2.751      7.642
REMARK  6 active torsions:
REMARK  status: ('A' for Active; 'I' for Inactive)
REMARK    1  A    between atoms: C_2  and  C_3 
REMARK    2  A    between atoms: C_3  and  C_4 
REMARK    3  A    between atoms: C_6  and  N_7 
REMARK    4  A    between atoms: C_9  and  C_10 
REMARK    5  A    between atoms: C_16  and  N_17 
REMARK       I    between atoms: N_17  and  C_18 
REMARK    6  A    between atoms: C_18  and  C_19 
ROOT
HETATM    1  N   UNL     1       5.284  29.622  57.283  1.00  0.00    -0.044 N 
HETATM    2  N   UNL     1       5.237  30.627  58.203  1.00  0.00    -0.148 NA
HETATM    3  C   UNL     1       4.093  31.261  57.924  1.00  0.00     0.115 A 
HETATM    4  C   UNL     1       3.384  30.647  56.868  1.00  0.00     0.087 A 
HETATM    5  C   UNL     1       4.158  29.580  56.474  1.00  0.00     0.152 A 
ENDROOT
BRANCH   5   6
HETATM    6  N   UNL     1       3.909  28.626  55.484  1.00  0.00    -0.310 N 
HETATM    7  C   UNL     1       4.586  28.586  54.211  1.00  0.00     0.236 C 
HETATM    8  O   UNL     1       5.486  29.381  53.968  1.00  0.00    -0.272 OA
HETATM    9  H   UNL     1       3.169  27.946  55.681  1.00  0.00     0.170 HD
BRANCH   7  10
HETATM   10  C   UNL     1       4.156  27.510  53.220  1.00  0.00     0.149 C 
HETATM   11  C   UNL     1       5.170  26.398  53.108  1.00  0.00    -0.007 A 
HETATM   12  C   UNL     1       5.822  26.168  51.894  1.00  0.00     0.083 A 
HETATM   13  C   UNL     1       5.468  25.578  54.209  1.00  0.00     0.011 A 
HETATM   14  C   UNL     1       6.757  25.139  51.779  1.00  0.00     0.038 A 
HETATM   15  O   UNL     1       5.608  26.918  50.765  1.00  0.00    -0.310 OA
HETATM   16  C   UNL     1       7.057  24.336  52.879  1.00  0.00     0.003 A 
HETATM   17  C   UNL     1       6.412  24.557  54.094  1.00  0.00     0.001 A 
HETATM   18  C   UNL     1       4.557  27.800  50.752  1.00  0.00     0.083 A 
HETATM   19  C   UNL     1       3.809  28.123  51.886  1.00  0.00    -0.007 A 
HETATM   20  C   UNL     1       4.253  28.374  49.517  1.00  0.00     0.038 A 
HETATM   21  C   UNL     1       2.730  29.014  51.760  1.00  0.00     0.011 A 
HETATM   22  C   UNL     1       2.421  29.579  50.523  1.00  0.00     0.001 A 
HETATM   23  C   UNL     1       3.184  29.263  49.402  1.00  0.00     0.003 A 
ENDBRANCH   7  10
ENDBRANCH   5   6
BRANCH   1  24
HETATM   24  C   UNL     1       6.393  28.765  57.238  1.00  0.00     0.732 A 
HETATM   25  N   UNL     1       6.296  27.485  57.426  1.00  0.00    -0.067 NA
HETATM   26  C   UNL     1       7.479  26.779  57.310  1.00  0.00     0.059 A 
HETATM   27  C   UNL     1       8.675  27.353  57.099  1.00  0.00     0.102 A 
HETATM   28  C   UNL     1       8.748  28.814  56.939  1.00  0.00     0.261 A 
HETATM   29  N   UNL     1       7.549  29.447  56.979  1.00  0.00    -0.152 N 
HETATM   30  O   UNL     1       9.814  29.392  56.779  1.00  0.00    -0.268 OA
HETATM   31  H   UNL     1       7.530  30.456  56.863  1.00  0.00     0.187 HD
BRANCH  26  32
HETATM   32  C   UNL     1       7.370  25.275  57.423  1.00  0.00     0.060 C 
BRANCH  32  33
HETATM   33  C   UNL     1       8.738  24.599  57.302  1.00  0.00     0.002 C 
HETATM   34  C   UNL     1       8.634  23.239  56.630  1.00  0.00     0.005 C 
ENDBRANCH  32  33
ENDBRANCH  26  32
ENDBRANCH   1  24
BRANCH   3  35
HETATM   35  C   UNL     1       3.642  32.480  58.655  1.00  0.00     0.105 A 
HETATM   36  O   UNL     1       2.836  32.458  59.760  1.00  0.00    -0.320 OA
HETATM   37  C   UNL     1       2.631  33.746  60.136  1.00  0.00     0.142 A 
HETATM   38  C   UNL     1       3.295  34.604  59.295  1.00  0.00     0.027 A 
HETATM   39  C   UNL     1       3.948  33.789  58.339  1.00  0.00     0.041 A 
ENDBRANCH   3  35
TORSDOF 6
ENDMDL
MODEL 9
REMARK VINA RESULT:      -9.5      3.133      6.473
REMARK  6 active torsions:
REMARK  status: ('A' for Active; 'I' for Inactive)
REMARK    1  A    between atoms: C_2  and  C_3 
REMARK    2  A    between atoms: C_3  and  C_4 
REMARK    3  A    between atoms: C_6  and  N_7 
REMARK    4  A    between atoms: C_9  and  C_10 
REMARK    5  A    between atoms: C_16  and  N_17 
REMARK       I    between atoms: N_17  and  C_18 
REMARK    6  A    between atoms: C_18  and  C_19 
ROOT
HETATM    1  N   UNL     1       4.953  31.817  56.833  1.00  0.00    -0.044 N 
HETATM    2  N   UNL     1       3.982  32.715  57.158  1.00  0.00    -0.148 NA
HETATM    3  C   UNL     1       3.227  32.781  56.055  1.00  0.00     0.115 A 
HETATM    4  C   UNL     1       3.677  31.901  55.046  1.00  0.00     0.087 A 
HETATM    5  C   UNL     1       4.784  31.273  55.568  1.00  0.00     0.152 A 
ENDROOT
BRANCH   5   6
HETATM    6  N   UNL     1       5.594  30.290  54.996  1.00  0.00    -0.310 N 
HETATM    7  C   UNL     1       5.239  28.894  54.918  1.00  0.00     0.236 C 
HETATM    8  O   UNL     1       4.141  28.516  55.310  1.00  0.00    -0.272 OA
HETATM    9  H   UNL     1       6.509  30.595  54.651  1.00  0.00     0.170 HD
BRANCH   7  10
HETATM   10  C   UNL     1       6.263  27.941  54.310  1.00  0.00     0.149 C 
HETATM   11  C   UNL     1       5.816  27.399  52.974  1.00  0.00    -0.007 A 
HETATM   12  C   UNL     1       5.591  26.029  52.818  1.00  0.00     0.083 A 
HETATM   13  C   UNL     1       5.627  28.253  51.875  1.00  0.00     0.011 A 
HETATM   14  C   UNL     1       5.183  25.518  51.585  1.00  0.00     0.038 A 
HETATM   15  O   UNL     1       5.738  25.116  53.831  1.00  0.00    -0.310 OA
HETATM   16  C   UNL     1       4.986  26.372  50.501  1.00  0.00     0.003 A 
HETATM   17  C   UNL     1       5.208  27.740  50.647  1.00  0.00     0.001 A 
HETATM   18  C   UNL     1       6.335  25.521  54.999  1.00  0.00     0.083 A 
HETATM   19  C   UNL     1       6.627  26.854  55.291  1.00  0.00    -0.007 A 
HETATM   20  C   UNL     1       6.654  24.511  55.907  1.00  0.00     0.038 A 
HETATM   21  C   UNL     1       7.271  27.162  56.502  1.00  0.00     0.011 A 
HETATM   22  C   UNL     1       7.599  26.150  57.404  1.00  0.00     0.001 A 
HETATM   23  C   UNL     1       7.287  24.825  57.109  1.00  0.00     0.003 A 
ENDBRANCH   7  10
ENDBRANCH   5   6
BRANCH   1  24
HETATM   24  C   UNL     1       5.977  31.531  57.748  1.00  0.00     0.732 A 
HETATM   25  N   UNL     1       6.920  30.676  57.498  1.00  0.00    -0.067 NA
HETATM   26  C   UNL     1       7.872  30.538  58.490  1.00  0.00     0.059 A 
HETATM   27  C   UNL     1       7.813  31.166  59.676  1.00  0.00     0.102 A 
HETATM   28  C   UNL     1       6.700  32.091  59.940  1.00  0.00     0.261 A 
HETATM   29  N   UNL     1       5.841  32.252  58.901  1.00  0.00    -0.152 N 
HETATM   30  O   UNL     1       6.578  32.663  61.014  1.00  0.00    -0.268 OA
HETATM   31  H   UNL     1       5.057  32.887  59.015  1.00  0.00     0.187 HD
BRANCH  26  32
HETATM   32  C   UNL     1       9.036  29.625  58.174  1.00  0.00     0.060 C 
BRANCH  32  33
HETATM   33  C   UNL     1      10.098  30.335  57.330  1.00  0.00     0.002 C 
HETATM   34  C   UNL     1      10.236  29.700  55.955  1.00  0.00     0.005 C 
ENDBRANCH  32  33
ENDBRANCH  26  32
ENDBRANCH   1  24
BRANCH   3  35
HETATM   35  C   UNL     1       2.054  33.692  55.928  1.00  0.00     0.105 A 
HETATM   36  O   UNL     1       0.810  33.290  55.524  1.00  0.00    -0.320 OA
HETATM   37  C   UNL     1       0.012  34.388  55.518  1.00  0.00     0.142 A 
HETATM   38  C   UNL     1       0.717  35.497  55.917  1.00  0.00     0.027 A 
HETATM   39  C   UNL     1       2.035  35.050  56.182  1.00  0.00     0.041 A 
ENDBRANCH   3  35
TORSDOF 6
ENDMDL
MODEL 10
REMARK VINA RESULT:      -9.5      3.048      7.082
REMARK  6 active torsions:
REMARK  status: ('A' for Active; 'I' for Inactive)
REMARK    1  A    between atoms: C_2  and  C_3 
REMARK    2  A    between atoms: C_3  and  C_4 
REMARK    3  A    between atoms: C_6  and  N_7 
REMARK    4  A    between atoms: C_9  and  C_10 
REMARK    5  A    between atoms: C_16  and  N_17 
REMARK       I    between atoms: N_17  and  C_18 
REMARK    6  A    between atoms: C_18  and  C_19 
ROOT
HETATM    1  N   UNL     1       5.733  30.461  56.656  1.00  0.00    -0.044 N 
HETATM    2  N   UNL     1       6.420  31.275  57.506  1.00  0.00    -0.148 NA
HETATM    3  C   UNL     1       7.124  30.425  58.261  1.00  0.00     0.115 A 
HETATM    4  C   UNL     1       6.933  29.080  57.874  1.00  0.00     0.087 A 
HETATM    5  C   UNL     1       6.043  29.120  56.825  1.00  0.00     0.152 A 
ENDROOT
BRANCH   5   6
HETATM    6  N   UNL     1       5.534  28.069  56.058  1.00  0.00    -0.310 N 
HETATM    7  C   UNL     1       6.261  27.417  54.997  1.00  0.00     0.236 C 
HETATM    8  O   UNL     1       7.422  27.731  54.764  1.00  0.00    -0.272 OA
HETATM    9  H   UNL     1       4.569  27.788  56.253  1.00  0.00     0.170 HD
BRANCH   7  10
HETATM   10  C   UNL     1       5.538  26.322  54.220  1.00  0.00     0.149 C 
HETATM   11  C   UNL     1       6.331  25.038  54.170  1.00  0.00    -0.007 A 
HETATM   12  C   UNL     1       6.781  24.543  52.944  1.00  0.00     0.083 A 
HETATM   13  C   UNL     1       6.622  24.323  55.344  1.00  0.00     0.011 A 
HETATM   14  C   UNL     1       7.510  23.355  52.887  1.00  0.00     0.038 A 
HETATM   15  O   UNL     1       6.557  25.173  51.745  1.00  0.00    -0.310 OA
HETATM   16  C   UNL     1       7.804  22.656  54.056  1.00  0.00     0.003 A 
HETATM   17  C   UNL     1       7.360  23.141  55.285  1.00  0.00     0.001 A 
HETATM   18  C   UNL     1       5.676  26.223  51.708  1.00  0.00     0.083 A 
HETATM   19  C   UNL     1       5.137  26.816  52.852  1.00  0.00    -0.007 A 
HETATM   20  C   UNL     1       5.322  26.683  50.439  1.00  0.00     0.038 A 
HETATM   21  C   UNL     1       4.215  27.866  52.706  1.00  0.00     0.011 A 
HETATM   22  C   UNL     1       3.854  28.318  51.437  1.00  0.00     0.001 A 
HETATM   23  C   UNL     1       4.411  27.730  50.303  1.00  0.00     0.003 A 
ENDBRANCH   7  10
ENDBRANCH   5   6
BRANCH   1  24
HETATM   24  C   UNL     1       4.830  31.012  55.735  1.00  0.00     0.732 A 
HETATM   25  N   UNL     1       5.013  30.949  54.452  1.00  0.00    -0.067 NA
HETATM   26  C   UNL     1       4.010  31.508  53.683  1.00  0.00     0.059 A 
HETATM   27  C   UNL     1       2.947  32.152  54.193  1.00  0.00     0.102 A 
HETATM   28  C   UNL     1       2.801  32.244  55.654  1.00  0.00     0.261 A 
HETATM   29  N   UNL     1       3.770  31.607  56.360  1.00  0.00    -0.152 N 
HETATM   30  O   UNL     1       1.872  32.848  56.172  1.00  0.00    -0.268 OA
HETATM   31  H   UNL     1       3.720  31.623  57.374  1.00  0.00     0.187 HD
BRANCH  26  32
HETATM   32  C   UNL     1       4.154  31.352  52.186  1.00  0.00     0.060 C 
BRANCH  32  33
HETATM   33  C   UNL     1       4.363  32.702  51.494  1.00  0.00     0.002 C 
HETATM   34  C   UNL     1       5.590  32.688  50.597  1.00  0.00     0.005 C 
ENDBRANCH  32  33
ENDBRANCH  26  32
ENDBRANCH   1  24
BRANCH   3  35
HETATM   35  C   UNL     1       8.001  30.870  59.382  1.00  0.00     0.105 A 
HETATM   36  O   UNL     1       8.602  30.021  60.270  1.00  0.00    -0.320 OA
HETATM   37  C   UNL     1       9.304  30.784  61.147  1.00  0.00     0.142 A 
HETATM   38  C   UNL     1       9.171  32.116  60.838  1.00  0.00     0.027 A 
HETATM   39  C   UNL     1       8.331  32.173  59.700  1.00  0.00     0.041 A 
ENDBRANCH   3  35
TORSDOF 6
ENDMDL
