MODEL 1
REMARK VINA RESULT:      -9.5      0.000      0.000
REMARK  7 active torsions:
REMARK  status: ('A' for Active; 'I' for Inactive)
REMARK    1  A    between atoms: C_2  and  C_3 
REMARK    2  A    between atoms: C_3  and  C_4 
REMARK    3  A    between atoms: C_8  and  C_9 
REMARK       I    between atoms: C_9  and  N_10 
REMARK    4  A    between atoms: N_10  and  C_11 
REMARK    5  A    between atoms: C_11  and  C_12 
REMARK    6  A    between atoms: C_12  and  N_13 
REMARK    7  A    between atoms: C_16  and  C_17 
ROOT
HETATM    1  C   UNL     1       7.504  28.171  56.928  1.00  0.00     0.150 C 
ENDROOT
BRANCH   1   2
HETATM    2  N   UNL     1       7.554  28.884  58.197  1.00  0.00    -0.354 N 
HETATM    3  C   UNL     1       8.563  29.774  58.522  1.00  0.00     0.272 C 
HETATM    4  O   UNL     1       9.653  29.747  57.959  1.00  0.00    -0.266 OA
HETATM    5  H   UNL     1       6.676  29.112  58.671  1.00  0.00     0.162 HD
BRANCH   3   6
HETATM    6  C   UNL     1       8.231  30.658  59.643  1.00  0.00     0.146 A 
HETATM    7  N   UNL     1       7.191  31.514  59.567  1.00  0.00    -0.169 NA
HETATM    8  N   UNL     1       7.190  32.129  60.766  1.00  0.00    -0.282 N 
HETATM    9  C   UNL     1       8.179  31.696  61.605  1.00  0.00     0.030 A 
HETATM   10  H   UNL     1       6.480  32.834  60.951  1.00  0.00     0.189 HD
HETATM   11  C   UNL     1       8.876  30.743  60.898  1.00  0.00     0.065 A 
BRANCH   9  12
HETATM   12  C   UNL     1       8.356  32.238  62.982  1.00  0.00     0.058 C 
BRANCH  12  13
HETATM   13  C   UNL     1       7.185  33.136  63.384  1.00  0.00     0.002 C 
HETATM   14  C   UNL     1       7.275  33.547  64.844  1.00  0.00     0.005 C 
ENDBRANCH  12  13
ENDBRANCH   9  12
ENDBRANCH   3   6
ENDBRANCH   1   2
BRANCH   1  15
HETATM   15  C   UNL     1       6.346  27.161  56.786  1.00  0.00     0.254 C 
BRANCH  15  16
HETATM   16  N   UNL     1       6.830  25.755  57.028  1.00  0.00    -0.069 N 
HETATM   17  H   UNL     1       6.306  25.448  57.862  1.00  0.00     0.280 HD
HETATM   18  C   UNL     1       6.554  24.750  55.939  1.00  0.00     0.244 C 
HETATM   19  C   UNL     1       7.526  23.624  56.282  1.00  0.00     0.046 C 
HETATM   20  C   UNL     1       8.789  24.391  56.670  1.00  0.00     0.039 C 
HETATM   21  C   UNL     1       8.290  25.634  57.397  1.00  0.00     0.235 C 
BRANCH  19  22
HETATM   22  C   UNL     1       7.752  22.593  55.197  1.00  0.00    -0.046 A 
HETATM   23  C   UNL     1       8.145  21.270  55.507  1.00  0.00    -0.055 A 
HETATM   24  C   UNL     1       8.360  20.797  56.922  1.00  0.00     0.049 C 
HETATM   25  C   UNL     1       8.340  20.344  54.468  1.00  0.00     0.007 A 
HETATM   26  C   UNL     1       8.172  20.712  53.137  1.00  0.00     0.001 A 
HETATM   27  C   UNL     1       7.810  22.015  52.822  1.00  0.00     0.001 A 
HETATM   28  C   UNL     1       7.607  22.946  53.840  1.00  0.00     0.008 A 
ENDBRANCH  19  22
ENDBRANCH  15  16
ENDBRANCH   1  15
TORSDOF 7
ENDMDL
MODEL 2
REMARK VINA RESULT:      -9.4      1.727      2.766
REMARK  7 active torsions:
REMARK  status: ('A' for Active; 'I' for Inactive)
REMARK    1  A    between atoms: C_2  and  C_3 
REMARK    2  A    between atoms: C_3  and  C_4 
REMARK    3  A    between atoms: C_8  and  C_9 
REMARK       I    between atoms: C_9  and  N_10 
REMARK    4  A    between atoms: N_10  and  C_11 
REMARK    5  A    between atoms: C_11  and  C_12 
REMARK    6  A    between atoms: C_12  and  N_13 
REMARK    7  A    between atoms: C_16  and  C_17 
ROOT
HETATM    1  C   UNL     1       8.201  28.383  54.561  1.00  0.00     0.150 C 
ENDROOT
BRANCH   1   2
HETATM    2  N   UNL     1       8.371  28.686  55.975  1.00  0.00    -0.354 N 
HETATM    3  C   UNL     1       9.295  29.603  56.444  1.00  0.00     0.272 C 
HETATM    4  O   UNL     1      10.269  29.935  55.776  1.00  0.00    -0.266 OA
HETATM    5  H   UNL     1       7.563  28.605  56.599  1.00  0.00     0.162 HD
BRANCH   3   6
HETATM    6  C   UNL     1       9.045  30.042  57.820  1.00  0.00     0.146 A 
HETATM    7  N   UNL     1       8.158  29.396  58.603  1.00  0.00    -0.169 NA
HETATM    8  N   UNL     1       8.213  30.063  59.773  1.00  0.00    -0.282 N 
HETATM    9  C   UNL     1       9.102  31.101  59.770  1.00  0.00     0.030 A 
HETATM   10  H   UNL     1       7.619  29.753  60.538  1.00  0.00     0.189 HD
HETATM   11  C   UNL     1       9.654  31.115  58.509  1.00  0.00     0.065 A 
BRANCH   9  12
HETATM   12  C   UNL     1       9.326  31.968  60.961  1.00  0.00     0.058 C 
BRANCH  12  13
HETATM   13  C   UNL     1       8.784  31.318  62.235  1.00  0.00     0.002 C 
HETATM   14  C   UNL     1       8.061  32.328  63.111  1.00  0.00     0.005 C 
ENDBRANCH  12  13
ENDBRANCH   9  12
ENDBRANCH   3   6
ENDBRANCH   1   2
BRANCH   1  15
HETATM   15  C   UNL     1       6.898  27.640  54.199  1.00  0.00     0.254 C 
BRANCH  15  16
HETATM   16  N   UNL     1       7.198  26.268  53.653  1.00  0.00    -0.069 N 
HETATM   17  H   UNL     1       7.842  26.445  52.866  1.00  0.00     0.280 HD
HETATM   18  C   UNL     1       7.894  25.308  54.584  1.00  0.00     0.244 C 
HETATM   19  C   UNL     1       7.635  23.960  53.914  1.00  0.00     0.046 C 
HETATM   20  C   UNL     1       6.177  24.088  53.478  1.00  0.00     0.039 C 
HETATM   21  C   UNL     1       6.015  25.543  53.056  1.00  0.00     0.235 C 
BRANCH  19  22
HETATM   22  C   UNL     1       7.911  22.738  54.763  1.00  0.00    -0.046 A 
HETATM   23  C   UNL     1       8.047  21.454  54.184  1.00  0.00    -0.055 A 
HETATM   24  C   UNL     1       7.935  21.216  52.700  1.00  0.00     0.049 C 
HETATM   25  C   UNL     1       8.307  20.346  55.008  1.00  0.00     0.007 A 
HETATM   26  C   UNL     1       8.411  20.488  56.389  1.00  0.00     0.001 A 
HETATM   27  C   UNL     1       8.254  21.740  56.968  1.00  0.00     0.001 A 
HETATM   28  C   UNL     1       8.002  22.852  56.165  1.00  0.00     0.008 A 
ENDBRANCH  19  22
ENDBRANCH  15  16
ENDBRANCH   1  15
TORSDOF 7
ENDMDL
MODEL 3
REMARK VINA RESULT:      -9.3      1.448      2.372
REMARK  7 active torsions:
REMARK  status: ('A' for Active; 'I' for Inactive)
REMARK    1  A    between atoms: C_2  and  C_3 
REMARK    2  A    between atoms: C_3  and  C_4 
REMARK    3  A    between atoms: C_8  and  C_9 
REMARK       I    between atoms: C_9  and  N_10 
REMARK    4  A    between atoms: N_10  and  C_11 
REMARK    5  A    between atoms: C_11  and  C_12 
REMARK    6  A    between atoms: C_12  and  N_13 
REMARK    7  A    between atoms: C_16  and  C_17 
ROOT
HETATM    1  C   UNL     1       8.309  28.643  56.556  1.00  0.00     0.150 C 
ENDROOT
BRANCH   1   2
HETATM    2  N   UNL     1       8.479  29.285  57.853  1.00  0.00    -0.354 N 
HETATM    3  C   UNL     1       9.403  30.290  58.081  1.00  0.00     0.272 C 
HETATM    4  O   UNL     1      10.376  30.450  57.351  1.00  0.00    -0.266 OA
HETATM    5  H   UNL     1       7.672  29.358  58.478  1.00  0.00     0.162 HD
BRANCH   3   6
HETATM    6  C   UNL     1       9.152  31.054  59.307  1.00  0.00     0.146 A 
HETATM    7  N   UNL     1       9.097  32.401  59.286  1.00  0.00    -0.169 NA
HETATM    8  N   UNL     1       8.837  32.735  60.566  1.00  0.00    -0.282 N 
HETATM    9  C   UNL     1       8.716  31.658  61.399  1.00  0.00     0.030 A 
HETATM   10  H   UNL     1       8.748  33.719  60.804  1.00  0.00     0.189 HD
HETATM   11  C   UNL     1       8.922  30.550  60.608  1.00  0.00     0.065 A 
BRANCH   9  12
HETATM   12  C   UNL     1       8.424  31.798  62.853  1.00  0.00     0.058 C 
BRANCH  12  13
HETATM   13  C   UNL     1       7.419  32.921  63.115  1.00  0.00     0.002 C 
HETATM   14  C   UNL     1       7.443  33.362  64.569  1.00  0.00     0.005 C 
ENDBRANCH  12  13
ENDBRANCH   9  12
ENDBRANCH   3   6
ENDBRANCH   1   2
BRANCH   1  15
HETATM   15  C   UNL     1       7.019  29.019  55.800  1.00  0.00     0.254 C 
BRANCH  15  16
HETATM   16  N   UNL     1       6.385  27.799  55.184  1.00  0.00    -0.069 N 
HETATM   17  H   UNL     1       5.876  28.166  54.365  1.00  0.00     0.280 HD
HETATM   18  C   UNL     1       7.323  26.733  54.680  1.00  0.00     0.244 C 
HETATM   19  C   UNL     1       6.403  25.521  54.559  1.00  0.00     0.046 C 
HETATM   20  C   UNL     1       5.559  25.625  55.828  1.00  0.00     0.039 C 
HETATM   21  C   UNL     1       5.342  27.118  56.038  1.00  0.00     0.235 C 
BRANCH  19  22
HETATM   22  C   UNL     1       7.091  24.182  54.396  1.00  0.00    -0.046 A 
HETATM   23  C   UNL     1       7.664  23.794  53.162  1.00  0.00    -0.055 A 
HETATM   24  C   UNL     1       7.634  24.674  51.939  1.00  0.00     0.049 C 
HETATM   25  C   UNL     1       8.297  22.544  53.055  1.00  0.00     0.007 A 
HETATM   26  C   UNL     1       8.352  21.672  54.140  1.00  0.00     0.001 A 
HETATM   27  C   UNL     1       7.772  22.036  55.347  1.00  0.00     0.001 A 
HETATM   28  C   UNL     1       7.144  23.275  55.473  1.00  0.00     0.008 A 
ENDBRANCH  19  22
ENDBRANCH  15  16
ENDBRANCH   1  15
TORSDOF 7
ENDMDL
MODEL 4
REMARK VINA RESULT:      -9.2      4.692      8.059
REMARK  7 active torsions:
REMARK  status: ('A' for Active; 'I' for Inactive)
REMARK    1  A    between atoms: C_2  and  C_3 
REMARK    2  A    between atoms: C_3  and  C_4 
REMARK    3  A    between atoms: C_8  and  C_9 
REMARK       I    between atoms: C_9  and  N_10 
REMARK    4  A    between atoms: N_10  and  C_11 
REMARK    5  A    between atoms: C_11  and  C_12 
REMARK    6  A    between atoms: C_12  and  N_13 
REMARK    7  A    between atoms: C_16  and  C_17 
ROOT
HETATM    1  C   UNL     1       6.861  27.806  55.518  1.00  0.00     0.150 C 
ENDROOT
BRANCH   1   2
HETATM    2  N   UNL     1       6.329  27.704  54.166  1.00  0.00    -0.354 N 
HETATM    3  C   UNL     1       6.836  26.831  53.220  1.00  0.00     0.272 C 
HETATM    4  O   UNL     1       7.969  26.369  53.311  1.00  0.00    -0.266 OA
HETATM    5  H   UNL     1       5.337  27.905  54.009  1.00  0.00     0.162 HD
BRANCH   3   6
HETATM    6  C   UNL     1       5.937  26.605  52.085  1.00  0.00     0.146 A 
HETATM    7  N   UNL     1       5.317  25.419  51.917  1.00  0.00    -0.169 NA
HETATM    8  N   UNL     1       4.579  25.594  50.802  1.00  0.00    -0.282 N 
HETATM    9  C   UNL     1       4.697  26.843  50.258  1.00  0.00     0.030 A 
HETATM   10  H   UNL     1       4.011  24.820  50.468  1.00  0.00     0.189 HD
HETATM   11  C   UNL     1       5.580  27.520  51.069  1.00  0.00     0.065 A 
BRANCH   9  12
HETATM   12  C   UNL     1       3.964  27.254  49.028  1.00  0.00     0.058 C 
BRANCH  12  13
HETATM   13  C   UNL     1       4.288  26.332  47.851  1.00  0.00     0.002 C 
HETATM   14  C   UNL     1       3.152  25.359  47.577  1.00  0.00     0.005 C 
ENDBRANCH  12  13
ENDBRANCH   9  12
ENDBRANCH   3   6
ENDBRANCH   1   2
BRANCH   1  15
HETATM   15  C   UNL     1       6.052  27.064  56.601  1.00  0.00     0.254 C 
BRANCH  15  16
HETATM   16  N   UNL     1       6.658  25.715  56.892  1.00  0.00    -0.069 N 
HETATM   17  H   UNL     1       6.198  25.415  57.765  1.00  0.00     0.280 HD
HETATM   18  C   UNL     1       6.416  24.633  55.871  1.00  0.00     0.244 C 
HETATM   19  C   UNL     1       7.491  23.607  56.224  1.00  0.00     0.046 C 
HETATM   20  C   UNL     1       8.703  24.491  56.512  1.00  0.00     0.039 C 
HETATM   21  C   UNL     1       8.137  25.730  57.196  1.00  0.00     0.235 C 
BRANCH  19  22
HETATM   22  C   UNL     1       7.752  22.539  55.184  1.00  0.00    -0.046 A 
HETATM   23  C   UNL     1       8.175  21.240  55.552  1.00  0.00    -0.055 A 
HETATM   24  C   UNL     1       8.390  20.831  56.987  1.00  0.00     0.049 C 
HETATM   25  C   UNL     1       8.402  20.277  54.554  1.00  0.00     0.007 A 
HETATM   26  C   UNL     1       8.236  20.586  53.207  1.00  0.00     0.001 A 
HETATM   27  C   UNL     1       7.845  21.865  52.836  1.00  0.00     0.001 A 
HETATM   28  C   UNL     1       7.609  22.833  53.813  1.00  0.00     0.008 A 
ENDBRANCH  19  22
ENDBRANCH  15  16
ENDBRANCH   1  15
TORSDOF 7
ENDMDL
MODEL 5
REMARK VINA RESULT:      -9.2      1.766      2.605
REMARK  7 active torsions:
REMARK  status: ('A' for Active; 'I' for Inactive)
REMARK    1  A    between atoms: C_2  and  C_3 
REMARK    2  A    between atoms: C_3  and  C_4 
REMARK    3  A    between atoms: C_8  and  C_9 
REMARK       I    between atoms: C_9  and  N_10 
REMARK    4  A    between atoms: N_10  and  C_11 
REMARK    5  A    between atoms: C_11  and  C_12 
REMARK    6  A    between atoms: C_12  and  N_13 
REMARK    7  A    between atoms: C_16  and  C_17 
ROOT
HETATM    1  C   UNL     1       5.387  28.569  54.511  1.00  0.00     0.150 C 
ENDROOT
BRANCH   1   2
HETATM    2  N   UNL     1       5.911  28.836  55.844  1.00  0.00    -0.354 N 
HETATM    3  C   UNL     1       7.238  29.146  56.083  1.00  0.00     0.272 C 
HETATM    4  O   UNL     1       8.123  28.856  55.284  1.00  0.00    -0.266 OA
HETATM    5  H   UNL     1       5.290  29.246  56.546  1.00  0.00     0.162 HD
BRANCH   3   6
HETATM    6  C   UNL     1       7.474  29.751  57.398  1.00  0.00     0.146 A 
HETATM    7  N   UNL     1       6.493  30.415  58.042  1.00  0.00    -0.169 NA
HETATM    8  N   UNL     1       7.069  30.802  59.198  1.00  0.00    -0.282 N 
HETATM    9  C   UNL     1       8.372  30.407  59.320  1.00  0.00     0.030 A 
HETATM   10  H   UNL     1       6.513  31.331  59.865  1.00  0.00     0.189 HD
HETATM   11  C   UNL     1       8.664  29.726  58.160  1.00  0.00     0.065 A 
BRANCH   9  12
HETATM   12  C   UNL     1       9.196  30.723  60.520  1.00  0.00     0.058 C 
BRANCH  12  13
HETATM   13  C   UNL     1       8.328  30.866  61.772  1.00  0.00     0.002 C 
HETATM   14  C   UNL     1       8.481  32.241  62.401  1.00  0.00     0.005 C 
ENDBRANCH  12  13
ENDBRANCH   9  12
ENDBRANCH   3   6
ENDBRANCH   1   2
BRANCH   1  15
HETATM   15  C   UNL     1       5.211  27.077  54.161  1.00  0.00     0.254 C 
BRANCH  15  16
HETATM   16  N   UNL     1       6.538  26.363  54.180  1.00  0.00    -0.069 N 
HETATM   17  H   UNL     1       7.118  26.926  54.820  1.00  0.00     0.280 HD
HETATM   18  C   UNL     1       6.537  24.952  54.710  1.00  0.00     0.244 C 
HETATM   19  C   UNL     1       7.862  24.406  54.182  1.00  0.00     0.046 C 
HETATM   20  C   UNL     1       7.901  24.964  52.761  1.00  0.00     0.039 C 
HETATM   21  C   UNL     1       7.278  26.352  52.863  1.00  0.00     0.235 C 
BRANCH  19  22
HETATM   22  C   UNL     1       8.030  22.903  54.248  1.00  0.00    -0.046 A 
HETATM   23  C   UNL     1       8.317  22.246  55.467  1.00  0.00    -0.055 A 
HETATM   24  C   UNL     1       8.471  22.985  56.772  1.00  0.00     0.049 C 
HETATM   25  C   UNL     1       8.461  20.848  55.484  1.00  0.00     0.007 A 
HETATM   26  C   UNL     1       8.345  20.100  54.316  1.00  0.00     0.001 A 
HETATM   27  C   UNL     1       8.087  20.739  53.111  1.00  0.00     0.001 A 
HETATM   28  C   UNL     1       7.936  22.125  53.076  1.00  0.00     0.008 A 
ENDBRANCH  19  22
ENDBRANCH  15  16
ENDBRANCH   1  15
TORSDOF 7
ENDMDL
MODEL 6
REMARK VINA RESULT:      -9.0      3.079      4.458
REMARK  7 active torsions:
REMARK  status: ('A' for Active; 'I' for Inactive)
REMARK    1  A    between atoms: C_2  and  C_3 
REMARK    2  A    between atoms: C_3  and  C_4 
REMARK    3  A    between atoms: C_8  and  C_9 
REMARK       I    between atoms: C_9  and  N_10 
REMARK    4  A    between atoms: N_10  and  C_11 
REMARK    5  A    between atoms: C_11  and  C_12 
REMARK    6  A    between atoms: C_12  and  N_13 
REMARK    7  A    between atoms: C_16  and  C_17 
ROOT
HETATM    1  C   UNL     1       5.186  28.003  52.922  1.00  0.00     0.150 C 
ENDROOT
BRANCH   1   2
HETATM    2  N   UNL     1       5.951  28.483  54.064  1.00  0.00    -0.354 N 
HETATM    3  C   UNL     1       5.446  28.512  55.352  1.00  0.00     0.272 C 
HETATM    4  O   UNL     1       4.239  28.501  55.572  1.00  0.00    -0.266 OA
HETATM    5  H   UNL     1       6.970  28.381  54.055  1.00  0.00     0.162 HD
BRANCH   3   6
HETATM    6  C   UNL     1       6.476  28.652  56.386  1.00  0.00     0.146 A 
HETATM    7  N   UNL     1       6.821  27.609  57.167  1.00  0.00    -0.169 NA
HETATM    8  N   UNL     1       7.787  28.107  57.964  1.00  0.00    -0.282 N 
HETATM    9  C   UNL     1       8.076  29.420  57.719  1.00  0.00     0.030 A 
HETATM   10  H   UNL     1       8.213  27.493  58.654  1.00  0.00     0.189 HD
HETATM   11  C   UNL     1       7.233  29.804  56.701  1.00  0.00     0.065 A 
BRANCH   9  12
HETATM   12  C   UNL     1       9.116  30.167  58.481  1.00  0.00     0.058 C 
BRANCH  12  13
HETATM   13  C   UNL     1      10.217  30.691  57.558  1.00  0.00     0.002 C 
HETATM   14  C   UNL     1      11.061  29.557  56.999  1.00  0.00     0.005 C 
ENDBRANCH  12  13
ENDBRANCH   9  12
ENDBRANCH   3   6
ENDBRANCH   1   2
BRANCH   1  15
HETATM   15  C   UNL     1       5.164  26.471  52.742  1.00  0.00     0.254 C 
BRANCH  15  16
HETATM   16  N   UNL     1       6.487  25.867  53.133  1.00  0.00    -0.069 N 
HETATM   17  H   UNL     1       7.032  26.666  53.493  1.00  0.00     0.280 HD
HETATM   18  C   UNL     1       6.458  24.825  54.221  1.00  0.00     0.244 C 
HETATM   19  C   UNL     1       7.809  24.135  54.047  1.00  0.00     0.046 C 
HETATM   20  C   UNL     1       7.925  24.025  52.528  1.00  0.00     0.039 C 
HETATM   21  C   UNL     1       7.298  25.305  51.989  1.00  0.00     0.235 C 
BRANCH  19  22
HETATM   22  C   UNL     1       7.973  22.813  54.766  1.00  0.00    -0.046 A 
HETATM   23  C   UNL     1       8.313  22.758  56.138  1.00  0.00    -0.055 A 
HETATM   24  C   UNL     1       8.529  23.994  56.973  1.00  0.00     0.049 C 
HETATM   25  C   UNL     1       8.451  21.508  56.767  1.00  0.00     0.007 A 
HETATM   26  C   UNL     1       8.279  20.324  56.057  1.00  0.00     0.001 A 
HETATM   27  C   UNL     1       7.970  20.369  54.704  1.00  0.00     0.001 A 
HETATM   28  C   UNL     1       7.823  21.600  54.065  1.00  0.00     0.008 A 
ENDBRANCH  19  22
ENDBRANCH  15  16
ENDBRANCH   1  15
TORSDOF 7
ENDMDL
MODEL 7
REMARK VINA RESULT:      -8.9      1.674      2.621
REMARK  7 active torsions:
REMARK  status: ('A' for Active; 'I' for Inactive)
REMARK    1  A    between atoms: C_2  and  C_3 
REMARK    2  A    between atoms: C_3  and  C_4 
REMARK    3  A    between atoms: C_8  and  C_9 
REMARK       I    between atoms: C_9  and  N_10 
REMARK    4  A    between atoms: N_10  and  C_11 
REMARK    5  A    between atoms: C_11  and  C_12 
REMARK    6  A    between atoms: C_12  and  N_13 
REMARK    7  A    between atoms: C_16  and  C_17 
ROOT
HETATM    1  C   UNL     1       6.620  29.608  57.543  1.00  0.00     0.150 C 
ENDROOT
BRANCH   1   2
HETATM    2  N   UNL     1       7.304  30.110  58.727  1.00  0.00    -0.354 N 
HETATM    3  C   UNL     1       7.131  31.396  59.209  1.00  0.00     0.272 C 
HETATM    4  O   UNL     1       6.709  32.301  58.496  1.00  0.00    -0.266 OA
HETATM    5  H   UNL     1       7.550  29.453  59.472  1.00  0.00     0.162 HD
BRANCH   3   6
HETATM    6  C   UNL     1       7.585  31.573  60.591  1.00  0.00     0.146 A 
HETATM    7  N   UNL     1       8.478  30.726  61.142  1.00  0.00    -0.169 NA
HETATM    8  N   UNL     1       8.660  31.211  62.387  1.00  0.00    -0.282 N 
HETATM    9  C   UNL     1       7.926  32.334  62.649  1.00  0.00     0.030 A 
HETATM   10  H   UNL     1       9.305  30.728  63.007  1.00  0.00     0.189 HD
HETATM   11  C   UNL     1       7.213  32.590  61.501  1.00  0.00     0.065 A 
BRANCH   9  12
HETATM   12  C   UNL     1       7.979  33.037  63.962  1.00  0.00     0.058 C 
BRANCH  12  13
HETATM   13  C   UNL     1       6.651  33.725  64.281  1.00  0.00     0.002 C 
HETATM   14  C   UNL     1       6.434  33.847  65.781  1.00  0.00     0.005 C 
ENDBRANCH  12  13
ENDBRANCH   9  12
ENDBRANCH   3   6
ENDBRANCH   1   2
BRANCH   1  15
HETATM   15  C   UNL     1       7.515  28.855  56.537  1.00  0.00     0.254 C 
BRANCH  15  16
HETATM   16  N   UNL     1       6.735  27.777  55.830  1.00  0.00    -0.069 N 
HETATM   17  H   UNL     1       6.173  28.288  55.133  1.00  0.00     0.280 HD
HETATM   18  C   UNL     1       7.537  26.745  55.081  1.00  0.00     0.244 C 
HETATM   19  C   UNL     1       6.524  25.617  54.895  1.00  0.00     0.046 C 
HETATM   20  C   UNL     1       5.825  25.581  56.252  1.00  0.00     0.039 C 
HETATM   21  C   UNL     1       5.738  27.038  56.692  1.00  0.00     0.235 C 
BRANCH  19  22
HETATM   22  C   UNL     1       7.094  24.281  54.470  1.00  0.00    -0.046 A 
HETATM   23  C   UNL     1       7.431  24.018  53.122  1.00  0.00    -0.055 A 
HETATM   24  C   UNL     1       7.253  25.038  52.026  1.00  0.00     0.049 C 
HETATM   25  C   UNL     1       7.961  22.764  52.772  1.00  0.00     0.007 A 
HETATM   26  C   UNL     1       8.141  21.769  53.728  1.00  0.00     0.001 A 
HETATM   27  C   UNL     1       7.791  22.010  55.049  1.00  0.00     0.001 A 
HETATM   28  C   UNL     1       7.269  23.250  55.416  1.00  0.00     0.008 A 
ENDBRANCH  19  22
ENDBRANCH  15  16
ENDBRANCH   1  15
TORSDOF 7
ENDMDL
MODEL 8
REMARK VINA RESULT:      -8.7      1.845     10.731
REMARK  7 active torsions:
REMARK  status: ('A' for Active; 'I' for Inactive)
REMARK    1  A    between atoms: C_2  and  C_3 
REMARK    2  A    between atoms: C_3  and  C_4 
REMARK    3  A    between atoms: C_8  and  C_9 
REMARK       I    between atoms: C_9  and  N_10 
REMARK    4  A    between atoms: N_10  and  C_11 
REMARK    5  A    between atoms: C_11  and  C_12 
REMARK    6  A    between atoms: C_12  and  N_13 
REMARK    7  A    between atoms: C_16  and  C_17 
ROOT
HETATM    1  C   UNL     1       7.866  28.501  57.763  1.00  0.00     0.150 C 
ENDROOT
BRANCH   1   2
HETATM    2  N   UNL     1       7.875  27.502  56.702  1.00  0.00    -0.354 N 
HETATM    3  C   UNL     1       7.733  26.146  56.942  1.00  0.00     0.272 C 
HETATM    4  O   UNL     1       7.965  25.659  58.044  1.00  0.00    -0.266 OA
HETATM    5  H   UNL     1       7.535  27.764  55.773  1.00  0.00     0.162 HD
BRANCH   3   6
HETATM    6  C   UNL     1       7.383  25.370  55.749  1.00  0.00     0.146 A 
HETATM    7  N   UNL     1       6.488  25.838  54.856  1.00  0.00    -0.169 NA
HETATM    8  N   UNL     1       6.442  24.879  53.910  1.00  0.00    -0.282 N 
HETATM    9  C   UNL     1       7.274  23.823  54.160  1.00  0.00     0.030 A 
HETATM   10  H   UNL     1       5.823  25.009  53.114  1.00  0.00     0.189 HD
HETATM   11  C   UNL     1       7.895  24.113  55.354  1.00  0.00     0.065 A 
BRANCH   9  12
HETATM   12  C   UNL     1       7.386  22.655  53.242  1.00  0.00     0.058 C 
BRANCH  12  13
HETATM   13  C   UNL     1       8.655  21.848  53.517  1.00  0.00     0.002 C 
HETATM   14  C   UNL     1       8.569  20.454  52.916  1.00  0.00     0.005 C 
ENDBRANCH  12  13
ENDBRANCH   9  12
ENDBRANCH   3   6
ENDBRANCH   1   2
BRANCH   1  15
HETATM   15  C   UNL     1       9.126  29.387  57.843  1.00  0.00     0.254 C 
BRANCH  15  16
HETATM   16  N   UNL     1       8.781  30.761  58.356  1.00  0.00    -0.069 N 
HETATM   17  H   UNL     1       8.293  31.210  57.566  1.00  0.00     0.280 HD
HETATM   18  C   UNL     1       7.854  30.826  59.542  1.00  0.00     0.244 C 
HETATM   19  C   UNL     1       8.080  32.246  60.055  1.00  0.00     0.046 C 
HETATM   20  C   UNL     1       9.595  32.400  59.931  1.00  0.00     0.039 C 
HETATM   21  C   UNL     1       9.966  31.648  58.659  1.00  0.00     0.235 C 
BRANCH  19  22
HETATM   22  C   UNL     1       7.552  32.540  61.443  1.00  0.00    -0.046 A 
HETATM   23  C   UNL     1       6.226  32.988  61.647  1.00  0.00    -0.055 A 
HETATM   24  C   UNL     1       5.255  33.199  60.513  1.00  0.00     0.049 C 
HETATM   25  C   UNL     1       5.775  33.245  62.953  1.00  0.00     0.007 A 
HETATM   26  C   UNL     1       6.620  33.085  64.048  1.00  0.00     0.001 A 
HETATM   27  C   UNL     1       7.929  32.668  63.855  1.00  0.00     0.001 A 
HETATM   28  C   UNL     1       8.392  32.403  62.566  1.00  0.00     0.008 A 
ENDBRANCH  19  22
ENDBRANCH  15  16
ENDBRANCH   1  15
TORSDOF 7
ENDMDL
MODEL 9
REMARK VINA RESULT:      -8.4      7.362     10.644
REMARK  7 active torsions:
REMARK  status: ('A' for Active; 'I' for Inactive)
REMARK    1  A    between atoms: C_2  and  C_3 
REMARK    2  A    between atoms: C_3  and  C_4 
REMARK    3  A    between atoms: C_8  and  C_9 
REMARK       I    between atoms: C_9  and  N_10 
REMARK    4  A    between atoms: N_10  and  C_11 
REMARK    5  A    between atoms: C_11  and  C_12 
REMARK    6  A    between atoms: C_12  and  N_13 
REMARK    7  A    between atoms: C_16  and  C_17 
ROOT
HETATM    1  C   UNL     1       5.046  26.253  50.669  1.00  0.00     0.150 C 
ENDROOT
BRANCH   1   2
HETATM    2  N   UNL     1       3.915  26.675  49.855  1.00  0.00    -0.354 N 
HETATM    3  C   UNL     1       3.713  27.988  49.467  1.00  0.00     0.272 C 
HETATM    4  O   UNL     1       4.229  28.924  50.068  1.00  0.00    -0.266 OA
HETATM    5  H   UNL     1       3.513  26.012  49.186  1.00  0.00     0.162 HD
BRANCH   3   6
HETATM    6  C   UNL     1       2.767  28.135  48.357  1.00  0.00     0.146 A 
HETATM    7  N   UNL     1       2.925  29.108  47.436  1.00  0.00    -0.169 NA
HETATM    8  N   UNL     1       1.897  28.918  46.585  1.00  0.00    -0.282 N 
HETATM    9  C   UNL     1       1.095  27.863  46.921  1.00  0.00     0.030 A 
HETATM   10  H   UNL     1       1.802  29.544  45.789  1.00  0.00     0.189 HD
HETATM   11  C   UNL     1       1.634  27.338  48.074  1.00  0.00     0.065 A 
BRANCH   9  12
HETATM   12  C   UNL     1      -0.095  27.472  46.115  1.00  0.00     0.058 C 
BRANCH  12  13
HETATM   13  C   UNL     1      -0.977  28.681  45.798  1.00  0.00     0.002 C 
HETATM   14  C   UNL     1      -1.251  28.795  44.308  1.00  0.00     0.005 C 
ENDBRANCH  12  13
ENDBRANCH   9  12
ENDBRANCH   3   6
ENDBRANCH   1   2
BRANCH   1  15
HETATM   15  C   UNL     1       4.768  26.159  52.184  1.00  0.00     0.254 C 
BRANCH  15  16
HETATM   16  N   UNL     1       6.013  25.757  52.932  1.00  0.00    -0.069 N 
HETATM   17  H   UNL     1       6.104  26.472  53.670  1.00  0.00     0.280 HD
HETATM   18  C   UNL     1       5.984  24.415  53.618  1.00  0.00     0.244 C 
HETATM   19  C   UNL     1       7.467  24.144  53.862  1.00  0.00     0.046 C 
HETATM   20  C   UNL     1       8.103  24.612  52.555  1.00  0.00     0.039 C 
HETATM   21  C   UNL     1       7.293  25.831  52.134  1.00  0.00     0.235 C 
BRANCH  19  22
HETATM   22  C   UNL     1       7.825  22.721  54.237  1.00  0.00    -0.046 A 
HETATM   23  C   UNL     1       8.113  22.362  55.574  1.00  0.00    -0.055 A 
HETATM   24  C   UNL     1       8.081  23.354  56.708  1.00  0.00     0.049 C 
HETATM   25  C   UNL     1       8.437  21.028  55.878  1.00  0.00     0.007 A 
HETATM   26  C   UNL     1       8.499  20.059  54.881  1.00  0.00     0.001 A 
HETATM   27  C   UNL     1       8.241  20.409  53.562  1.00  0.00     0.001 A 
HETATM   28  C   UNL     1       7.912  21.726  53.243  1.00  0.00     0.008 A 
ENDBRANCH  19  22
ENDBRANCH  15  16
ENDBRANCH   1  15
TORSDOF 7
ENDMDL
MODEL 10
REMARK VINA RESULT:      -7.9      4.848      8.108
REMARK  7 active torsions:
REMARK  status: ('A' for Active; 'I' for Inactive)
REMARK    1  A    between atoms: C_2  and  C_3 
REMARK    2  A    between atoms: C_3  and  C_4 
REMARK    3  A    between atoms: C_8  and  C_9 
REMARK       I    between atoms: C_9  and  N_10 
REMARK    4  A    between atoms: N_10  and  C_11 
REMARK    5  A    between atoms: C_11  and  C_12 
REMARK    6  A    between atoms: C_12  and  N_13 
REMARK    7  A    between atoms: C_16  and  C_17 
ROOT
HETATM    1  C   UNL     1       6.630  28.662  55.185  1.00  0.00     0.150 C 
ENDROOT
BRANCH   1   2
HETATM    2  N   UNL     1       6.599  28.574  53.731  1.00  0.00    -0.354 N 
HETATM    3  C   UNL     1       5.546  28.009  53.032  1.00  0.00     0.272 C 
HETATM    4  O   UNL     1       4.766  27.226  53.563  1.00  0.00    -0.266 OA
HETATM    5  H   UNL     1       7.083  29.290  53.182  1.00  0.00     0.162 HD
BRANCH   3   6
HETATM    6  C   UNL     1       5.526  28.364  51.610  1.00  0.00     0.146 A 
HETATM    7  N   UNL     1       5.875  29.600  51.198  1.00  0.00    -0.169 NA
HETATM    8  N   UNL     1       5.752  29.541  49.857  1.00  0.00    -0.282 N 
HETATM    9  C   UNL     1       5.346  28.319  49.398  1.00  0.00     0.030 A 
HETATM   10  H   UNL     1       5.966  30.372  49.312  1.00  0.00     0.189 HD
HETATM   11  C   UNL     1       5.186  27.534  50.517  1.00  0.00     0.065 A 
BRANCH   9  12
HETATM   12  C   UNL     1       5.152  28.032  47.948  1.00  0.00     0.058 C 
BRANCH  12  13
HETATM   13  C   UNL     1       4.126  28.979  47.325  1.00  0.00     0.002 C 
HETATM   14  C   UNL     1       2.709  28.452  47.487  1.00  0.00     0.005 C 
ENDBRANCH  12  13
ENDBRANCH   9  12
ENDBRANCH   3   6
ENDBRANCH   1   2
BRANCH   1  15
HETATM   15  C   UNL     1       7.763  27.870  55.869  1.00  0.00     0.254 C 
BRANCH  15  16
HETATM   16  N   UNL     1       7.318  26.466  56.187  1.00  0.00    -0.069 N 
HETATM   17  H   UNL     1       6.311  26.561  56.388  1.00  0.00     0.280 HD
HETATM   18  C   UNL     1       7.456  25.448  55.084  1.00  0.00     0.244 C 
HETATM   19  C   UNL     1       7.363  24.128  55.847  1.00  0.00     0.046 C 
HETATM   20  C   UNL     1       8.204  24.410  57.090  1.00  0.00     0.039 C 
HETATM   21  C   UNL     1       7.927  25.869  57.434  1.00  0.00     0.235 C 
BRANCH  19  22
HETATM   22  C   UNL     1       7.798  22.894  55.086  1.00  0.00    -0.046 A 
HETATM   23  C   UNL     1       7.551  22.757  53.700  1.00  0.00    -0.055 A 
HETATM   24  C   UNL     1       6.851  23.819  52.891  1.00  0.00     0.049 C 
HETATM   25  C   UNL     1       7.976  21.596  53.032  1.00  0.00     0.007 A 
HETATM   26  C   UNL     1       8.617  20.568  53.717  1.00  0.00     0.001 A 
HETATM   27  C   UNL     1       8.842  20.683  55.082  1.00  0.00     0.001 A 
HETATM   28  C   UNL     1       8.432  21.832  55.761  1.00  0.00     0.008 A 
ENDBRANCH  19  22
ENDBRANCH  15  16
ENDBRANCH   1  15
TORSDOF 7
ENDMDL
