MODEL 1
REMARK VINA RESULT:      -8.4      0.000      0.000
REMARK  7 active torsions:
REMARK  status: ('A' for Active; 'I' for Inactive)
REMARK    1  A    between atoms: C_2  and  N_3 
REMARK    2  A    between atoms: N_3  and  C_5 
REMARK    3  A    between atoms: N_3  and  C_17 
REMARK    4  A    between atoms: C_5  and  C_6 
REMARK       I    between atoms: C_6  and  N_7 
REMARK    5  A    between atoms: N_7  and  C_8 
REMARK    6  A    between atoms: C_17  and  C_18 
REMARK    7  A    between atoms: C_19  and  C_20 
ROOT
HETATM    1  N   UNL     1       7.605  27.485  56.853  1.00  0.00    -0.059 N 
HETATM    2  H   UNL     1       6.597  27.560  57.026  1.00  0.00     0.280 HD
ENDROOT
BRANCH   1   3
HETATM    3  C   UNL     1       7.827  27.697  55.372  1.00  0.00     0.231 C 
HETATM    4  C   UNL     1       6.505  27.852  54.644  1.00  0.00     0.034 C 
ENDBRANCH   1   3
BRANCH   1   5
HETATM    5  C   UNL     1       8.042  26.107  57.368  1.00  0.00     0.337 C 
BRANCH   5   6
HETATM    6  C   UNL     1       7.509  24.921  56.554  1.00  0.00     0.248 C 
HETATM    7  N   UNL     1       8.497  24.147  55.972  1.00  0.00    -0.325 N 
HETATM    8  H   UNL     1       9.412  24.163  56.403  1.00  0.00     0.169 HD
HETATM    9  O   UNL     1       6.300  24.710  56.508  1.00  0.00    -0.271 OA
BRANCH   7  10
HETATM   10  C   UNL     1       8.263  23.031  55.123  1.00  0.00     0.046 A 
HETATM   11  C   UNL     1       8.210  21.701  55.594  1.00  0.00    -0.035 A 
HETATM   12  C   UNL     1       8.298  21.296  57.041  1.00  0.00     0.050 C 
HETATM   13  C   UNL     1       8.006  20.657  54.671  1.00  0.00     0.009 A 
HETATM   14  C   UNL     1       7.795  20.917  53.322  1.00  0.00     0.001 A 
HETATM   15  C   UNL     1       7.783  22.229  52.870  1.00  0.00     0.009 A 
HETATM   16  C   UNL     1       8.012  23.296  53.753  1.00  0.00    -0.035 A 
HETATM   17  C   UNL     1       8.014  24.689  53.177  1.00  0.00     0.050 C 
ENDBRANCH   7  10
ENDBRANCH   5   6
ENDBRANCH   1   5
BRANCH   1  18
HETATM   18  C   UNL     1       8.229  28.613  57.674  1.00  0.00     0.277 C 
BRANCH  18  19
HETATM   19  C   UNL     1       7.233  29.666  58.021  1.00  0.00     0.012 A 
HETATM   20  C   UNL     1       7.399  30.845  58.824  1.00  0.00     0.071 A 
HETATM   21  N   UNL     1       6.259  31.545  58.862  1.00  0.00    -0.178 NA
HETATM   22  N   UNL     1       5.366  30.822  58.187  1.00  0.00    -0.288 N 
HETATM   23  H   UNL     1       4.410  31.164  58.136  1.00  0.00     0.188 HD
HETATM   24  C   UNL     1       5.900  29.691  57.645  1.00  0.00     0.120 A 
BRANCH  20  25
HETATM   25  C   UNL     1       8.621  31.368  59.589  1.00  0.00    -0.004 C 
HETATM   26  C   UNL     1       8.294  32.686  60.318  1.00  0.00     0.021 C 
HETATM   27  C   UNL     1       9.095  30.363  60.671  1.00  0.00     0.021 C 
HETATM   28  C   UNL     1       9.806  31.584  58.627  1.00  0.00     0.021 C 
ENDBRANCH  20  25
ENDBRANCH  18  19
ENDBRANCH   1  18
TORSDOF 7
ENDMDL
MODEL 2
REMARK VINA RESULT:      -8.2      2.012      3.639
REMARK  7 active torsions:
REMARK  status: ('A' for Active; 'I' for Inactive)
REMARK    1  A    between atoms: C_2  and  N_3 
REMARK    2  A    between atoms: N_3  and  C_5 
REMARK    3  A    between atoms: N_3  and  C_17 
REMARK    4  A    between atoms: C_5  and  C_6 
REMARK       I    between atoms: C_6  and  N_7 
REMARK    5  A    between atoms: N_7  and  C_8 
REMARK    6  A    between atoms: C_17  and  C_18 
REMARK    7  A    between atoms: C_19  and  C_20 
ROOT
HETATM    1  N   UNL     1       6.327  26.802  52.909  1.00  0.00    -0.059 N 
HETATM    2  H   UNL     1       5.538  26.372  53.403  1.00  0.00     0.280 HD
ENDROOT
BRANCH   1   3
HETATM    3  C   UNL     1       5.864  27.115  51.503  1.00  0.00     0.231 C 
HETATM    4  C   UNL     1       5.247  25.890  50.852  1.00  0.00     0.034 C 
ENDBRANCH   1   3
BRANCH   1   5
HETATM    5  C   UNL     1       7.494  25.810  52.984  1.00  0.00     0.337 C 
BRANCH   5   6
HETATM    6  C   UNL     1       7.189  24.520  53.756  1.00  0.00     0.248 C 
HETATM    7  N   UNL     1       8.315  23.817  54.147  1.00  0.00    -0.325 N 
HETATM    8  H   UNL     1       9.174  24.340  54.250  1.00  0.00     0.169 HD
HETATM    9  O   UNL     1       6.024  24.224  54.010  1.00  0.00    -0.271 OA
BRANCH   7  10
HETATM   10  C   UNL     1       8.301  22.565  54.820  1.00  0.00     0.046 A 
HETATM   11  C   UNL     1       8.182  21.329  54.147  1.00  0.00    -0.035 A 
HETATM   12  C   UNL     1       8.147  21.163  52.651  1.00  0.00     0.050 C 
HETATM   13  C   UNL     1       8.145  20.141  54.901  1.00  0.00     0.009 A 
HETATM   14  C   UNL     1       8.286  20.159  56.284  1.00  0.00     0.001 A 
HETATM   15  C   UNL     1       8.469  21.370  56.940  1.00  0.00     0.009 A 
HETATM   16  C   UNL     1       8.481  22.579  56.226  1.00  0.00    -0.035 A 
HETATM   17  C   UNL     1       8.653  23.852  57.015  1.00  0.00     0.050 C 
ENDBRANCH   7  10
ENDBRANCH   5   6
ENDBRANCH   1   5
BRANCH   1  18
HETATM   18  C   UNL     1       6.628  28.082  53.689  1.00  0.00     0.277 C 
BRANCH  18  19
HETATM   19  C   UNL     1       5.825  28.172  54.942  1.00  0.00     0.012 A 
HETATM   20  C   UNL     1       6.268  28.374  56.293  1.00  0.00     0.071 A 
HETATM   21  N   UNL     1       5.219  28.425  57.122  1.00  0.00    -0.178 NA
HETATM   22  N   UNL     1       4.148  28.187  56.367  1.00  0.00    -0.288 N 
HETATM   23  H   UNL     1       3.240  28.137  56.824  1.00  0.00     0.188 HD
HETATM   24  C   UNL     1       4.450  28.044  55.046  1.00  0.00     0.120 A 
BRANCH  20  25
HETATM   25  C   UNL     1       7.681  28.526  56.868  1.00  0.00    -0.004 C 
HETATM   26  C   UNL     1       8.601  29.276  55.885  1.00  0.00     0.021 C 
HETATM   27  C   UNL     1       7.680  29.339  58.189  1.00  0.00     0.021 C 
HETATM   28  C   UNL     1       8.282  27.144  57.193  1.00  0.00     0.021 C 
ENDBRANCH  20  25
ENDBRANCH  18  19
ENDBRANCH   1  18
TORSDOF 7
ENDMDL
MODEL 3
REMARK VINA RESULT:      -8.2      1.931      3.263
REMARK  7 active torsions:
REMARK  status: ('A' for Active; 'I' for Inactive)
REMARK    1  A    between atoms: C_2  and  N_3 
REMARK    2  A    between atoms: N_3  and  C_5 
REMARK    3  A    between atoms: N_3  and  C_17 
REMARK    4  A    between atoms: C_5  and  C_6 
REMARK       I    between atoms: C_6  and  N_7 
REMARK    5  A    between atoms: N_7  and  C_8 
REMARK    6  A    between atoms: C_17  and  C_18 
REMARK    7  A    between atoms: C_19  and  C_20 
ROOT
HETATM    1  N   UNL     1       6.199  26.940  53.181  1.00  0.00    -0.059 N 
HETATM    2  H   UNL     1       5.433  26.516  53.714  1.00  0.00     0.280 HD
ENDROOT
BRANCH   1   3
HETATM    3  C   UNL     1       5.755  27.022  51.738  1.00  0.00     0.231 C 
HETATM    4  C   UNL     1       5.215  25.685  51.262  1.00  0.00     0.034 C 
ENDBRANCH   1   3
BRANCH   1   5
HETATM    5  C   UNL     1       7.439  26.068  53.413  1.00  0.00     0.337 C 
BRANCH   5   6
HETATM    6  C   UNL     1       7.185  24.799  54.238  1.00  0.00     0.248 C 
HETATM    7  N   UNL     1       8.289  23.975  54.360  1.00  0.00    -0.325 N 
HETATM    8  H   UNL     1       9.200  24.404  54.260  1.00  0.00     0.169 HD
HETATM    9  O   UNL     1       6.085  24.622  54.756  1.00  0.00    -0.271 OA
BRANCH   7  10
HETATM   10  C   UNL     1       8.298  22.717  55.021  1.00  0.00     0.046 A 
HETATM   11  C   UNL     1       8.454  22.579  56.417  1.00  0.00    -0.035 A 
HETATM   12  C   UNL     1       8.539  23.725  57.391  1.00  0.00     0.050 C 
HETATM   13  C   UNL     1       8.483  21.288  56.978  1.00  0.00     0.009 A 
HETATM   14  C   UNL     1       8.298  20.156  56.194  1.00  0.00     0.001 A 
HETATM   15  C   UNL     1       8.078  20.294  54.830  1.00  0.00     0.009 A 
HETATM   16  C   UNL     1       8.072  21.563  54.228  1.00  0.00    -0.035 A 
HETATM   17  C   UNL     1       7.859  21.626  52.737  1.00  0.00     0.050 C 
ENDBRANCH   7  10
ENDBRANCH   5   6
ENDBRANCH   1   5
BRANCH   1  18
HETATM   18  C   UNL     1       6.373  28.333  53.786  1.00  0.00     0.277 C 
BRANCH  18  19
HETATM   19  C   UNL     1       5.674  28.463  55.096  1.00  0.00     0.012 A 
HETATM   20  C   UNL     1       6.230  28.578  56.415  1.00  0.00     0.071 A 
HETATM   21  N   UNL     1       5.253  28.707  57.320  1.00  0.00    -0.178 NA
HETATM   22  N   UNL     1       4.111  28.600  56.641  1.00  0.00    -0.288 N 
HETATM   23  H   UNL     1       3.238  28.627  57.161  1.00  0.00     0.188 HD
HETATM   24  C   UNL     1       4.304  28.470  55.298  1.00  0.00     0.120 A 
BRANCH  20  25
HETATM   25  C   UNL     1       7.688  28.569  56.889  1.00  0.00    -0.004 C 
HETATM   26  C   UNL     1       7.831  29.272  58.253  1.00  0.00     0.021 C 
HETATM   27  C   UNL     1       8.226  27.125  57.070  1.00  0.00     0.021 C 
HETATM   28  C   UNL     1       8.596  29.258  55.850  1.00  0.00     0.021 C 
ENDBRANCH  20  25
ENDBRANCH  18  19
ENDBRANCH   1  18
TORSDOF 7
ENDMDL
MODEL 4
REMARK VINA RESULT:      -8.1      2.046      3.625
REMARK  7 active torsions:
REMARK  status: ('A' for Active; 'I' for Inactive)
REMARK    1  A    between atoms: C_2  and  N_3 
REMARK    2  A    between atoms: N_3  and  C_5 
REMARK    3  A    between atoms: N_3  and  C_17 
REMARK    4  A    between atoms: C_5  and  C_6 
REMARK       I    between atoms: C_6  and  N_7 
REMARK    5  A    between atoms: N_7  and  C_8 
REMARK    6  A    between atoms: C_17  and  C_18 
REMARK    7  A    between atoms: C_19  and  C_20 
ROOT
HETATM    1  N   UNL     1       7.497  27.291  56.506  1.00  0.00    -0.059 N 
HETATM    2  H   UNL     1       7.515  27.074  55.504  1.00  0.00     0.280 HD
ENDROOT
BRANCH   1   3
HETATM    3  C   UNL     1       8.472  28.424  56.741  1.00  0.00     0.231 C 
HETATM    4  C   UNL     1       8.130  29.176  58.014  1.00  0.00     0.034 C 
ENDBRANCH   1   3
BRANCH   1   5
HETATM    5  C   UNL     1       7.843  25.994  57.249  1.00  0.00     0.337 C 
BRANCH   5   6
HETATM    6  C   UNL     1       7.406  24.710  56.532  1.00  0.00     0.248 C 
HETATM    7  N   UNL     1       8.427  24.066  55.857  1.00  0.00    -0.325 N 
HETATM    8  H   UNL     1       9.372  24.233  56.177  1.00  0.00     0.169 HD
HETATM    9  O   UNL     1       6.245  24.323  56.634  1.00  0.00    -0.271 OA
BRANCH   7  10
HETATM   10  C   UNL     1       8.270  22.894  55.068  1.00  0.00     0.046 A 
HETATM   11  C   UNL     1       8.294  21.590  55.610  1.00  0.00    -0.035 A 
HETATM   12  C   UNL     1       8.394  21.269  57.078  1.00  0.00     0.050 C 
HETATM   13  C   UNL     1       8.162  20.487  54.744  1.00  0.00     0.009 A 
HETATM   14  C   UNL     1       7.948  20.661  53.382  1.00  0.00     0.001 A 
HETATM   15  C   UNL     1       7.859  21.944  52.859  1.00  0.00     0.009 A 
HETATM   16  C   UNL     1       8.015  23.069  53.684  1.00  0.00    -0.035 A 
HETATM   17  C   UNL     1       7.936  24.426  53.034  1.00  0.00     0.050 C 
ENDBRANCH   7  10
ENDBRANCH   5   6
ENDBRANCH   1   5
BRANCH   1  18
HETATM   18  C   UNL     1       6.060  27.731  56.787  1.00  0.00     0.277 C 
BRANCH  18  19
HETATM   19  C   UNL     1       5.248  27.809  55.540  1.00  0.00     0.012 A 
HETATM   20  C   UNL     1       4.422  28.881  55.059  1.00  0.00     0.071 A 
HETATM   21  N   UNL     1       3.887  28.560  53.875  1.00  0.00    -0.178 NA
HETATM   22  N   UNL     1       4.275  27.308  53.630  1.00  0.00    -0.288 N 
HETATM   23  H   UNL     1       3.932  26.856  52.786  1.00  0.00     0.188 HD
HETATM   24  C   UNL     1       5.108  26.813  54.588  1.00  0.00     0.120 A 
BRANCH  20  25
HETATM   25  C   UNL     1       4.096  30.245  55.679  1.00  0.00    -0.004 C 
HETATM   26  C   UNL     1       3.245  31.099  54.719  1.00  0.00     0.021 C 
HETATM   27  C   UNL     1       3.282  30.100  56.991  1.00  0.00     0.021 C 
HETATM   28  C   UNL     1       5.392  30.999  56.037  1.00  0.00     0.021 C 
ENDBRANCH  20  25
ENDBRANCH  18  19
ENDBRANCH   1  18
TORSDOF 7
ENDMDL
MODEL 5
REMARK VINA RESULT:      -7.9      1.768      8.535
REMARK  7 active torsions:
REMARK  status: ('A' for Active; 'I' for Inactive)
REMARK    1  A    between atoms: C_2  and  N_3 
REMARK    2  A    between atoms: N_3  and  C_5 
REMARK    3  A    between atoms: N_3  and  C_17 
REMARK    4  A    between atoms: C_5  and  C_6 
REMARK       I    between atoms: C_6  and  N_7 
REMARK    5  A    between atoms: N_7  and  C_8 
REMARK    6  A    between atoms: C_17  and  C_18 
REMARK    7  A    between atoms: C_19  and  C_20 
ROOT
HETATM    1  N   UNL     1       7.097  27.759  55.335  1.00  0.00    -0.059 N 
HETATM    2  H   UNL     1       8.032  27.631  55.736  1.00  0.00     0.280 HD
ENDROOT
BRANCH   1   3
HETATM    3  C   UNL     1       7.277  28.188  53.895  1.00  0.00     0.231 C 
HETATM    4  C   UNL     1       6.026  27.902  53.085  1.00  0.00     0.034 C 
ENDBRANCH   1   3
BRANCH   1   5
HETATM    5  C   UNL     1       6.373  28.786  56.214  1.00  0.00     0.337 C 
BRANCH   5   6
HETATM    6  C   UNL     1       7.134  29.192  57.484  1.00  0.00     0.248 C 
HETATM    7  N   UNL     1       7.213  30.559  57.680  1.00  0.00    -0.325 N 
HETATM    8  H   UNL     1       6.498  31.131  57.250  1.00  0.00     0.169 HD
HETATM    9  O   UNL     1       7.565  28.324  58.237  1.00  0.00    -0.271 OA
BRANCH   7  10
HETATM   10  C   UNL     1       7.913  31.190  58.744  1.00  0.00     0.046 A 
HETATM   11  C   UNL     1       9.321  31.178  58.857  1.00  0.00    -0.035 A 
HETATM   12  C   UNL     1      10.260  30.587  57.839  1.00  0.00     0.050 C 
HETATM   13  C   UNL     1       9.924  31.803  59.964  1.00  0.00     0.009 A 
HETATM   14  C   UNL     1       9.165  32.482  60.911  1.00  0.00     0.001 A 
HETATM   15  C   UNL     1       7.786  32.551  60.765  1.00  0.00     0.009 A 
HETATM   16  C   UNL     1       7.145  31.915  59.691  1.00  0.00    -0.035 A 
HETATM   17  C   UNL     1       5.642  32.009  59.622  1.00  0.00     0.050 C 
ENDBRANCH   7  10
ENDBRANCH   5   6
ENDBRANCH   1   5
BRANCH   1  18
HETATM   18  C   UNL     1       6.439  26.382  55.424  1.00  0.00     0.277 C 
BRANCH  18  19
HETATM   19  C   UNL     1       7.440  25.300  55.640  1.00  0.00     0.012 A 
HETATM   20  C   UNL     1       7.893  24.286  54.730  1.00  0.00     0.071 A 
HETATM   21  N   UNL     1       8.828  23.525  55.310  1.00  0.00    -0.178 NA
HETATM   22  N   UNL     1       8.926  23.964  56.564  1.00  0.00    -0.288 N 
HETATM   23  H   UNL     1       9.562  23.481  57.194  1.00  0.00     0.188 HD
HETATM   24  C   UNL     1       8.128  25.040  56.814  1.00  0.00     0.120 A 
BRANCH  20  25
HETATM   25  C   UNL     1       7.474  23.981  53.286  1.00  0.00    -0.004 C 
HETATM   26  C   UNL     1       7.833  22.533  52.901  1.00  0.00     0.021 C 
HETATM   27  C   UNL     1       5.943  24.132  53.088  1.00  0.00     0.021 C 
HETATM   28  C   UNL     1       8.151  24.964  52.310  1.00  0.00     0.021 C 
ENDBRANCH  20  25
ENDBRANCH  18  19
ENDBRANCH   1  18
TORSDOF 7
ENDMDL
MODEL 6
REMARK VINA RESULT:      -7.9      1.403      2.403
REMARK  7 active torsions:
REMARK  status: ('A' for Active; 'I' for Inactive)
REMARK    1  A    between atoms: C_2  and  N_3 
REMARK    2  A    between atoms: N_3  and  C_5 
REMARK    3  A    between atoms: N_3  and  C_17 
REMARK    4  A    between atoms: C_5  and  C_6 
REMARK       I    between atoms: C_6  and  N_7 
REMARK    5  A    between atoms: N_7  and  C_8 
REMARK    6  A    between atoms: C_17  and  C_18 
REMARK    7  A    between atoms: C_19  and  C_20 
ROOT
HETATM    1  N   UNL     1       7.060  27.362  56.281  1.00  0.00    -0.059 N 
HETATM    2  H   UNL     1       6.338  27.012  55.642  1.00  0.00     0.280 HD
ENDROOT
BRANCH   1   3
HETATM    3  C   UNL     1       7.890  28.370  55.516  1.00  0.00     0.231 C 
HETATM    4  C   UNL     1       7.775  28.141  54.020  1.00  0.00     0.034 C 
ENDBRANCH   1   3
BRANCH   1   5
HETATM    5  C   UNL     1       7.846  26.142  56.777  1.00  0.00     0.337 C 
BRANCH   5   6
HETATM    6  C   UNL     1       7.410  24.806  56.160  1.00  0.00     0.248 C 
HETATM    7  N   UNL     1       8.445  24.078  55.602  1.00  0.00    -0.325 N 
HETATM    8  H   UNL     1       9.377  24.253  55.955  1.00  0.00     0.169 HD
HETATM    9  O   UNL     1       6.234  24.457  56.235  1.00  0.00    -0.271 OA
BRANCH   7  10
HETATM   10  C   UNL     1       8.296  22.841  54.917  1.00  0.00     0.046 A 
HETATM   11  C   UNL     1       8.308  21.590  55.573  1.00  0.00    -0.035 A 
HETATM   12  C   UNL     1       8.387  21.401  57.064  1.00  0.00     0.050 C 
HETATM   13  C   UNL     1       8.186  20.416  54.806  1.00  0.00     0.009 A 
HETATM   14  C   UNL     1       7.991  20.469  53.431  1.00  0.00     0.001 A 
HETATM   15  C   UNL     1       7.913  21.701  52.795  1.00  0.00     0.009 A 
HETATM   16  C   UNL     1       8.061  22.894  53.520  1.00  0.00    -0.035 A 
HETATM   17  C   UNL     1       7.995  24.189  52.752  1.00  0.00     0.050 C 
ENDBRANCH   7  10
ENDBRANCH   5   6
ENDBRANCH   1   5
BRANCH   1  18
HETATM   18  C   UNL     1       6.288  28.031  57.418  1.00  0.00     0.277 C 
BRANCH  18  19
HETATM   19  C   UNL     1       6.921  29.311  57.843  1.00  0.00     0.012 A 
HETATM   20  C   UNL     1       6.425  30.654  57.722  1.00  0.00     0.071 A 
HETATM   21  N   UNL     1       7.293  31.519  58.262  1.00  0.00    -0.178 NA
HETATM   22  N   UNL     1       8.341  30.790  58.644  1.00  0.00    -0.288 N 
HETATM   23  H   UNL     1       9.142  31.274  59.043  1.00  0.00     0.188 HD
HETATM   24  C   UNL     1       8.166  29.456  58.433  1.00  0.00     0.120 A 
BRANCH  20  25
HETATM   25  C   UNL     1       5.130  31.188  57.100  1.00  0.00    -0.004 C 
HETATM   26  C   UNL     1       4.979  30.711  55.643  1.00  0.00     0.021 C 
HETATM   27  C   UNL     1       3.876  30.691  57.867  1.00  0.00     0.021 C 
HETATM   28  C   UNL     1       5.103  32.729  57.151  1.00  0.00     0.021 C 
ENDBRANCH  20  25
ENDBRANCH  18  19
ENDBRANCH   1  18
TORSDOF 7
ENDMDL
MODEL 7
REMARK VINA RESULT:      -7.8      2.266      4.160
REMARK  7 active torsions:
REMARK  status: ('A' for Active; 'I' for Inactive)
REMARK    1  A    between atoms: C_2  and  N_3 
REMARK    2  A    between atoms: N_3  and  C_5 
REMARK    3  A    between atoms: N_3  and  C_17 
REMARK    4  A    between atoms: C_5  and  C_6 
REMARK       I    between atoms: C_6  and  N_7 
REMARK    5  A    between atoms: N_7  and  C_8 
REMARK    6  A    between atoms: C_17  and  C_18 
REMARK    7  A    between atoms: C_19  and  C_20 
ROOT
HETATM    1  N   UNL     1       6.987  27.395  56.385  1.00  0.00    -0.059 N 
HETATM    2  H   UNL     1       7.035  27.297  55.366  1.00  0.00     0.280 HD
ENDROOT
BRANCH   1   3
HETATM    3  C   UNL     1       7.633  28.715  56.743  1.00  0.00     0.231 C 
HETATM    4  C   UNL     1       9.106  28.528  57.060  1.00  0.00     0.034 C 
ENDBRANCH   1   3
BRANCH   1   5
HETATM    5  C   UNL     1       7.685  26.167  56.984  1.00  0.00     0.337 C 
BRANCH   5   6
HETATM    6  C   UNL     1       7.293  24.830  56.340  1.00  0.00     0.248 C 
HETATM    7  N   UNL     1       8.341  24.171  55.724  1.00  0.00    -0.325 N 
HETATM    8  H   UNL     1       9.276  24.382  56.050  1.00  0.00     0.169 HD
HETATM    9  O   UNL     1       6.139  24.422  56.444  1.00  0.00    -0.271 OA
BRANCH   7  10
HETATM   10  C   UNL     1       8.227  22.950  55.007  1.00  0.00     0.046 A 
HETATM   11  C   UNL     1       8.250  21.683  55.631  1.00  0.00    -0.035 A 
HETATM   12  C   UNL     1       8.305  21.457  57.118  1.00  0.00     0.050 C 
HETATM   13  C   UNL     1       8.164  20.526  54.833  1.00  0.00     0.009 A 
HETATM   14  C   UNL     1       7.994  20.610  53.456  1.00  0.00     0.001 A 
HETATM   15  C   UNL     1       7.905  21.856  52.850  1.00  0.00     0.009 A 
HETATM   16  C   UNL     1       8.017  23.033  53.607  1.00  0.00    -0.035 A 
HETATM   17  C   UNL     1       7.942  24.346  52.870  1.00  0.00     0.050 C 
ENDBRANCH   7  10
ENDBRANCH   5   6
ENDBRANCH   1   5
BRANCH   1  18
HETATM   18  C   UNL     1       5.494  27.404  56.709  1.00  0.00     0.277 C 
BRANCH  18  19
HETATM   19  C   UNL     1       4.763  28.448  55.938  1.00  0.00     0.012 A 
HETATM   20  C   UNL     1       4.592  28.576  54.517  1.00  0.00     0.071 A 
HETATM   21  N   UNL     1       3.837  29.644  54.235  1.00  0.00    -0.178 NA
HETATM   22  N   UNL     1       3.592  30.235  55.404  1.00  0.00    -0.288 N 
HETATM   23  H   UNL     1       3.062  31.103  55.402  1.00  0.00     0.188 HD
HETATM   24  C   UNL     1       4.109  29.551  56.463  1.00  0.00     0.120 A 
BRANCH  20  25
HETATM   25  C   UNL     1       5.125  27.714  53.366  1.00  0.00    -0.004 C 
HETATM   26  C   UNL     1       4.474  28.115  52.028  1.00  0.00     0.021 C 
HETATM   27  C   UNL     1       6.657  27.879  53.186  1.00  0.00     0.021 C 
HETATM   28  C   UNL     1       4.864  26.221  53.646  1.00  0.00     0.021 C 
ENDBRANCH  20  25
ENDBRANCH  18  19
ENDBRANCH   1  18
TORSDOF 7
ENDMDL
MODEL 8
REMARK VINA RESULT:      -7.6      2.510      3.796
REMARK  7 active torsions:
REMARK  status: ('A' for Active; 'I' for Inactive)
REMARK    1  A    between atoms: C_2  and  N_3 
REMARK    2  A    between atoms: N_3  and  C_5 
REMARK    3  A    between atoms: N_3  and  C_17 
REMARK    4  A    between atoms: C_5  and  C_6 
REMARK       I    between atoms: C_6  and  N_7 
REMARK    5  A    between atoms: N_7  and  C_8 
REMARK    6  A    between atoms: C_17  and  C_18 
REMARK    7  A    between atoms: C_19  and  C_20 
ROOT
HETATM    1  N   UNL     1       6.289  27.174  53.508  1.00  0.00    -0.059 N 
HETATM    2  H   UNL     1       5.699  26.861  54.286  1.00  0.00     0.280 HD
ENDROOT
BRANCH   1   3
HETATM    3  C   UNL     1       5.370  27.544  52.365  1.00  0.00     0.231 C 
HETATM    4  C   UNL     1       5.574  26.612  51.184  1.00  0.00     0.034 C 
ENDBRANCH   1   3
BRANCH   1   5
HETATM    5  C   UNL     1       7.258  26.027  53.195  1.00  0.00     0.337 C 
BRANCH   5   6
HETATM    6  C   UNL     1       7.001  24.737  53.985  1.00  0.00     0.248 C 
HETATM    7  N   UNL     1       8.148  24.033  54.304  1.00  0.00    -0.325 N 
HETATM    8  H   UNL     1       9.013  24.555  54.352  1.00  0.00     0.169 HD
HETATM    9  O   UNL     1       5.853  24.444  54.313  1.00  0.00    -0.271 OA
BRANCH   7  10
HETATM   10  C   UNL     1       8.175  22.781  54.976  1.00  0.00     0.046 A 
HETATM   11  C   UNL     1       8.042  21.544  54.309  1.00  0.00    -0.035 A 
HETATM   12  C   UNL     1       7.947  21.377  52.815  1.00  0.00     0.050 C 
HETATM   13  C   UNL     1       8.048  20.355  55.064  1.00  0.00     0.009 A 
HETATM   14  C   UNL     1       8.245  20.376  56.439  1.00  0.00     0.001 A 
HETATM   15  C   UNL     1       8.442  21.588  57.087  1.00  0.00     0.009 A 
HETATM   16  C   UNL     1       8.413  22.797  56.374  1.00  0.00    -0.035 A 
HETATM   17  C   UNL     1       8.603  24.071  57.155  1.00  0.00     0.050 C 
ENDBRANCH   7  10
ENDBRANCH   5   6
ENDBRANCH   1   5
BRANCH   1  18
HETATM   18  C   UNL     1       7.026  28.401  54.044  1.00  0.00     0.277 C 
BRANCH  18  19
HETATM   19  C   UNL     1       7.130  28.383  55.531  1.00  0.00     0.012 A 
HETATM   20  C   UNL     1       6.239  28.941  56.510  1.00  0.00     0.071 A 
HETATM   21  N   UNL     1       6.683  28.676  57.745  1.00  0.00    -0.178 NA
HETATM   22  N   UNL     1       7.847  28.048  57.585  1.00  0.00    -0.288 N 
HETATM   23  H   UNL     1       8.376  27.797  58.417  1.00  0.00     0.188 HD
HETATM   24  C   UNL     1       8.157  27.830  56.276  1.00  0.00     0.120 A 
BRANCH  20  25
HETATM   25  C   UNL     1       4.943  29.742  56.340  1.00  0.00    -0.004 C 
HETATM   26  C   UNL     1       3.865  28.906  55.624  1.00  0.00     0.021 C 
HETATM   27  C   UNL     1       4.346  30.167  57.707  1.00  0.00     0.021 C 
HETATM   28  C   UNL     1       5.211  31.037  55.547  1.00  0.00     0.021 C 
ENDBRANCH  20  25
ENDBRANCH  18  19
ENDBRANCH   1  18
TORSDOF 7
ENDMDL
MODEL 9
REMARK VINA RESULT:      -7.6      2.644      8.985
REMARK  7 active torsions:
REMARK  status: ('A' for Active; 'I' for Inactive)
REMARK    1  A    between atoms: C_2  and  N_3 
REMARK    2  A    between atoms: N_3  and  C_5 
REMARK    3  A    between atoms: N_3  and  C_17 
REMARK    4  A    between atoms: C_5  and  C_6 
REMARK       I    between atoms: C_6  and  N_7 
REMARK    5  A    between atoms: N_7  and  C_8 
REMARK    6  A    between atoms: C_17  and  C_18 
REMARK    7  A    between atoms: C_19  and  C_20 
ROOT
HETATM    1  N   UNL     1       6.874  29.878  57.028  1.00  0.00    -0.059 N 
HETATM    2  H   UNL     1       7.349  30.086  56.143  1.00  0.00     0.280 HD
ENDROOT
BRANCH   1   3
HETATM    3  C   UNL     1       5.873  30.985  57.274  1.00  0.00     0.231 C 
HETATM    4  C   UNL     1       4.510  30.414  57.620  1.00  0.00     0.034 C 
ENDBRANCH   1   3
BRANCH   1   5
HETATM    5  C   UNL     1       7.964  29.762  58.101  1.00  0.00     0.337 C 
BRANCH   5   6
HETATM    6  C   UNL     1       8.041  30.951  59.068  1.00  0.00     0.248 C 
HETATM    7  N   UNL     1       7.397  30.738  60.274  1.00  0.00    -0.325 N 
HETATM    8  H   UNL     1       7.281  29.780  60.575  1.00  0.00     0.169 HD
HETATM    9  O   UNL     1       8.676  31.953  58.751  1.00  0.00    -0.271 OA
BRANCH   7  10
HETATM   10  C   UNL     1       7.271  31.702  61.311  1.00  0.00     0.046 A 
HETATM   11  C   UNL     1       6.321  32.747  61.284  1.00  0.00    -0.035 A 
HETATM   12  C   UNL     1       5.271  32.927  60.220  1.00  0.00     0.050 C 
HETATM   13  C   UNL     1       6.293  33.673  62.343  1.00  0.00     0.009 A 
HETATM   14  C   UNL     1       7.138  33.543  63.439  1.00  0.00     0.001 A 
HETATM   15  C   UNL     1       8.027  32.478  63.497  1.00  0.00     0.009 A 
HETATM   16  C   UNL     1       8.106  31.549  62.447  1.00  0.00    -0.035 A 
HETATM   17  C   UNL     1       9.119  30.440  62.572  1.00  0.00     0.050 C 
ENDBRANCH   7  10
ENDBRANCH   5   6
ENDBRANCH   1   5
BRANCH   1  18
HETATM   18  C   UNL     1       6.174  28.540  56.793  1.00  0.00     0.277 C 
BRANCH  18  19
HETATM   19  C   UNL     1       6.729  27.821  55.612  1.00  0.00     0.012 A 
HETATM   20  C   UNL     1       7.019  26.423  55.453  1.00  0.00     0.071 A 
HETATM   21  N   UNL     1       7.478  26.182  54.220  1.00  0.00    -0.178 NA
HETATM   22  N   UNL     1       7.564  27.372  53.625  1.00  0.00    -0.288 N 
HETATM   23  H   UNL     1       7.940  27.411  52.681  1.00  0.00     0.188 HD
HETATM   24  C   UNL     1       7.110  28.390  54.409  1.00  0.00     0.120 A 
BRANCH  20  25
HETATM   25  C   UNL     1       6.884  25.257  56.440  1.00  0.00    -0.004 C 
HETATM   26  C   UNL     1       7.831  25.437  57.642  1.00  0.00     0.021 C 
HETATM   27  C   UNL     1       5.446  25.153  57.013  1.00  0.00     0.021 C 
HETATM   28  C   UNL     1       7.183  23.919  55.735  1.00  0.00     0.021 C 
ENDBRANCH  20  25
ENDBRANCH  18  19
ENDBRANCH   1  18
TORSDOF 7
ENDMDL
MODEL 10
REMARK VINA RESULT:      -7.6      5.028      8.156
REMARK  7 active torsions:
REMARK  status: ('A' for Active; 'I' for Inactive)
REMARK    1  A    between atoms: C_2  and  N_3 
REMARK    2  A    between atoms: N_3  and  C_5 
REMARK    3  A    between atoms: N_3  and  C_17 
REMARK    4  A    between atoms: C_5  and  C_6 
REMARK       I    between atoms: C_6  and  N_7 
REMARK    5  A    between atoms: N_7  and  C_8 
REMARK    6  A    between atoms: C_17  and  C_18 
REMARK    7  A    between atoms: C_19  and  C_20 
ROOT
HETATM    1  N   UNL     1       6.178  33.042  61.543  1.00  0.00    -0.059 N 
HETATM    2  H   UNL     1       7.101  33.351  61.218  1.00  0.00     0.280 HD
ENDROOT
BRANCH   1   3
HETATM    3  C   UNL     1       6.394  32.204  62.784  1.00  0.00     0.231 C 
HETATM    4  C   UNL     1       7.871  32.101  63.117  1.00  0.00     0.034 C 
ENDBRANCH   1   3
BRANCH   1   5
HETATM    5  C   UNL     1       5.526  32.289  60.377  1.00  0.00     0.337 C 
BRANCH   5   6
HETATM    6  C   UNL     1       6.471  31.972  59.210  1.00  0.00     0.248 C 
HETATM    7  N   UNL     1       7.281  30.871  59.424  1.00  0.00    -0.325 N 
HETATM    8  H   UNL     1       6.954  30.176  60.083  1.00  0.00     0.169 HD
HETATM    9  O   UNL     1       6.424  32.651  58.188  1.00  0.00    -0.271 OA
BRANCH   7  10
HETATM   10  C   UNL     1       8.281  30.408  58.526  1.00  0.00     0.046 A 
HETATM   11  C   UNL     1       9.599  30.915  58.511  1.00  0.00    -0.035 A 
HETATM   12  C   UNL     1      10.143  31.928  59.483  1.00  0.00     0.050 C 
HETATM   13  C   UNL     1      10.513  30.417  57.563  1.00  0.00     0.009 A 
HETATM   14  C   UNL     1      10.159  29.396  56.688  1.00  0.00     0.001 A 
HETATM   15  C   UNL     1       8.883  28.852  56.747  1.00  0.00     0.009 A 
HETATM   16  C   UNL     1       7.935  29.342  57.658  1.00  0.00    -0.035 A 
HETATM   17  C   UNL     1       6.562  28.719  57.637  1.00  0.00     0.050 C 
ENDBRANCH   7  10
ENDBRANCH   5   6
ENDBRANCH   1   5
BRANCH   1  18
HETATM   18  C   UNL     1       5.424  34.330  61.869  1.00  0.00     0.277 C 
BRANCH  18  19
HETATM   19  C   UNL     1       4.169  34.065  62.628  1.00  0.00     0.012 A 
HETATM   20  C   UNL     1       3.803  34.481  63.952  1.00  0.00     0.071 A 
HETATM   21  N   UNL     1       2.568  34.057  64.247  1.00  0.00    -0.178 NA
HETATM   22  N   UNL     1       2.176  33.329  63.202  1.00  0.00    -0.288 N 
HETATM   23  H   UNL     1       1.268  32.872  63.249  1.00  0.00     0.188 HD
HETATM   24  C   UNL     1       3.091  33.313  62.193  1.00  0.00     0.120 A 
BRANCH  20  25
HETATM   25  C   UNL     1       4.583  35.288  64.998  1.00  0.00    -0.004 C 
HETATM   26  C   UNL     1       5.841  34.526  65.457  1.00  0.00     0.021 C 
HETATM   27  C   UNL     1       5.065  36.649  64.431  1.00  0.00     0.021 C 
HETATM   28  C   UNL     1       3.689  35.600  66.214  1.00  0.00     0.021 C 
ENDBRANCH  20  25
ENDBRANCH  18  19
ENDBRANCH   1  18
TORSDOF 7
ENDMDL
