MODEL 1
REMARK VINA RESULT:     -11.0      0.000      0.000
REMARK  6 active torsions:
REMARK  status: ('A' for Active; 'I' for Inactive)
REMARK    1  A    between atoms: C_2  and  O_3 
REMARK    2  A    between atoms: C_2  and  C_4 
REMARK    3  A    between atoms: C_6  and  N_7 
REMARK       I    between atoms: N_7  and  C_8 
REMARK    4  A    between atoms: C_8  and  C_9 
REMARK    5  A    between atoms: C_14  and  C_15 
REMARK    6  A    between atoms: C_23  and  C_24 
ROOT
HETATM    1  C   UNL     1       6.895  28.449  55.612  1.00  0.00     0.148 C 
HETATM    2  N   UNL     1       5.698  28.064  55.103  1.00  0.00    -0.165 NA
HETATM    3  N   UNL     1       6.035  27.083  54.248  1.00  0.00    -0.240 N 
HETATM    4  C   UNL     1       7.349  26.720  54.305  1.00  0.00     0.123 C 
HETATM    5  N   UNL     1       7.795  25.629  53.650  1.00  0.00    -0.366 N 
HETATM    6  C   UNL     1       6.887  24.593  53.145  1.00  0.00     0.118 C 
HETATM    7  C   UNL     1       5.412  24.863  53.522  1.00  0.00     0.066 C 
HETATM    8  C   UNL     1       5.054  26.353  53.472  1.00  0.00     0.221 C 
HETATM    9  C   UNL     1       7.957  27.648  55.105  1.00  0.00     0.089 C 
HETATM   10  H   UNL     1       8.777  25.356  53.696  1.00  0.00     0.161 HD
ENDROOT
BRANCH   1  11
HETATM   11  C   UNL     1       7.006  29.527  56.613  1.00  0.00     0.276 C 
HETATM   12  N   UNL     1       8.121  29.364  57.412  1.00  0.00    -0.322 N 
HETATM   13  H   UNL     1       8.674  28.544  57.169  1.00  0.00     0.169 HD
HETATM   14  O   UNL     1       6.201  30.450  56.651  1.00  0.00    -0.266 OA
BRANCH  12  15
HETATM   15  C   UNL     1       8.595  30.204  58.432  1.00  0.00     0.035 A 
HETATM   16  C   UNL     1       8.111  30.181  59.742  1.00  0.00     0.039 A 
HETATM   17  C   UNL     1       8.631  31.048  60.720  1.00  0.00    -0.028 A 
HETATM   18  C   UNL     1       9.631  31.960  60.355  1.00  0.00     0.010 A 
HETATM   19  C   UNL     1      10.120  31.989  59.052  1.00  0.00     0.003 A 
HETATM   20  C   UNL     1       9.610  31.107  58.097  1.00  0.00     0.029 A 
BRANCH  17  21
HETATM   21  C   UNL     1       8.101  30.992  62.136  1.00  0.00     0.147 C 
HETATM   22  C   UNL     1       8.337  32.288  62.897  1.00  0.00     0.044 C 
BRANCH  21  23
HETATM   23  O   UNL     1       8.721  29.920  62.847  1.00  0.00    -0.391 OA
HETATM   24  H   UNL     1       9.489  30.298  63.307  1.00  0.00     0.210 HD
ENDBRANCH  21  23
ENDBRANCH  17  21
ENDBRANCH  12  15
ENDBRANCH   1  11
BRANCH   8  25
HETATM   25  C   UNL     1       4.991  26.896  52.062  1.00  0.00     0.409 C 
HETATM   26  F   UNL     1       6.107  27.579  51.725  1.00  0.00    -0.169 F 
HETATM   27  F   UNL     1       4.785  25.951  51.123  1.00  0.00    -0.169 F 
HETATM   28  F   UNL     1       3.957  27.772  51.960  1.00  0.00    -0.169 F 
ENDBRANCH   8  25
BRANCH   6  29
HETATM   29  C   UNL     1       7.319  23.237  53.687  1.00  0.00    -0.035 A 
HETATM   30  C   UNL     1       7.780  22.224  52.821  1.00  0.00     0.012 A 
HETATM   31  C   UNL     1       8.204  20.995  53.323  1.00  0.00     0.043 A 
HETATM   32  C   UNL     1       8.178  20.772  54.692  1.00  0.00     0.116 A 
HETATM   33  F   UNL     1       8.590  19.594  55.178  1.00  0.00    -0.206 F 
HETATM   34  C   UNL     1       7.732  21.756  55.568  1.00  0.00     0.043 A 
HETATM   35  C   UNL     1       7.302  22.987  55.069  1.00  0.00     0.012 A 
ENDBRANCH   6  29
TORSDOF 6
ENDMDL
MODEL 2
REMARK VINA RESULT:     -10.8      4.197      9.676
REMARK  6 active torsions:
REMARK  status: ('A' for Active; 'I' for Inactive)
REMARK    1  A    between atoms: C_2  and  O_3 
REMARK    2  A    between atoms: C_2  and  C_4 
REMARK    3  A    between atoms: C_6  and  N_7 
REMARK       I    between atoms: N_7  and  C_8 
REMARK    4  A    between atoms: C_8  and  C_9 
REMARK    5  A    between atoms: C_14  and  C_15 
REMARK    6  A    between atoms: C_23  and  C_24 
ROOT
HETATM    1  C   UNL     1       7.391  27.282  56.845  1.00  0.00     0.148 C 
HETATM    2  N   UNL     1       8.609  27.537  57.386  1.00  0.00    -0.165 NA
HETATM    3  N   UNL     1       8.546  28.850  57.667  1.00  0.00    -0.240 N 
HETATM    4  C   UNL     1       7.312  29.402  57.483  1.00  0.00     0.123 C 
HETATM    5  N   UNL     1       7.046  30.656  57.901  1.00  0.00    -0.366 N 
HETATM    6  C   UNL     1       7.903  31.361  58.859  1.00  0.00     0.118 C 
HETATM    7  C   UNL     1       9.066  30.482  59.373  1.00  0.00     0.066 C 
HETATM    8  C   UNL     1       9.641  29.569  58.284  1.00  0.00     0.221 C 
HETATM    9  C   UNL     1       6.564  28.441  56.860  1.00  0.00     0.089 C 
HETATM   10  H   UNL     1       6.121  31.066  57.767  1.00  0.00     0.161 HD
ENDROOT
BRANCH   1  11
HETATM   11  C   UNL     1       7.010  25.936  56.381  1.00  0.00     0.276 C 
HETATM   12  N   UNL     1       7.841  25.493  55.370  1.00  0.00    -0.322 N 
HETATM   13  H   UNL     1       8.571  26.160  55.128  1.00  0.00     0.169 HD
HETATM   14  O   UNL     1       6.088  25.317  56.899  1.00  0.00    -0.266 OA
BRANCH  12  15
HETATM   15  C   UNL     1       7.834  24.253  54.713  1.00  0.00     0.035 A 
HETATM   16  C   UNL     1       7.937  23.026  55.373  1.00  0.00     0.039 A 
HETATM   17  C   UNL     1       7.922  21.816  54.657  1.00  0.00    -0.028 A 
HETATM   18  C   UNL     1       7.826  21.856  53.259  1.00  0.00     0.010 A 
HETATM   19  C   UNL     1       7.722  23.075  52.593  1.00  0.00     0.003 A 
HETATM   20  C   UNL     1       7.717  24.267  53.319  1.00  0.00     0.029 A 
BRANCH  17  21
HETATM   21  C   UNL     1       8.018  20.499  55.397  1.00  0.00     0.147 C 
HETATM   22  C   UNL     1       8.575  20.663  56.803  1.00  0.00     0.044 C 
BRANCH  21  23
HETATM   23  O   UNL     1       8.849  19.592  54.674  1.00  0.00    -0.391 OA
HETATM   24  H   UNL     1       9.751  19.955  54.705  1.00  0.00     0.210 HD
ENDBRANCH  21  23
ENDBRANCH  17  21
ENDBRANCH  12  15
ENDBRANCH   1  11
BRANCH   8  25
HETATM   25  C   UNL     1      10.427  30.326  57.237  1.00  0.00     0.409 C 
HETATM   26  F   UNL     1       9.927  30.151  55.994  1.00  0.00    -0.169 F 
HETATM   27  F   UNL     1      10.506  31.653  57.468  1.00  0.00    -0.169 F 
HETATM   28  F   UNL     1      11.705  29.864  57.208  1.00  0.00    -0.169 F 
ENDBRANCH   8  25
BRANCH   6  29
HETATM   29  C   UNL     1       7.061  31.841  60.032  1.00  0.00    -0.035 A 
HETATM   30  C   UNL     1       5.783  32.402  59.826  1.00  0.00     0.012 A 
HETATM   31  C   UNL     1       5.000  32.811  60.905  1.00  0.00     0.043 A 
HETATM   32  C   UNL     1       5.485  32.656  62.195  1.00  0.00     0.116 A 
HETATM   33  F   UNL     1       4.734  33.043  63.235  1.00  0.00    -0.206 F 
HETATM   34  C   UNL     1       6.740  32.102  62.427  1.00  0.00     0.043 A 
HETATM   35  C   UNL     1       7.528  31.695  61.349  1.00  0.00     0.012 A 
ENDBRANCH   6  29
TORSDOF 6
ENDMDL
MODEL 3
REMARK VINA RESULT:     -10.2      1.915      2.564
REMARK  6 active torsions:
REMARK  status: ('A' for Active; 'I' for Inactive)
REMARK    1  A    between atoms: C_2  and  O_3 
REMARK    2  A    between atoms: C_2  and  C_4 
REMARK    3  A    between atoms: C_6  and  N_7 
REMARK       I    between atoms: N_7  and  C_8 
REMARK    4  A    between atoms: C_8  and  C_9 
REMARK    5  A    between atoms: C_14  and  C_15 
REMARK    6  A    between atoms: C_23  and  C_24 
ROOT
HETATM    1  C   UNL     1       7.829  29.216  56.945  1.00  0.00     0.148 C 
HETATM    2  N   UNL     1       6.508  28.907  56.950  1.00  0.00    -0.165 NA
HETATM    3  N   UNL     1       6.378  28.123  55.866  1.00  0.00    -0.240 N 
HETATM    4  C   UNL     1       7.560  27.791  55.272  1.00  0.00     0.123 C 
HETATM    5  N   UNL     1       7.607  26.862  54.295  1.00  0.00    -0.366 N 
HETATM    6  C   UNL     1       6.508  25.922  54.054  1.00  0.00     0.118 C 
HETATM    7  C   UNL     1       5.363  26.073  55.082  1.00  0.00     0.066 C 
HETATM    8  C   UNL     1       5.113  27.533  55.476  1.00  0.00     0.221 C 
HETATM    9  C   UNL     1       8.513  28.558  55.883  1.00  0.00     0.089 C 
HETATM   10  H   UNL     1       8.492  26.612  53.854  1.00  0.00     0.161 HD
ENDROOT
BRANCH   1  11
HETATM   11  C   UNL     1       8.431  30.078  57.979  1.00  0.00     0.276 C 
HETATM   12  N   UNL     1       7.560  30.298  59.028  1.00  0.00    -0.322 N 
HETATM   13  H   UNL     1       6.666  29.825  58.914  1.00  0.00     0.169 HD
HETATM   14  O   UNL     1       9.585  30.481  57.883  1.00  0.00    -0.266 OA
BRANCH  12  15
HETATM   15  C   UNL     1       7.784  31.014  60.215  1.00  0.00     0.035 A 
HETATM   16  C   UNL     1       7.001  32.093  60.628  1.00  0.00     0.039 A 
HETATM   17  C   UNL     1       7.276  32.768  61.831  1.00  0.00    -0.028 A 
HETATM   18  C   UNL     1       8.370  32.356  62.604  1.00  0.00     0.010 A 
HETATM   19  C   UNL     1       9.156  31.279  62.200  1.00  0.00     0.003 A 
HETATM   20  C   UNL     1       8.858  30.606  61.014  1.00  0.00     0.029 A 
BRANCH  17  21
HETATM   21  C   UNL     1       6.402  33.924  62.265  1.00  0.00     0.147 C 
HETATM   22  C   UNL     1       6.516  34.211  63.755  1.00  0.00     0.044 C 
BRANCH  21  23
HETATM   23  O   UNL     1       5.037  33.649  61.952  1.00  0.00    -0.391 OA
HETATM   24  H   UNL     1       5.001  33.466  60.997  1.00  0.00     0.210 HD
ENDBRANCH  21  23
ENDBRANCH  17  21
ENDBRANCH  12  15
ENDBRANCH   1  11
BRANCH   8  25
HETATM   25  C   UNL     1       4.478  28.342  54.367  1.00  0.00     0.409 C 
HETATM   26  F   UNL     1       5.383  29.078  53.686  1.00  0.00    -0.169 F 
HETATM   27  F   UNL     1       3.793  27.599  53.474  1.00  0.00    -0.169 F 
HETATM   28  F   UNL     1       3.588  29.220  54.899  1.00  0.00    -0.169 F 
ENDBRANCH   8  25
BRANCH   6  29
HETATM   29  C   UNL     1       7.045  24.498  54.086  1.00  0.00    -0.035 A 
HETATM   30  C   UNL     1       7.120  23.779  55.297  1.00  0.00     0.012 A 
HETATM   31  C   UNL     1       7.583  22.464  55.318  1.00  0.00     0.043 A 
HETATM   32  C   UNL     1       7.966  21.857  54.131  1.00  0.00     0.116 A 
HETATM   33  F   UNL     1       8.405  20.592  54.147  1.00  0.00    -0.206 F 
HETATM   34  C   UNL     1       7.897  22.542  52.922  1.00  0.00     0.043 A 
HETATM   35  C   UNL     1       7.438  23.861  52.898  1.00  0.00     0.012 A 
ENDBRANCH   6  29
TORSDOF 6
ENDMDL
MODEL 4
REMARK VINA RESULT:     -10.2      2.859      4.109
REMARK  6 active torsions:
REMARK  status: ('A' for Active; 'I' for Inactive)
REMARK    1  A    between atoms: C_2  and  O_3 
REMARK    2  A    between atoms: C_2  and  C_4 
REMARK    3  A    between atoms: C_6  and  N_7 
REMARK       I    between atoms: N_7  and  C_8 
REMARK    4  A    between atoms: C_8  and  C_9 
REMARK    5  A    between atoms: C_14  and  C_15 
REMARK    6  A    between atoms: C_23  and  C_24 
ROOT
HETATM    1  C   UNL     1       7.323  30.583  58.321  1.00  0.00     0.148 C 
HETATM    2  N   UNL     1       6.037  30.183  58.165  1.00  0.00    -0.165 NA
HETATM    3  N   UNL     1       6.121  29.272  57.180  1.00  0.00    -0.240 N 
HETATM    4  C   UNL     1       7.399  28.959  56.819  1.00  0.00     0.123 C 
HETATM    5  N   UNL     1       7.649  27.929  55.985  1.00  0.00    -0.366 N 
HETATM    6  C   UNL     1       6.653  26.892  55.699  1.00  0.00     0.118 C 
HETATM    7  C   UNL     1       5.353  27.079  56.515  1.00  0.00     0.066 C 
HETATM    8  C   UNL     1       4.968  28.553  56.680  1.00  0.00     0.221 C 
HETATM    9  C   UNL     1       8.201  29.858  57.466  1.00  0.00     0.089 C 
HETATM   10  H   UNL     1       8.606  27.693  55.718  1.00  0.00     0.161 HD
ENDROOT
BRANCH   1  11
HETATM   11  C   UNL     1       7.708  31.599  59.318  1.00  0.00     0.276 C 
HETATM   12  N   UNL     1       6.884  31.562  60.426  1.00  0.00    -0.322 N 
HETATM   13  H   UNL     1       6.167  30.841  60.370  1.00  0.00     0.169 HD
HETATM   14  O   UNL     1       8.678  32.329  59.147  1.00  0.00    -0.266 OA
BRANCH  12  15
HETATM   15  C   UNL     1       6.962  32.327  61.601  1.00  0.00     0.035 A 
HETATM   16  C   UNL     1       6.188  33.465  61.837  1.00  0.00     0.039 A 
HETATM   17  C   UNL     1       6.312  34.187  63.038  1.00  0.00    -0.028 A 
HETATM   18  C   UNL     1       7.248  33.763  63.990  1.00  0.00     0.010 A 
HETATM   19  C   UNL     1       8.024  32.629  63.763  1.00  0.00     0.003 A 
HETATM   20  C   UNL     1       7.874  31.909  62.576  1.00  0.00     0.029 A 
BRANCH  17  21
HETATM   21  C   UNL     1       5.449  35.407  63.277  1.00  0.00     0.147 C 
HETATM   22  C   UNL     1       5.525  36.406  62.133  1.00  0.00     0.044 C 
BRANCH  21  23
HETATM   23  O   UNL     1       5.846  36.056  64.485  1.00  0.00    -0.391 OA
HETATM   24  H   UNL     1       6.655  35.609  64.789  1.00  0.00     0.210 HD
ENDBRANCH  21  23
ENDBRANCH  17  21
ENDBRANCH  12  15
ENDBRANCH   1  11
BRANCH   8  25
HETATM   25  C   UNL     1       4.476  29.181  55.395  1.00  0.00     0.409 C 
HETATM   26  F   UNL     1       5.420  29.945  54.804  1.00  0.00    -0.169 F 
HETATM   27  F   UNL     1       4.038  28.287  54.485  1.00  0.00    -0.169 F 
HETATM   28  F   UNL     1       3.427  30.002  55.664  1.00  0.00    -0.169 F 
ENDBRANCH   8  25
BRANCH   6  29
HETATM   29  C   UNL     1       7.252  25.523  55.990  1.00  0.00    -0.035 A 
HETATM   30  C   UNL     1       8.218  25.355  57.005  1.00  0.00     0.012 A 
HETATM   31  C   UNL     1       8.741  24.095  57.290  1.00  0.00     0.043 A 
HETATM   32  C   UNL     1       8.299  22.994  56.571  1.00  0.00     0.116 A 
HETATM   33  F   UNL     1       8.795  21.781  56.847  1.00  0.00    -0.206 F 
HETATM   34  C   UNL     1       7.344  23.131  55.569  1.00  0.00     0.043 A 
HETATM   35  C   UNL     1       6.820  24.393  55.277  1.00  0.00     0.012 A 
ENDBRANCH   6  29
TORSDOF 6
ENDMDL
MODEL 5
REMARK VINA RESULT:      -9.6      4.261      8.394
REMARK  6 active torsions:
REMARK  status: ('A' for Active; 'I' for Inactive)
REMARK    1  A    between atoms: C_2  and  O_3 
REMARK    2  A    between atoms: C_2  and  C_4 
REMARK    3  A    between atoms: C_6  and  N_7 
REMARK       I    between atoms: N_7  and  C_8 
REMARK    4  A    between atoms: C_8  and  C_9 
REMARK    5  A    between atoms: C_14  and  C_15 
REMARK    6  A    between atoms: C_23  and  C_24 
ROOT
HETATM    1  C   UNL     1       5.101  27.585  52.974  1.00  0.00     0.148 C 
HETATM    2  N   UNL     1       6.143  27.947  53.763  1.00  0.00    -0.165 NA
HETATM    3  N   UNL     1       6.282  26.892  54.584  1.00  0.00    -0.240 N 
HETATM    4  C   UNL     1       5.498  25.824  54.257  1.00  0.00     0.123 C 
HETATM    5  N   UNL     1       5.663  24.632  54.866  1.00  0.00    -0.366 N 
HETATM    6  C   UNL     1       6.870  24.302  55.628  1.00  0.00     0.118 C 
HETATM    7  C   UNL     1       7.930  25.427  55.576  1.00  0.00     0.066 C 
HETATM    8  C   UNL     1       7.305  26.827  55.607  1.00  0.00     0.221 C 
HETATM    9  C   UNL     1       4.650  26.270  53.281  1.00  0.00     0.089 C 
HETATM   10  H   UNL     1       5.078  23.833  54.618  1.00  0.00     0.161 HD
ENDROOT
BRANCH   1  11
HETATM   11  C   UNL     1       4.591  28.463  51.905  1.00  0.00     0.276 C 
HETATM   12  N   UNL     1       4.514  27.800  50.696  1.00  0.00    -0.322 N 
HETATM   13  H   UNL     1       4.810  26.827  50.752  1.00  0.00     0.169 HD
HETATM   14  O   UNL     1       4.251  29.619  52.133  1.00  0.00    -0.266 OA
BRANCH  12  15
HETATM   15  C   UNL     1       4.030  28.275  49.467  1.00  0.00     0.035 A 
HETATM   16  C   UNL     1       2.878  27.786  48.846  1.00  0.00     0.039 A 
HETATM   17  C   UNL     1       2.444  28.307  47.615  1.00  0.00    -0.028 A 
HETATM   18  C   UNL     1       3.200  29.314  47.000  1.00  0.00     0.010 A 
HETATM   19  C   UNL     1       4.349  29.809  47.613  1.00  0.00     0.003 A 
HETATM   20  C   UNL     1       4.756  29.297  48.846  1.00  0.00     0.029 A 
BRANCH  17  21
HETATM   21  C   UNL     1       1.183  27.771  46.971  1.00  0.00     0.147 C 
HETATM   22  C   UNL     1       0.238  28.880  46.535  1.00  0.00     0.044 C 
BRANCH  21  23
HETATM   23  O   UNL     1       0.498  26.911  47.881  1.00  0.00    -0.391 OA
HETATM   24  H   UNL     1      -0.296  26.592  47.419  1.00  0.00     0.210 HD
ENDBRANCH  21  23
ENDBRANCH  17  21
ENDBRANCH  12  15
ENDBRANCH   1  11
BRANCH   8  25
HETATM   25  C   UNL     1       6.721  27.181  56.956  1.00  0.00     0.409 C 
HETATM   26  F   UNL     1       5.384  26.989  57.002  1.00  0.00    -0.169 F 
HETATM   27  F   UNL     1       7.272  26.504  57.983  1.00  0.00    -0.169 F 
HETATM   28  F   UNL     1       6.931  28.500  57.208  1.00  0.00    -0.169 F 
ENDBRANCH   8  25
BRANCH   6  29
HETATM   29  C   UNL     1       7.466  23.007  55.094  1.00  0.00    -0.035 A 
HETATM   30  C   UNL     1       7.620  22.798  53.708  1.00  0.00     0.012 A 
HETATM   31  C   UNL     1       8.195  21.624  53.223  1.00  0.00     0.043 A 
HETATM   32  C   UNL     1       8.627  20.657  54.119  1.00  0.00     0.116 A 
HETATM   33  F   UNL     1       9.186  19.530  53.657  1.00  0.00    -0.206 F 
HETATM   34  C   UNL     1       8.492  20.840  55.491  1.00  0.00     0.043 A 
HETATM   35  C   UNL     1       7.912  22.013  55.980  1.00  0.00     0.012 A 
ENDBRANCH   6  29
TORSDOF 6
ENDMDL
MODEL 6
REMARK VINA RESULT:      -9.5      2.335      4.730
REMARK  6 active torsions:
REMARK  status: ('A' for Active; 'I' for Inactive)
REMARK    1  A    between atoms: C_2  and  O_3 
REMARK    2  A    between atoms: C_2  and  C_4 
REMARK    3  A    between atoms: C_6  and  N_7 
REMARK       I    between atoms: N_7  and  C_8 
REMARK    4  A    between atoms: C_8  and  C_9 
REMARK    5  A    between atoms: C_14  and  C_15 
REMARK    6  A    between atoms: C_23  and  C_24 
ROOT
HETATM    1  C   UNL     1       6.215  27.976  55.651  1.00  0.00     0.148 C 
HETATM    2  N   UNL     1       7.224  27.215  55.159  1.00  0.00    -0.165 NA
HETATM    3  N   UNL     1       6.623  26.510  54.185  1.00  0.00    -0.240 N 
HETATM    4  C   UNL     1       5.339  26.894  53.929  1.00  0.00     0.123 C 
HETATM    5  N   UNL     1       4.673  26.414  52.859  1.00  0.00    -0.366 N 
HETATM    6  C   UNL     1       5.357  25.756  51.741  1.00  0.00     0.118 C 
HETATM    7  C   UNL     1       6.895  25.759  51.903  1.00  0.00     0.066 C 
HETATM    8  C   UNL     1       7.334  25.557  53.358  1.00  0.00     0.221 C 
HETATM    9  C   UNL     1       5.008  27.773  54.923  1.00  0.00     0.089 C 
HETATM   10  H   UNL     1       3.714  26.705  52.667  1.00  0.00     0.161 HD
ENDROOT
BRANCH   1  11
HETATM   11  C   UNL     1       6.423  28.924  56.761  1.00  0.00     0.276 C 
HETATM   12  N   UNL     1       7.764  29.196  56.952  1.00  0.00    -0.322 N 
HETATM   13  H   UNL     1       8.371  28.708  56.296  1.00  0.00     0.169 HD
HETATM   14  O   UNL     1       5.480  29.412  57.372  1.00  0.00    -0.266 OA
BRANCH  12  15
HETATM   15  C   UNL     1       8.355  30.083  57.866  1.00  0.00     0.035 A 
HETATM   16  C   UNL     1       7.706  30.570  59.003  1.00  0.00     0.039 A 
HETATM   17  C   UNL     1       8.354  31.456  59.882  1.00  0.00    -0.028 A 
HETATM   18  C   UNL     1       9.662  31.867  59.587  1.00  0.00     0.010 A 
HETATM   19  C   UNL     1      10.317  31.385  58.456  1.00  0.00     0.003 A 
HETATM   20  C   UNL     1       9.668  30.489  57.605  1.00  0.00     0.029 A 
BRANCH  17  21
HETATM   21  C   UNL     1       7.636  31.956  61.116  1.00  0.00     0.147 C 
HETATM   22  C   UNL     1       8.335  31.545  62.402  1.00  0.00     0.044 C 
BRANCH  21  23
HETATM   23  O   UNL     1       6.298  31.457  61.137  1.00  0.00    -0.391 OA
HETATM   24  H   UNL     1       5.750  32.146  61.551  1.00  0.00     0.210 HD
ENDBRANCH  21  23
ENDBRANCH  17  21
ENDBRANCH  12  15
ENDBRANCH   1  11
BRANCH   8  25
HETATM   25  C   UNL     1       7.095  24.150  53.856  1.00  0.00     0.409 C 
HETATM   26  F   UNL     1       6.083  24.087  54.749  1.00  0.00    -0.169 F 
HETATM   27  F   UNL     1       6.837  23.261  52.875  1.00  0.00    -0.169 F 
HETATM   28  F   UNL     1       8.205  23.702  54.499  1.00  0.00    -0.169 F 
ENDBRANCH   8  25
BRANCH   6  29
HETATM   29  C   UNL     1       4.974  26.446  50.439  1.00  0.00    -0.035 A 
HETATM   30  C   UNL     1       4.258  25.758  49.438  1.00  0.00     0.012 A 
HETATM   31  C   UNL     1       3.881  26.401  48.260  1.00  0.00     0.043 A 
HETATM   32  C   UNL     1       4.210  27.736  48.078  1.00  0.00     0.116 A 
HETATM   33  F   UNL     1       3.844  28.360  46.950  1.00  0.00    -0.206 F 
HETATM   34  C   UNL     1       4.911  28.440  49.052  1.00  0.00     0.043 A 
HETATM   35  C   UNL     1       5.295  27.797  50.231  1.00  0.00     0.012 A 
ENDBRANCH   6  29
TORSDOF 6
ENDMDL
MODEL 7
REMARK VINA RESULT:      -9.5      2.089      2.533
REMARK  6 active torsions:
REMARK  status: ('A' for Active; 'I' for Inactive)
REMARK    1  A    between atoms: C_2  and  O_3 
REMARK    2  A    between atoms: C_2  and  C_4 
REMARK    3  A    between atoms: C_6  and  N_7 
REMARK       I    between atoms: N_7  and  C_8 
REMARK    4  A    between atoms: C_8  and  C_9 
REMARK    5  A    between atoms: C_14  and  C_15 
REMARK    6  A    between atoms: C_23  and  C_24 
ROOT
HETATM    1  C   UNL     1       5.862  28.554  54.721  1.00  0.00     0.148 C 
HETATM    2  N   UNL     1       4.871  27.929  54.037  1.00  0.00    -0.165 NA
HETATM    3  N   UNL     1       5.516  26.922  53.424  1.00  0.00    -0.240 N 
HETATM    4  C   UNL     1       6.819  26.779  53.805  1.00  0.00     0.123 C 
HETATM    5  N   UNL     1       7.538  25.704  53.424  1.00  0.00    -0.366 N 
HETATM    6  C   UNL     1       6.909  24.487  52.899  1.00  0.00     0.118 C 
HETATM    7  C   UNL     1       5.365  24.563  52.917  1.00  0.00     0.066 C 
HETATM    8  C   UNL     1       4.839  25.962  52.577  1.00  0.00     0.221 C 
HETATM    9  C   UNL     1       7.105  27.877  54.569  1.00  0.00     0.089 C 
HETATM   10  H   UNL     1       8.510  25.596  53.712  1.00  0.00     0.161 HD
ENDROOT
BRANCH   1  11
HETATM   11  C   UNL     1       5.604  29.743  55.554  1.00  0.00     0.276 C 
HETATM   12  N   UNL     1       6.121  29.593  56.827  1.00  0.00    -0.322 N 
HETATM   13  H   UNL     1       6.595  28.703  56.966  1.00  0.00     0.169 HD
HETATM   14  O   UNL     1       5.035  30.730  55.103  1.00  0.00    -0.266 OA
BRANCH  12  15
HETATM   15  C   UNL     1       6.127  30.519  57.882  1.00  0.00     0.035 A 
HETATM   16  C   UNL     1       4.985  31.181  58.338  1.00  0.00     0.039 A 
HETATM   17  C   UNL     1       5.057  32.096  59.403  1.00  0.00    -0.028 A 
HETATM   18  C   UNL     1       6.303  32.358  59.990  1.00  0.00     0.010 A 
HETATM   19  C   UNL     1       7.447  31.701  59.541  1.00  0.00     0.003 A 
HETATM   20  C   UNL     1       7.356  30.779  58.498  1.00  0.00     0.029 A 
BRANCH  17  21
HETATM   21  C   UNL     1       3.802  32.788  59.890  1.00  0.00     0.147 C 
HETATM   22  C   UNL     1       4.029  33.563  61.180  1.00  0.00     0.044 C 
BRANCH  21  23
HETATM   23  O   UNL     1       2.768  31.828  60.105  1.00  0.00    -0.391 OA
HETATM   24  H   UNL     1       3.195  31.034  60.470  1.00  0.00     0.210 HD
ENDBRANCH  21  23
ENDBRANCH  17  21
ENDBRANCH  12  15
ENDBRANCH   1  11
BRANCH   8  25
HETATM   25  C   UNL     1       5.028  26.323  51.120  1.00  0.00     0.409 C 
HETATM   26  F   UNL     1       6.326  26.530  50.808  1.00  0.00    -0.169 F 
HETATM   27  F   UNL     1       4.538  25.404  50.263  1.00  0.00    -0.169 F 
HETATM   28  F   UNL     1       4.376  27.485  50.853  1.00  0.00    -0.169 F 
ENDBRANCH   8  25
BRANCH   6  29
HETATM   29  C   UNL     1       7.377  23.287  53.711  1.00  0.00    -0.035 A 
HETATM   30  C   UNL     1       7.375  23.322  55.121  1.00  0.00     0.012 A 
HETATM   31  C   UNL     1       7.774  22.210  55.863  1.00  0.00     0.043 A 
HETATM   32  C   UNL     1       8.169  21.056  55.201  1.00  0.00     0.116 A 
HETATM   33  F   UNL     1       8.547  19.985  55.910  1.00  0.00    -0.206 F 
HETATM   34  C   UNL     1       8.175  20.994  53.812  1.00  0.00     0.043 A 
HETATM   35  C   UNL     1       7.781  22.107  53.066  1.00  0.00     0.012 A 
ENDBRANCH   6  29
TORSDOF 6
ENDMDL
MODEL 8
REMARK VINA RESULT:      -9.5      1.825      2.054
REMARK  6 active torsions:
REMARK  status: ('A' for Active; 'I' for Inactive)
REMARK    1  A    between atoms: C_2  and  O_3 
REMARK    2  A    between atoms: C_2  and  C_4 
REMARK    3  A    between atoms: C_6  and  N_7 
REMARK       I    between atoms: N_7  and  C_8 
REMARK    4  A    between atoms: C_8  and  C_9 
REMARK    5  A    between atoms: C_14  and  C_15 
REMARK    6  A    between atoms: C_23  and  C_24 
ROOT
HETATM    1  C   UNL     1       6.976  28.227  56.544  1.00  0.00     0.148 C 
HETATM    2  N   UNL     1       5.763  27.916  56.023  1.00  0.00    -0.165 NA
HETATM    3  N   UNL     1       6.071  27.070  55.025  1.00  0.00    -0.240 N 
HETATM    4  C   UNL     1       7.386  26.707  54.987  1.00  0.00     0.123 C 
HETATM    5  N   UNL     1       7.809  25.723  54.168  1.00  0.00    -0.366 N 
HETATM    6  C   UNL     1       6.885  24.768  53.548  1.00  0.00     0.118 C 
HETATM    7  C   UNL     1       5.423  24.976  54.005  1.00  0.00     0.066 C 
HETATM    8  C   UNL     1       5.066  26.456  54.183  1.00  0.00     0.221 C 
HETATM    9  C   UNL     1       8.021  27.511  55.893  1.00  0.00     0.089 C 
HETATM   10  H   UNL     1       8.792  25.450  54.143  1.00  0.00     0.161 HD
ENDROOT
BRANCH   1  11
HETATM   11  C   UNL     1       7.121  29.149  57.686  1.00  0.00     0.276 C 
HETATM   12  N   UNL     1       6.198  30.175  57.630  1.00  0.00    -0.322 N 
HETATM   13  H   UNL     1       5.577  30.115  56.826  1.00  0.00     0.169 HD
HETATM   14  O   UNL     1       7.948  28.950  58.568  1.00  0.00    -0.266 OA
BRANCH  12  15
HETATM   15  C   UNL     1       5.984  31.210  58.555  1.00  0.00     0.035 A 
HETATM   16  C   UNL     1       6.879  31.530  59.579  1.00  0.00     0.039 A 
HETATM   17  C   UNL     1       6.608  32.582  60.473  1.00  0.00    -0.028 A 
HETATM   18  C   UNL     1       5.407  33.293  60.339  1.00  0.00     0.010 A 
HETATM   19  C   UNL     1       4.511  32.981  59.320  1.00  0.00     0.003 A 
HETATM   20  C   UNL     1       4.803  31.949  58.427  1.00  0.00     0.029 A 
BRANCH  17  21
HETATM   21  C   UNL     1       7.601  32.920  61.563  1.00  0.00     0.147 C 
HETATM   22  C   UNL     1       8.815  32.004  61.549  1.00  0.00     0.044 C 
BRANCH  21  23
HETATM   23  O   UNL     1       6.971  32.832  62.841  1.00  0.00    -0.391 OA
HETATM   24  H   UNL     1       6.052  32.555  62.681  1.00  0.00     0.210 HD
ENDBRANCH  21  23
ENDBRANCH  17  21
ENDBRANCH  12  15
ENDBRANCH   1  11
BRANCH   8  25
HETATM   25  C   UNL     1       4.958  27.197  52.869  1.00  0.00     0.409 C 
HETATM   26  F   UNL     1       6.009  28.019  52.657  1.00  0.00    -0.169 F 
HETATM   27  F   UNL     1       4.842  26.389  51.796  1.00  0.00    -0.169 F 
HETATM   28  F   UNL     1       3.850  27.983  52.881  1.00  0.00    -0.169 F 
ENDBRANCH   8  25
BRANCH   6  29
HETATM   29  C   UNL     1       7.331  23.350  53.874  1.00  0.00    -0.035 A 
HETATM   30  C   UNL     1       7.771  22.477  52.857  1.00  0.00     0.012 A 
HETATM   31  C   UNL     1       8.209  21.189  53.163  1.00  0.00     0.043 A 
HETATM   32  C   UNL     1       8.218  20.768  54.484  1.00  0.00     0.116 A 
HETATM   33  F   UNL     1       8.644  19.533  54.782  1.00  0.00    -0.206 F 
HETATM   34  C   UNL     1       7.794  21.611  55.507  1.00  0.00     0.043 A 
HETATM   35  C   UNL     1       7.350  22.900  55.204  1.00  0.00     0.012 A 
ENDBRANCH   6  29
TORSDOF 6
ENDMDL
MODEL 9
REMARK VINA RESULT:      -9.5      5.528      9.277
REMARK  6 active torsions:
REMARK  status: ('A' for Active; 'I' for Inactive)
REMARK    1  A    between atoms: C_2  and  O_3 
REMARK    2  A    between atoms: C_2  and  C_4 
REMARK    3  A    between atoms: C_6  and  N_7 
REMARK       I    between atoms: N_7  and  C_8 
REMARK    4  A    between atoms: C_8  and  C_9 
REMARK    5  A    between atoms: C_14  and  C_15 
REMARK    6  A    between atoms: C_23  and  C_24 
ROOT
HETATM    1  C   UNL     1       5.018  26.643  51.796  1.00  0.00     0.148 C 
HETATM    2  N   UNL     1       5.170  26.028  50.597  1.00  0.00    -0.165 NA
HETATM    3  N   UNL     1       4.534  26.856  49.750  1.00  0.00    -0.240 N 
HETATM    4  C   UNL     1       4.131  28.030  50.316  1.00  0.00     0.123 C 
HETATM    5  N   UNL     1       3.653  29.037  49.556  1.00  0.00    -0.366 N 
HETATM    6  C   UNL     1       3.854  29.086  48.104  1.00  0.00     0.118 C 
HETATM    7  C   UNL     1       4.727  27.919  47.587  1.00  0.00     0.066 C 
HETATM    8  C   UNL     1       4.452  26.605  48.326  1.00  0.00     0.221 C 
HETATM    9  C   UNL     1       4.339  27.887  51.660  1.00  0.00     0.089 C 
HETATM   10  H   UNL     1       3.355  29.916  49.979  1.00  0.00     0.161 HD
ENDROOT
BRANCH   1  11
HETATM   11  C   UNL     1       5.570  26.073  53.039  1.00  0.00     0.276 C 
HETATM   12  N   UNL     1       6.457  25.048  52.778  1.00  0.00    -0.322 N 
HETATM   13  H   UNL     1       6.585  24.869  51.784  1.00  0.00     0.169 HD
HETATM   14  O   UNL     1       5.272  26.528  54.138  1.00  0.00    -0.266 OA
BRANCH  12  15
HETATM   15  C   UNL     1       7.223  24.301  53.688  1.00  0.00     0.035 A 
HETATM   16  C   UNL     1       7.644  22.991  53.454  1.00  0.00     0.039 A 
HETATM   17  C   UNL     1       8.412  22.296  54.405  1.00  0.00    -0.028 A 
HETATM   18  C   UNL     1       8.731  22.933  55.613  1.00  0.00     0.010 A 
HETATM   19  C   UNL     1       8.315  24.240  55.855  1.00  0.00     0.003 A 
HETATM   20  C   UNL     1       7.572  24.924  54.892  1.00  0.00     0.029 A 
BRANCH  17  21
HETATM   21  C   UNL     1       8.871  20.883  54.120  1.00  0.00     0.147 C 
HETATM   22  C   UNL     1       8.346  20.359  52.792  1.00  0.00     0.044 C 
BRANCH  21  23
HETATM   23  O   UNL     1       8.440  20.010  55.164  1.00  0.00    -0.391 OA
HETATM   24  H   UNL     1       9.243  19.693  55.612  1.00  0.00     0.210 HD
ENDBRANCH  21  23
ENDBRANCH  17  21
ENDBRANCH  12  15
ENDBRANCH   1  11
BRANCH   8  25
HETATM   25  C   UNL     1       3.109  26.004  47.977  1.00  0.00     0.409 C 
HETATM   26  F   UNL     1       3.003  24.718  48.377  1.00  0.00    -0.169 F 
HETATM   27  F   UNL     1       2.059  26.683  48.484  1.00  0.00    -0.169 F 
HETATM   28  F   UNL     1       2.950  26.002  46.627  1.00  0.00    -0.169 F 
ENDBRANCH   8  25
BRANCH   6  29
HETATM   29  C   UNL     1       4.495  30.415  47.729  1.00  0.00    -0.035 A 
HETATM   30  C   UNL     1       5.133  31.212  48.701  1.00  0.00     0.012 A 
HETATM   31  C   UNL     1       5.747  32.414  48.349  1.00  0.00     0.043 A 
HETATM   32  C   UNL     1       5.733  32.822  47.024  1.00  0.00     0.116 A 
HETATM   33  F   UNL     1       6.326  33.974  46.680  1.00  0.00    -0.206 F 
HETATM   34  C   UNL     1       5.114  32.053  46.044  1.00  0.00     0.043 A 
HETATM   35  C   UNL     1       4.495  30.851  46.394  1.00  0.00     0.012 A 
ENDBRANCH   6  29
TORSDOF 6
ENDMDL
MODEL 10
REMARK VINA RESULT:      -9.3      2.771      3.605
REMARK  6 active torsions:
REMARK  status: ('A' for Active; 'I' for Inactive)
REMARK    1  A    between atoms: C_2  and  O_3 
REMARK    2  A    between atoms: C_2  and  C_4 
REMARK    3  A    between atoms: C_6  and  N_7 
REMARK       I    between atoms: N_7  and  C_8 
REMARK    4  A    between atoms: C_8  and  C_9 
REMARK    5  A    between atoms: C_14  and  C_15 
REMARK    6  A    between atoms: C_23  and  C_24 
ROOT
HETATM    1  C   UNL     1       6.328  28.345  55.694  1.00  0.00     0.148 C 
HETATM    2  N   UNL     1       5.252  27.915  54.989  1.00  0.00    -0.165 NA
HETATM    3  N   UNL     1       5.776  26.976  54.183  1.00  0.00    -0.240 N 
HETATM    4  C   UNL     1       7.080  26.677  54.447  1.00  0.00     0.123 C 
HETATM    5  N   UNL     1       7.684  25.627  53.854  1.00  0.00    -0.366 N 
HETATM    6  C   UNL     1       6.928  24.562  53.188  1.00  0.00     0.118 C 
HETATM    7  C   UNL     1       5.399  24.748  53.323  1.00  0.00     0.066 C 
HETATM    8  C   UNL     1       4.975  26.218  53.243  1.00  0.00     0.221 C 
HETATM    9  C   UNL     1       7.500  27.612  55.354  1.00  0.00     0.089 C 
HETATM   10  H   UNL     1       8.659  25.403  54.055  1.00  0.00     0.161 HD
ENDROOT
BRANCH   1  11
HETATM   11  C   UNL     1       6.217  29.399  56.720  1.00  0.00     0.276 C 
HETATM   12  N   UNL     1       5.186  30.275  56.439  1.00  0.00    -0.322 N 
HETATM   13  H   UNL     1       4.679  30.039  55.589  1.00  0.00     0.169 HD
HETATM   14  O   UNL     1       6.951  29.417  57.702  1.00  0.00    -0.266 OA
BRANCH  12  15
HETATM   15  C   UNL     1       4.735  31.365  57.199  1.00  0.00     0.035 A 
HETATM   16  C   UNL     1       4.948  32.699  56.842  1.00  0.00     0.039 A 
HETATM   17  C   UNL     1       4.467  33.748  57.646  1.00  0.00    -0.028 A 
HETATM   18  C   UNL     1       3.787  33.437  58.832  1.00  0.00     0.010 A 
HETATM   19  C   UNL     1       3.570  32.110  59.194  1.00  0.00     0.003 A 
HETATM   20  C   UNL     1       4.034  31.079  58.376  1.00  0.00     0.029 A 
BRANCH  17  21
HETATM   21  C   UNL     1       4.696  35.184  57.229  1.00  0.00     0.147 C 
HETATM   22  C   UNL     1       3.394  35.946  57.030  1.00  0.00     0.044 C 
BRANCH  21  23
HETATM   23  O   UNL     1       5.445  35.226  56.015  1.00  0.00    -0.391 OA
HETATM   24  H   UNL     1       5.260  34.396  55.544  1.00  0.00     0.210 HD
ENDBRANCH  21  23
ENDBRANCH  17  21
ENDBRANCH  12  15
ENDBRANCH   1  11
BRANCH   8  25
HETATM   25  C   UNL     1       5.113  26.796  51.852  1.00  0.00     0.409 C 
HETATM   26  F   UNL     1       6.243  27.521  51.708  1.00  0.00    -0.169 F 
HETATM   27  F   UNL     1       5.087  25.870  50.872  1.00  0.00    -0.169 F 
HETATM   28  F   UNL     1       4.078  27.642  51.608  1.00  0.00    -0.169 F 
ENDBRANCH   8  25
BRANCH   6  29
HETATM   29  C   UNL     1       7.337  23.215  53.768  1.00  0.00    -0.035 A 
HETATM   30  C   UNL     1       7.748  22.159  52.928  1.00  0.00     0.012 A 
HETATM   31  C   UNL     1       8.153  20.937  53.463  1.00  0.00     0.043 A 
HETATM   32  C   UNL     1       8.157  20.765  54.839  1.00  0.00     0.116 A 
HETATM   33  F   UNL     1       8.551  19.594  55.358  1.00  0.00    -0.206 F 
HETATM   34  C   UNL     1       7.761  21.791  55.691  1.00  0.00     0.043 A 
HETATM   35  C   UNL     1       7.351  23.015  55.158  1.00  0.00     0.012 A 
ENDBRANCH   6  29
TORSDOF 6
ENDMDL
