MODEL 1
REMARK VINA RESULT:      -9.1      0.000      0.000
REMARK  4 active torsions:
REMARK  status: ('A' for Active; 'I' for Inactive)
REMARK    1  A    between atoms: C_9  and  N_10 
REMARK    2  A    between atoms: N_10  and  C_12 
REMARK    3  A    between atoms: C_12  and  C_13 
REMARK    4  A    between atoms: C_14  and  C_15 
ROOT
HETATM    1  C   UNL     1       6.106  26.713  54.155  1.00  0.00     0.016 A 
HETATM    2  C   UNL     1       5.813  25.357  53.800  1.00  0.00     0.096 A 
HETATM    3  N   UNL     1       4.622  25.268  53.197  1.00  0.00    -0.174 NA
HETATM    4  N   UNL     1       4.161  26.517  53.136  1.00  0.00    -0.288 N 
HETATM    5  H   UNL     1       3.260  26.676  52.690  1.00  0.00     0.188 HD
HETATM    6  C   UNL     1       5.016  27.430  53.688  1.00  0.00     0.120 A 
ENDROOT
BRANCH   1   7
HETATM    7  C   UNL     1       7.353  27.220  54.793  1.00  0.00     0.277 C 
BRANCH   7   8
HETATM    8  N   UNL     1       7.225  27.511  56.272  1.00  0.00    -0.065 N 
HETATM    9  H   UNL     1       6.296  27.193  56.572  1.00  0.00     0.280 HD
HETATM   10  C   UNL     1       8.276  26.817  57.097  1.00  0.00     0.270 C 
BRANCH   8  11
HETATM   11  C   UNL     1       7.387  28.986  56.489  1.00  0.00     0.205 C 
HETATM   12  C   UNL     1       6.027  29.801  56.800  1.00  0.00     0.008 C 
HETATM   13  C   UNL     1       4.860  29.127  57.524  1.00  0.00     0.020 C 
HETATM   14  C   UNL     1       5.518  30.618  55.608  1.00  0.00     0.020 C 
HETATM   15  C   UNL     1       6.962  30.642  57.691  1.00  0.00     0.137 C 
HETATM   16  C   UNL     1       7.773  29.342  57.967  1.00  0.00     0.049 C 
HETATM   17  O   UNL     1       6.696  31.193  58.980  1.00  0.00    -0.385 OA
HETATM   18  C   UNL     1       8.797  30.087  58.814  1.00  0.00     0.035 C 
HETATM   19  C   UNL     1       7.887  30.924  59.764  1.00  0.00     0.168 C 
ENDBRANCH   8  11
ENDBRANCH   7   8
ENDBRANCH   1   7
BRANCH   2  20
HETATM   20  C   UNL     1       6.639  24.164  53.965  1.00  0.00    -0.002 A 
HETATM   21  C   UNL     1       6.908  23.689  55.258  1.00  0.00     0.053 A 
HETATM   22  C   UNL     1       7.682  22.544  55.439  1.00  0.00     0.103 A 
HETATM   23  C   UNL     1       8.216  21.880  54.333  1.00  0.00     0.102 A 
HETATM   24  O   UNL     1       7.885  22.139  56.732  1.00  0.00    -0.346 OA
HETATM   25  O   UNL     1       9.013  20.769  54.438  1.00  0.00    -0.346 OA
HETATM   26  C   UNL     1       7.954  22.343  53.045  1.00  0.00     0.040 A 
HETATM   27  C   UNL     1       9.540  20.637  55.766  1.00  0.00     0.202 C 
HETATM   28  C   UNL     1       8.441  20.819  56.798  1.00  0.00     0.202 C 
HETATM   29  C   UNL     1       7.177  23.491  52.860  1.00  0.00     0.017 A 
ENDBRANCH   2  20
TORSDOF 4
ENDMDL
MODEL 2
REMARK VINA RESULT:      -9.0      1.620      6.925
REMARK  4 active torsions:
REMARK  status: ('A' for Active; 'I' for Inactive)
REMARK    1  A    between atoms: C_9  and  N_10 
REMARK    2  A    between atoms: N_10  and  C_12 
REMARK    3  A    between atoms: C_12  and  C_13 
REMARK    4  A    between atoms: C_14  and  C_15 
ROOT
HETATM    1  C   UNL     1       6.233  27.173  54.152  1.00  0.00     0.016 A 
HETATM    2  C   UNL     1       6.161  28.242  55.101  1.00  0.00     0.096 A 
HETATM    3  N   UNL     1       4.896  28.646  55.270  1.00  0.00    -0.174 NA
HETATM    4  N   UNL     1       4.165  27.859  54.481  1.00  0.00    -0.288 N 
HETATM    5  H   UNL     1       3.156  27.990  54.474  1.00  0.00     0.188 HD
HETATM    6  C   UNL     1       4.914  26.947  53.793  1.00  0.00     0.120 A 
ENDROOT
BRANCH   1   7
HETATM    7  C   UNL     1       7.455  26.427  53.739  1.00  0.00     0.277 C 
BRANCH   7   8
HETATM    8  N   UNL     1       7.336  24.923  53.846  1.00  0.00    -0.065 N 
HETATM    9  H   UNL     1       6.364  24.705  54.095  1.00  0.00     0.280 HD
HETATM   10  C   UNL     1       7.688  24.216  52.565  1.00  0.00     0.270 C 
BRANCH   8  11
HETATM   11  C   UNL     1       8.285  24.438  54.901  1.00  0.00     0.205 C 
HETATM   12  C   UNL     1       7.780  24.601  56.427  1.00  0.00     0.008 C 
HETATM   13  C   UNL     1       6.290  24.540  56.767  1.00  0.00     0.020 C 
HETATM   14  C   UNL     1       8.452  25.759  57.173  1.00  0.00     0.020 C 
HETATM   15  C   UNL     1       8.559  23.286  56.624  1.00  0.00     0.137 C 
HETATM   16  C   UNL     1       8.156  22.898  55.171  1.00  0.00     0.049 C 
HETATM   17  O   UNL     1       8.202  22.158  57.420  1.00  0.00    -0.385 OA
HETATM   18  C   UNL     1       8.951  21.600  55.232  1.00  0.00     0.035 C 
HETATM   19  C   UNL     1       8.492  21.000  56.595  1.00  0.00     0.168 C 
ENDBRANCH   8  11
ENDBRANCH   7   8
ENDBRANCH   1   7
BRANCH   2  20
HETATM   20  C   UNL     1       7.232  28.852  55.884  1.00  0.00    -0.002 A 
HETATM   21  C   UNL     1       6.949  29.349  57.166  1.00  0.00     0.053 A 
HETATM   22  C   UNL     1       7.959  29.922  57.937  1.00  0.00     0.103 A 
HETATM   23  C   UNL     1       9.253  30.027  57.425  1.00  0.00     0.102 A 
HETATM   24  O   UNL     1       7.602  30.369  59.182  1.00  0.00    -0.346 OA
HETATM   25  O   UNL     1      10.287  30.608  58.114  1.00  0.00    -0.346 OA
HETATM   26  C   UNL     1       9.545  29.535  56.155  1.00  0.00     0.040 A 
HETATM   27  C   UNL     1       9.797  31.422  59.188  1.00  0.00     0.202 C 
HETATM   28  C   UNL     1       8.746  30.673  59.990  1.00  0.00     0.202 C 
HETATM   29  C   UNL     1       8.535  28.959  55.379  1.00  0.00     0.017 A 
ENDBRANCH   2  20
TORSDOF 4
ENDMDL
MODEL 3
REMARK VINA RESULT:      -8.8      1.760      7.537
REMARK  4 active torsions:
REMARK  status: ('A' for Active; 'I' for Inactive)
REMARK    1  A    between atoms: C_9  and  N_10 
REMARK    2  A    between atoms: N_10  and  C_12 
REMARK    3  A    between atoms: C_12  and  C_13 
REMARK    4  A    between atoms: C_14  and  C_15 
ROOT
HETATM    1  C   UNL     1       5.393  27.615  55.382  1.00  0.00     0.016 A 
HETATM    2  C   UNL     1       5.887  28.945  55.582  1.00  0.00     0.096 A 
HETATM    3  N   UNL     1       5.271  29.810  54.768  1.00  0.00    -0.174 NA
HETATM    4  N   UNL     1       4.392  29.084  54.077  1.00  0.00    -0.288 N 
HETATM    5  H   UNL     1       3.798  29.562  53.404  1.00  0.00     0.188 HD
HETATM    6  C   UNL     1       4.414  27.759  54.412  1.00  0.00     0.120 A 
ENDROOT
BRANCH   1   7
HETATM    7  C   UNL     1       5.792  26.392  56.132  1.00  0.00     0.277 C 
BRANCH   7   8
HETATM    8  N   UNL     1       7.031  25.707  55.598  1.00  0.00    -0.065 N 
HETATM    9  H   UNL     1       7.508  26.370  54.975  1.00  0.00     0.280 HD
HETATM   10  C   UNL     1       7.979  25.282  56.687  1.00  0.00     0.270 C 
BRANCH   8  11
HETATM   11  C   UNL     1       6.617  24.472  54.856  1.00  0.00     0.205 C 
HETATM   12  C   UNL     1       6.779  24.532  53.250  1.00  0.00     0.008 C 
HETATM   13  C   UNL     1       7.876  25.381  52.606  1.00  0.00     0.020 C 
HETATM   14  C   UNL     1       5.450  24.723  52.509  1.00  0.00     0.020 C 
HETATM   15  C   UNL     1       7.111  23.037  53.418  1.00  0.00     0.137 C 
HETATM   16  C   UNL     1       7.755  23.395  54.789  1.00  0.00     0.049 C 
HETATM   17  O   UNL     1       8.099  22.267  52.735  1.00  0.00    -0.385 OA
HETATM   18  C   UNL     1       8.074  21.936  55.091  1.00  0.00     0.035 C 
HETATM   19  C   UNL     1       8.737  21.464  53.761  1.00  0.00     0.168 C 
ENDBRANCH   8  11
ENDBRANCH   7   8
ENDBRANCH   1   7
BRANCH   2  20
HETATM   20  C   UNL     1       6.874  29.424  56.545  1.00  0.00    -0.002 A 
HETATM   21  C   UNL     1       6.459  30.254  57.598  1.00  0.00     0.053 A 
HETATM   22  C   UNL     1       7.381  30.711  58.538  1.00  0.00     0.103 A 
HETATM   23  C   UNL     1       8.729  30.367  58.419  1.00  0.00     0.102 A 
HETATM   24  O   UNL     1       6.892  31.505  59.542  1.00  0.00    -0.346 OA
HETATM   25  O   UNL     1       9.694  30.808  59.287  1.00  0.00    -0.346 OA
HETATM   26  C   UNL     1       9.150  29.542  57.378  1.00  0.00     0.040 A 
HETATM   27  C   UNL     1       9.235  31.941  60.036  1.00  0.00     0.202 C 
HETATM   28  C   UNL     1       7.846  31.685  60.596  1.00  0.00     0.202 C 
HETATM   29  C   UNL     1       8.228  29.080  56.435  1.00  0.00     0.017 A 
ENDBRANCH   2  20
TORSDOF 4
ENDMDL
MODEL 4
REMARK VINA RESULT:      -8.7      3.780      6.104
REMARK  4 active torsions:
REMARK  status: ('A' for Active; 'I' for Inactive)
REMARK    1  A    between atoms: C_9  and  N_10 
REMARK    2  A    between atoms: N_10  and  C_12 
REMARK    3  A    between atoms: C_12  and  C_13 
REMARK    4  A    between atoms: C_14  and  C_15 
ROOT
HETATM    1  C   UNL     1       8.925  30.264  58.087  1.00  0.00     0.016 A 
HETATM    2  C   UNL     1       9.256  29.299  57.082  1.00  0.00     0.096 A 
HETATM    3  N   UNL     1      10.509  29.474  56.648  1.00  0.00    -0.174 NA
HETATM    4  N   UNL     1      10.990  30.497  57.354  1.00  0.00    -0.288 N 
HETATM    5  H   UNL     1      11.952  30.785  57.187  1.00  0.00     0.188 HD
HETATM    6  C   UNL     1      10.085  31.005  58.242  1.00  0.00     0.120 A 
ENDROOT
BRANCH   1   7
HETATM    7  C   UNL     1       7.646  30.361  58.845  1.00  0.00     0.277 C 
BRANCH   7   8
HETATM    8  N   UNL     1       7.459  31.663  59.593  1.00  0.00    -0.065 N 
HETATM    9  H   UNL     1       8.272  32.257  59.390  1.00  0.00     0.280 HD
HETATM   10  C   UNL     1       6.202  32.390  59.195  1.00  0.00     0.270 C 
BRANCH   8  11
HETATM   11  C   UNL     1       7.359  31.366  61.060  1.00  0.00     0.205 C 
HETATM   12  C   UNL     1       8.752  31.398  61.877  1.00  0.00     0.008 C 
HETATM   13  C   UNL     1       9.893  32.319  61.441  1.00  0.00     0.020 C 
HETATM   14  C   UNL     1       9.291  30.005  62.221  1.00  0.00     0.020 C 
HETATM   15  C   UNL     1       7.857  31.942  63.007  1.00  0.00     0.137 C 
HETATM   16  C   UNL     1       6.994  32.633  61.910  1.00  0.00     0.049 C 
HETATM   17  O   UNL     1       8.150  32.972  63.949  1.00  0.00    -0.385 OA
HETATM   18  C   UNL     1       6.005  33.168  62.938  1.00  0.00     0.035 C 
HETATM   19  C   UNL     1       6.951  33.788  64.010  1.00  0.00     0.168 C 
ENDBRANCH   8  11
ENDBRANCH   7   8
ENDBRANCH   1   7
BRANCH   2  20
HETATM   20  C   UNL     1       8.450  28.196  56.565  1.00  0.00    -0.002 A 
HETATM   21  C   UNL     1       7.934  28.275  55.263  1.00  0.00     0.053 A 
HETATM   22  C   UNL     1       7.174  27.228  54.743  1.00  0.00     0.103 A 
HETATM   23  C   UNL     1       6.901  26.107  55.528  1.00  0.00     0.102 A 
HETATM   24  O   UNL     1       6.720  27.378  53.459  1.00  0.00    -0.346 OA
HETATM   25  O   UNL     1       6.135  25.056  55.094  1.00  0.00    -0.346 OA
HETATM   26  C   UNL     1       7.410  26.018  56.822  1.00  0.00     0.040 A 
HETATM   27  C   UNL     1       5.348  25.429  53.954  1.00  0.00     0.202 C 
HETATM   28  C   UNL     1       6.203  26.152  52.927  1.00  0.00     0.202 C 
HETATM   29  C   UNL     1       8.174  27.065  57.346  1.00  0.00     0.017 A 
ENDBRANCH   2  20
TORSDOF 4
ENDMDL
MODEL 5
REMARK VINA RESULT:      -8.7      1.471      2.402
REMARK  4 active torsions:
REMARK  status: ('A' for Active; 'I' for Inactive)
REMARK    1  A    between atoms: C_9  and  N_10 
REMARK    2  A    between atoms: N_10  and  C_12 
REMARK    3  A    between atoms: C_12  and  C_13 
REMARK    4  A    between atoms: C_14  and  C_15 
ROOT
HETATM    1  C   UNL     1       4.612  27.584  54.315  1.00  0.00     0.016 A 
HETATM    2  C   UNL     1       5.127  26.724  53.292  1.00  0.00     0.096 A 
HETATM    3  N   UNL     1       4.620  27.047  52.097  1.00  0.00    -0.174 NA
HETATM    4  N   UNL     1       3.821  28.090  52.321  1.00  0.00    -0.288 N 
HETATM    5  H   UNL     1       3.343  28.508  51.526  1.00  0.00     0.188 HD
HETATM    6  C   UNL     1       3.785  28.463  53.634  1.00  0.00     0.120 A 
ENDROOT
BRANCH   1   7
HETATM    7  C   UNL     1       4.977  27.572  55.759  1.00  0.00     0.277 C 
BRANCH   7   8
HETATM    8  N   UNL     1       5.426  28.911  56.302  1.00  0.00    -0.065 N 
HETATM    9  H   UNL     1       5.768  29.468  55.510  1.00  0.00     0.280 HD
HETATM   10  C   UNL     1       4.320  29.661  56.995  1.00  0.00     0.270 C 
BRANCH   8  11
HETATM   11  C   UNL     1       6.512  28.682  57.310  1.00  0.00     0.205 C 
HETATM   12  C   UNL     1       7.924  28.172  56.714  1.00  0.00     0.008 C 
HETATM   13  C   UNL     1       8.370  28.574  55.307  1.00  0.00     0.020 C 
HETATM   14  C   UNL     1       8.185  26.680  56.952  1.00  0.00     0.020 C 
HETATM   15  C   UNL     1       8.499  29.026  57.861  1.00  0.00     0.137 C 
HETATM   16  C   UNL     1       7.296  29.994  57.665  1.00  0.00     0.049 C 
HETATM   17  O   UNL     1       9.654  29.864  57.847  1.00  0.00    -0.385 OA
HETATM   18  C   UNL     1       7.735  30.876  58.826  1.00  0.00     0.035 C 
HETATM   19  C   UNL     1       9.251  31.083  58.524  1.00  0.00     0.168 C 
ENDBRANCH   8  11
ENDBRANCH   7   8
ENDBRANCH   1   7
BRANCH   2  20
HETATM   20  C   UNL     1       6.114  25.654  53.402  1.00  0.00    -0.002 A 
HETATM   21  C   UNL     1       6.122  24.841  54.546  1.00  0.00     0.053 A 
HETATM   22  C   UNL     1       7.046  23.804  54.666  1.00  0.00     0.103 A 
HETATM   23  C   UNL     1       7.986  23.587  53.658  1.00  0.00     0.102 A 
HETATM   24  O   UNL     1       6.977  23.050  55.808  1.00  0.00    -0.346 OA
HETATM   25  O   UNL     1       8.944  22.608  53.724  1.00  0.00    -0.346 OA
HETATM   26  C   UNL     1       7.986  24.387  52.517  1.00  0.00     0.040 A 
HETATM   27  C   UNL     1       9.112  22.142  55.070  1.00  0.00     0.202 C 
HETATM   28  C   UNL     1       7.763  21.856  55.709  1.00  0.00     0.202 C 
HETATM   29  C   UNL     1       7.060  25.427  52.392  1.00  0.00     0.017 A 
ENDBRANCH   2  20
TORSDOF 4
ENDMDL
MODEL 6
REMARK VINA RESULT:      -8.6      3.176      9.217
REMARK  4 active torsions:
REMARK  status: ('A' for Active; 'I' for Inactive)
REMARK    1  A    between atoms: C_9  and  N_10 
REMARK    2  A    between atoms: N_10  and  C_12 
REMARK    3  A    between atoms: C_12  and  C_13 
REMARK    4  A    between atoms: C_14  and  C_15 
ROOT
HETATM    1  C   UNL     1       9.057  29.904  58.292  1.00  0.00     0.016 A 
HETATM    2  C   UNL     1       9.100  31.179  58.943  1.00  0.00     0.096 A 
HETATM    3  N   UNL     1      10.127  31.910  58.495  1.00  0.00    -0.174 NA
HETATM    4  N   UNL     1      10.723  31.156  57.571  1.00  0.00    -0.288 N 
HETATM    5  H   UNL     1      11.530  31.539  57.086  1.00  0.00     0.188 HD
HETATM    6  C   UNL     1      10.116  29.943  57.400  1.00  0.00     0.120 A 
ENDROOT
BRANCH   1   7
HETATM    7  C   UNL     1       8.035  28.838  58.484  1.00  0.00     0.277 C 
BRANCH   7   8
HETATM    8  N   UNL     1       7.089  28.661  57.317  1.00  0.00    -0.065 N 
HETATM    9  H   UNL     1       6.199  28.309  57.690  1.00  0.00     0.280 HD
HETATM   10  C   UNL     1       6.839  29.942  56.567  1.00  0.00     0.270 C 
BRANCH   8  11
HETATM   11  C   UNL     1       7.692  27.686  56.350  1.00  0.00     0.205 C 
HETATM   12  C   UNL     1       7.270  26.141  56.558  1.00  0.00     0.008 C 
HETATM   13  C   UNL     1       5.901  25.775  57.133  1.00  0.00     0.020 C 
HETATM   14  C   UNL     1       8.367  25.290  57.208  1.00  0.00     0.020 C 
HETATM   15  C   UNL     1       7.375  26.104  55.021  1.00  0.00     0.137 C 
HETATM   16  C   UNL     1       6.882  27.581  55.011  1.00  0.00     0.049 C 
HETATM   17  O   UNL     1       6.530  25.425  54.093  1.00  0.00    -0.385 OA
HETATM   18  C   UNL     1       7.011  27.678  53.496  1.00  0.00     0.035 C 
HETATM   19  C   UNL     1       6.295  26.377  53.023  1.00  0.00     0.168 C 
ENDBRANCH   8  11
ENDBRANCH   7   8
ENDBRANCH   1   7
BRANCH   2  20
HETATM   20  C   UNL     1       8.177  31.741  59.926  1.00  0.00    -0.002 A 
HETATM   21  C   UNL     1       8.581  31.845  61.266  1.00  0.00     0.053 A 
HETATM   22  C   UNL     1       7.722  32.392  62.219  1.00  0.00     0.103 A 
HETATM   23  C   UNL     1       6.445  32.814  61.846  1.00  0.00     0.102 A 
HETATM   24  O   UNL     1       8.199  32.469  63.501  1.00  0.00    -0.346 OA
HETATM   25  O   UNL     1       5.538  33.330  62.736  1.00  0.00    -0.346 OA
HETATM   26  C   UNL     1       6.035  32.717  60.518  1.00  0.00     0.040 A 
HETATM   27  C   UNL     1       5.897  33.004  64.086  1.00  0.00     0.202 C 
HETATM   28  C   UNL     1       7.369  33.291  64.331  1.00  0.00     0.202 C 
HETATM   29  C   UNL     1       6.894  32.171  59.560  1.00  0.00     0.017 A 
ENDBRANCH   2  20
TORSDOF 4
ENDMDL
MODEL 7
REMARK VINA RESULT:      -8.3      2.856      6.742
REMARK  4 active torsions:
REMARK  status: ('A' for Active; 'I' for Inactive)
REMARK    1  A    between atoms: C_9  and  N_10 
REMARK    2  A    between atoms: N_10  and  C_12 
REMARK    3  A    between atoms: C_12  and  C_13 
REMARK    4  A    between atoms: C_14  and  C_15 
ROOT
HETATM    1  C   UNL     1       6.995  23.825  55.138  1.00  0.00     0.016 A 
HETATM    2  C   UNL     1       7.545  24.549  56.244  1.00  0.00     0.096 A 
HETATM    3  N   UNL     1       8.463  23.816  56.884  1.00  0.00    -0.174 NA
HETATM    4  N   UNL     1       8.532  22.667  56.213  1.00  0.00    -0.288 N 
HETATM    5  H   UNL     1       9.195  21.964  56.530  1.00  0.00     0.188 HD
HETATM    6  C   UNL     1       7.678  22.620  55.147  1.00  0.00     0.120 A 
ENDROOT
BRANCH   1   7
HETATM    7  C   UNL     1       5.988  24.321  54.159  1.00  0.00     0.277 C 
BRANCH   7   8
HETATM    8  N   UNL     1       6.479  25.440  53.267  1.00  0.00    -0.065 N 
HETATM    9  H   UNL     1       7.018  26.090  53.854  1.00  0.00     0.280 HD
HETATM   10  C   UNL     1       7.350  24.952  52.141  1.00  0.00     0.270 C 
BRANCH   8  11
HETATM   11  C   UNL     1       5.294  26.124  52.654  1.00  0.00     0.205 C 
HETATM   12  C   UNL     1       5.171  27.708  52.943  1.00  0.00     0.008 C 
HETATM   13  C   UNL     1       6.422  28.564  53.151  1.00  0.00     0.020 C 
HETATM   14  C   UNL     1       4.104  28.058  53.986  1.00  0.00     0.020 C 
HETATM   15  C   UNL     1       4.583  27.729  51.519  1.00  0.00     0.137 C 
HETATM   16  C   UNL     1       5.546  26.557  51.168  1.00  0.00     0.049 C 
HETATM   17  O   UNL     1       4.789  28.697  50.491  1.00  0.00    -0.385 OA
HETATM   18  C   UNL     1       4.992  26.443  49.753  1.00  0.00     0.035 C 
HETATM   19  C   UNL     1       5.002  27.928  49.278  1.00  0.00     0.168 C 
ENDBRANCH   8  11
ENDBRANCH   7   8
ENDBRANCH   1   7
BRANCH   2  20
HETATM   20  C   UNL     1       7.269  25.916  56.677  1.00  0.00    -0.002 A 
HETATM   21  C   UNL     1       8.338  26.751  57.038  1.00  0.00     0.053 A 
HETATM   22  C   UNL     1       8.100  28.064  57.441  1.00  0.00     0.103 A 
HETATM   23  C   UNL     1       6.792  28.546  57.513  1.00  0.00     0.102 A 
HETATM   24  O   UNL     1       9.199  28.816  57.761  1.00  0.00    -0.346 OA
HETATM   25  O   UNL     1       6.483  29.814  57.931  1.00  0.00    -0.346 OA
HETATM   26  C   UNL     1       5.724  27.726  57.155  1.00  0.00     0.040 A 
HETATM   27  C   UNL     1       7.578  30.403  58.645  1.00  0.00     0.202 C 
HETATM   28  C   UNL     1       8.879  30.208  57.884  1.00  0.00     0.202 C 
HETATM   29  C   UNL     1       5.959  26.408  56.749  1.00  0.00     0.017 A 
ENDBRANCH   2  20
TORSDOF 4
ENDMDL
MODEL 8
REMARK VINA RESULT:      -8.3      2.592      5.697
REMARK  4 active torsions:
REMARK  status: ('A' for Active; 'I' for Inactive)
REMARK    1  A    between atoms: C_9  and  N_10 
REMARK    2  A    between atoms: N_10  and  C_12 
REMARK    3  A    between atoms: C_12  and  C_13 
REMARK    4  A    between atoms: C_14  and  C_15 
ROOT
HETATM    1  C   UNL     1       7.436  28.281  55.772  1.00  0.00     0.016 A 
HETATM    2  C   UNL     1       7.634  27.316  56.811  1.00  0.00     0.096 A 
HETATM    3  N   UNL     1       7.480  27.876  58.017  1.00  0.00    -0.174 NA
HETATM    4  N   UNL     1       7.171  29.150  57.780  1.00  0.00    -0.288 N 
HETATM    5  H   UNL     1       6.993  29.757  58.576  1.00  0.00     0.188 HD
HETATM    6  C   UNL     1       7.121  29.448  56.447  1.00  0.00     0.120 A 
ENDROOT
BRANCH   1   7
HETATM    7  C   UNL     1       7.472  28.031  54.304  1.00  0.00     0.277 C 
BRANCH   7   8
HETATM    8  N   UNL     1       6.134  27.673  53.696  1.00  0.00    -0.065 N 
HETATM    9  H   UNL     1       5.753  26.882  54.230  1.00  0.00     0.280 HD
HETATM   10  C   UNL     1       5.152  28.813  53.732  1.00  0.00     0.270 C 
BRANCH   8  11
HETATM   11  C   UNL     1       6.340  27.305  52.258  1.00  0.00     0.205 C 
HETATM   12  C   UNL     1       6.005  25.772  51.872  1.00  0.00     0.008 C 
HETATM   13  C   UNL     1       4.928  24.993  52.630  1.00  0.00     0.020 C 
HETATM   14  C   UNL     1       7.253  24.905  51.672  1.00  0.00     0.020 C 
HETATM   15  C   UNL     1       5.551  26.407  50.543  1.00  0.00     0.137 C 
HETATM   16  C   UNL     1       5.103  27.654  51.359  1.00  0.00     0.049 C 
HETATM   17  O   UNL     1       4.423  26.065  49.739  1.00  0.00    -0.385 OA
HETATM   18  C   UNL     1       4.682  28.403  50.101  1.00  0.00     0.035 C 
HETATM   19  C   UNL     1       3.830  27.333  49.353  1.00  0.00     0.168 C 
ENDBRANCH   8  11
ENDBRANCH   7   8
ENDBRANCH   1   7
BRANCH   2  20
HETATM   20  C   UNL     1       7.908  25.886  56.699  1.00  0.00    -0.002 A 
HETATM   21  C   UNL     1       7.394  25.172  55.606  1.00  0.00     0.053 A 
HETATM   22  C   UNL     1       7.655  23.809  55.471  1.00  0.00     0.103 A 
HETATM   23  C   UNL     1       8.407  23.143  56.440  1.00  0.00     0.102 A 
HETATM   24  O   UNL     1       7.128  23.190  54.368  1.00  0.00    -0.346 OA
HETATM   25  O   UNL     1       8.674  21.799  56.388  1.00  0.00    -0.346 OA
HETATM   26  C   UNL     1       8.923  23.843  57.528  1.00  0.00     0.040 A 
HETATM   27  C   UNL     1       7.778  21.130  55.490  1.00  0.00     0.202 C 
HETATM   28  C   UNL     1       7.680  21.882  54.173  1.00  0.00     0.202 C 
HETATM   29  C   UNL     1       8.665  25.210  57.666  1.00  0.00     0.017 A 
ENDBRANCH   2  20
TORSDOF 4
ENDMDL
MODEL 9
REMARK VINA RESULT:      -8.3      3.611      5.913
REMARK  4 active torsions:
REMARK  status: ('A' for Active; 'I' for Inactive)
REMARK    1  A    between atoms: C_9  and  N_10 
REMARK    2  A    between atoms: N_10  and  C_12 
REMARK    3  A    between atoms: C_12  and  C_13 
REMARK    4  A    between atoms: C_14  and  C_15 
ROOT
HETATM    1  C   UNL     1       5.835  27.254  53.755  1.00  0.00     0.016 A 
HETATM    2  C   UNL     1       6.913  26.492  54.311  1.00  0.00     0.096 A 
HETATM    3  N   UNL     1       7.604  27.220  55.196  1.00  0.00    -0.174 NA
HETATM    4  N   UNL     1       6.993  28.403  55.236  1.00  0.00    -0.288 N 
HETATM    5  H   UNL     1       7.356  29.110  55.872  1.00  0.00     0.188 HD
HETATM    6  C   UNL     1       5.916  28.478  54.398  1.00  0.00     0.120 A 
ENDROOT
BRANCH   1   7
HETATM    7  C   UNL     1       4.816  26.776  52.779  1.00  0.00     0.277 C 
BRANCH   7   8
HETATM    8  N   UNL     1       5.040  27.248  51.359  1.00  0.00    -0.065 N 
HETATM    9  H   UNL     1       5.966  27.692  51.322  1.00  0.00     0.280 HD
HETATM   10  C   UNL     1       4.990  26.126  50.356  1.00  0.00     0.270 C 
BRANCH   8  11
HETATM   11  C   UNL     1       3.959  28.221  50.997  1.00  0.00     0.205 C 
HETATM   12  C   UNL     1       4.460  29.684  50.531  1.00  0.00     0.008 C 
HETATM   13  C   UNL     1       5.804  29.860  49.821  1.00  0.00     0.020 C 
HETATM   14  C   UNL     1       4.275  30.764  51.603  1.00  0.00     0.020 C 
HETATM   15  C   UNL     1       3.229  29.602  49.607  1.00  0.00     0.137 C 
HETATM   16  C   UNL     1       3.477  28.067  49.512  1.00  0.00     0.049 C 
HETATM   17  O   UNL     1       3.107  30.041  48.255  1.00  0.00    -0.385 OA
HETATM   18  C   UNL     1       2.241  27.859  48.647  1.00  0.00     0.035 C 
HETATM   19  C   UNL     1       2.406  28.972  47.568  1.00  0.00     0.168 C 
ENDBRANCH   8  11
ENDBRANCH   7   8
ENDBRANCH   1   7
BRANCH   2  20
HETATM   20  C   UNL     1       7.272  25.097  54.074  1.00  0.00    -0.002 A 
HETATM   21  C   UNL     1       7.297  24.201  55.154  1.00  0.00     0.053 A 
HETATM   22  C   UNL     1       7.623  22.861  54.949  1.00  0.00     0.103 A 
HETATM   23  C   UNL     1       7.953  22.411  53.669  1.00  0.00     0.102 A 
HETATM   24  O   UNL     1       7.611  22.051  56.053  1.00  0.00    -0.346 OA
HETATM   25  O   UNL     1       8.315  21.116  53.401  1.00  0.00    -0.346 OA
HETATM   26  C   UNL     1       7.929  23.292  52.590  1.00  0.00     0.040 A 
HETATM   27  C   UNL     1       8.698  20.429  54.600  1.00  0.00     0.202 C 
HETATM   28  C   UNL     1       7.677  20.663  55.700  1.00  0.00     0.202 C 
HETATM   29  C   UNL     1       7.601  24.636  52.792  1.00  0.00     0.017 A 
ENDBRANCH   2  20
TORSDOF 4
ENDMDL
MODEL 10
REMARK VINA RESULT:      -8.2      3.830      7.040
REMARK  4 active torsions:
REMARK  status: ('A' for Active; 'I' for Inactive)
REMARK    1  A    between atoms: C_9  and  N_10 
REMARK    2  A    between atoms: N_10  and  C_12 
REMARK    3  A    between atoms: C_12  and  C_13 
REMARK    4  A    between atoms: C_14  and  C_15 
ROOT
HETATM    1  C   UNL     1       5.994  27.670  54.443  1.00  0.00     0.016 A 
HETATM    2  C   UNL     1       5.031  28.238  53.547  1.00  0.00     0.096 A 
HETATM    3  N   UNL     1       3.988  28.735  54.222  1.00  0.00    -0.174 NA
HETATM    4  N   UNL     1       4.264  28.525  55.509  1.00  0.00    -0.288 N 
HETATM    5  H   UNL     1       3.595  28.850  56.203  1.00  0.00     0.188 HD
HETATM    6  C   UNL     1       5.462  27.897  55.702  1.00  0.00     0.120 A 
ENDROOT
BRANCH   1   7
HETATM    7  C   UNL     1       7.306  27.068  54.077  1.00  0.00     0.277 C 
BRANCH   7   8
HETATM    8  N   UNL     1       7.274  25.568  53.883  1.00  0.00    -0.065 N 
HETATM    9  H   UNL     1       6.314  25.252  54.066  1.00  0.00     0.280 HD
HETATM   10  C   UNL     1       7.676  25.150  52.494  1.00  0.00     0.270 C 
BRANCH   8  11
HETATM   11  C   UNL     1       8.242  24.937  54.839  1.00  0.00     0.205 C 
HETATM   12  C   UNL     1       7.713  24.757  56.355  1.00  0.00     0.008 C 
HETATM   13  C   UNL     1       6.226  24.539  56.643  1.00  0.00     0.020 C 
HETATM   14  C   UNL     1       8.303  25.777  57.334  1.00  0.00     0.020 C 
HETATM   15  C   UNL     1       8.571  23.478  56.300  1.00  0.00     0.137 C 
HETATM   16  C   UNL     1       8.208  23.370  54.790  1.00  0.00     0.049 C 
HETATM   17  O   UNL     1       8.279  22.193  56.844  1.00  0.00    -0.385 OA
HETATM   18  C   UNL     1       9.082  22.136  54.604  1.00  0.00     0.035 C 
HETATM   19  C   UNL     1       8.650  21.246  55.808  1.00  0.00     0.168 C 
ENDBRANCH   8  11
ENDBRANCH   7   8
ENDBRANCH   1   7
BRANCH   2  20
HETATM   20  C   UNL     1       5.091  28.369  52.095  1.00  0.00    -0.002 A 
HETATM   21  C   UNL     1       4.805  27.255  51.291  1.00  0.00     0.053 A 
HETATM   22  C   UNL     1       4.843  27.360  49.902  1.00  0.00     0.103 A 
HETATM   23  C   UNL     1       5.193  28.572  49.304  1.00  0.00     0.102 A 
HETATM   24  O   UNL     1       4.536  26.229  49.192  1.00  0.00    -0.346 OA
HETATM   25  O   UNL     1       5.281  28.738  47.945  1.00  0.00    -0.346 OA
HETATM   26  C   UNL     1       5.477  29.685  50.092  1.00  0.00     0.040 A 
HETATM   27  C   UNL     1       5.377  27.474  47.276  1.00  0.00     0.202 C 
HETATM   28  C   UNL     1       4.327  26.510  47.802  1.00  0.00     0.202 C 
HETATM   29  C   UNL     1       5.439  29.583  51.486  1.00  0.00     0.017 A 
ENDBRANCH   2  20
TORSDOF 4
ENDMDL
