MODEL 1
REMARK VINA RESULT:      -9.3      0.000      0.000
REMARK  5 active torsions:
REMARK  status: ('A' for Active; 'I' for Inactive)
REMARK    1  A    between atoms: C_8  and  C_9 
REMARK    2  A    between atoms: N_10  and  N_11 
REMARK       I    between atoms: N_11  and  C_12 
REMARK    3  A    between atoms: C_12  and  C_13 
REMARK    4  A    between atoms: C_13  and  O_14 
REMARK    5  A    between atoms: O_14  and  C_15 
ROOT
HETATM    1  N   UNL     1       7.510  27.399  56.792  1.00  0.00    -0.246 N 
HETATM    2  C   UNL     1       8.110  28.632  57.011  1.00  0.00     0.261 C 
HETATM    3  O   UNL     1       8.934  29.183  56.284  1.00  0.00    -0.269 OA
HETATM    4  H   UNL     1       6.700  27.176  57.370  1.00  0.00     0.192 HD
ENDROOT
BRANCH   1   5
HETATM    5  N   UNL     1       7.631  26.605  55.675  1.00  0.00    -0.184 NA
HETATM    6  C   UNL     1       7.498  25.323  55.790  1.00  0.00     0.152 C 
BRANCH   6   7
HETATM    7  C   UNL     1       7.674  24.477  54.626  1.00  0.00     0.011 A 
HETATM    8  C   UNL     1       7.767  23.047  54.614  1.00  0.00     0.004 A 
HETATM    9  C   UNL     1       7.738  22.051  55.614  1.00  0.00     0.014 A 
HETATM   10  C   UNL     1       7.933  22.649  53.286  1.00  0.00     0.043 A 
HETATM   11  C   UNL     1       7.874  20.706  55.254  1.00  0.00     0.001 A 
HETATM   12  C   UNL     1       8.035  20.342  53.920  1.00  0.00     0.002 A 
HETATM   13  C   UNL     1       8.066  21.307  52.909  1.00  0.00     0.030 A 
HETATM   14  N   UNL     1       7.939  23.791  52.520  1.00  0.00    -0.364 N 
HETATM   15  H   UNL     1       8.046  23.807  51.515  1.00  0.00     0.165 HD
HETATM   16  C   UNL     1       7.792  24.896  53.313  1.00  0.00     0.102 A 
ENDBRANCH   6   7
ENDBRANCH   1   5
BRANCH   2  17
HETATM   17  C   UNL     1       7.702  29.268  58.339  1.00  0.00     0.280 C 
BRANCH  17  18
HETATM   18  O   UNL     1       8.176  30.607  58.452  1.00  0.00    -0.341 OA
BRANCH  18  19
HETATM   19  C   UNL     1       8.190  31.121  59.724  1.00  0.00     0.086 A 
HETATM   20  C   UNL     1       7.127  31.959  60.099  1.00  0.00     0.045 A 
HETATM   21 BR   UNL     1       5.731  32.384  58.884  1.00  0.00    -0.048 Br
HETATM   22  C   UNL     1       7.077  32.520  61.378  1.00  0.00     0.046 A 
HETATM   23  C   UNL     1       8.086  32.232  62.292  1.00  0.00     0.035 A 
HETATM   24 CL   UNL     1       8.038  32.923  63.868  1.00  0.00    -0.084 Cl
HETATM   25  C   UNL     1       9.135  31.383  61.944  1.00  0.00     0.026 A 
HETATM   26  C   UNL     1       9.184  30.824  60.664  1.00  0.00     0.040 A 
ENDBRANCH  18  19
ENDBRANCH  17  18
ENDBRANCH   2  17
TORSDOF 5
ENDMDL
MODEL 2
REMARK VINA RESULT:      -8.9      1.950      2.435
REMARK  5 active torsions:
REMARK  status: ('A' for Active; 'I' for Inactive)
REMARK    1  A    between atoms: C_8  and  C_9 
REMARK    2  A    between atoms: N_10  and  N_11 
REMARK       I    between atoms: N_11  and  C_12 
REMARK    3  A    between atoms: C_12  and  C_13 
REMARK    4  A    between atoms: C_13  and  O_14 
REMARK    5  A    between atoms: O_14  and  C_15 
ROOT
HETATM    1  N   UNL     1       6.172  26.580  55.985  1.00  0.00    -0.246 N 
HETATM    2  C   UNL     1       6.786  27.296  57.005  1.00  0.00     0.261 C 
HETATM    3  O   UNL     1       7.636  26.872  57.786  1.00  0.00    -0.269 OA
HETATM    4  H   UNL     1       5.651  27.123  55.297  1.00  0.00     0.192 HD
ENDROOT
BRANCH   1   5
HETATM    5  N   UNL     1       6.467  25.300  55.578  1.00  0.00    -0.184 NA
HETATM    6  C   UNL     1       7.332  25.118  54.633  1.00  0.00     0.152 C 
BRANCH   6   7
HETATM    7  C   UNL     1       7.610  23.775  54.165  1.00  0.00     0.011 A 
HETATM    8  C   UNL     1       7.927  22.635  54.973  1.00  0.00     0.004 A 
HETATM    9  C   UNL     1       8.080  22.426  56.361  1.00  0.00     0.014 A 
HETATM   10  C   UNL     1       8.120  21.552  54.114  1.00  0.00     0.043 A 
HETATM   11  C   UNL     1       8.418  21.154  56.835  1.00  0.00     0.001 A 
HETATM   12  C   UNL     1       8.600  20.093  55.951  1.00  0.00     0.002 A 
HETATM   13  C   UNL     1       8.452  20.272  54.573  1.00  0.00     0.030 A 
HETATM   14  N   UNL     1       7.925  22.013  52.833  1.00  0.00    -0.364 N 
HETATM   15  H   UNL     1       8.003  21.444  52.002  1.00  0.00     0.165 HD
HETATM   16  C   UNL     1       7.626  23.348  52.849  1.00  0.00     0.102 A 
ENDBRANCH   6   7
ENDBRANCH   1   5
BRANCH   2  17
HETATM   17  C   UNL     1       6.250  28.720  57.143  1.00  0.00     0.280 C 
BRANCH  17  18
HETATM   18  O   UNL     1       7.255  29.693  56.872  1.00  0.00    -0.341 OA
BRANCH  18  19
HETATM   19  C   UNL     1       7.817  30.283  57.976  1.00  0.00     0.086 A 
HETATM   20  C   UNL     1       9.218  30.296  58.066  1.00  0.00     0.045 A 
HETATM   21 BR   UNL     1      10.300  29.507  56.718  1.00  0.00    -0.048 Br
HETATM   22  C   UNL     1       9.858  30.879  59.163  1.00  0.00     0.046 A 
HETATM   23  C   UNL     1       9.095  31.464  60.169  1.00  0.00     0.035 A 
HETATM   24 CL   UNL     1       9.873  32.177  61.528  1.00  0.00    -0.084 Cl
HETATM   25  C   UNL     1       7.705  31.481  60.084  1.00  0.00     0.026 A 
HETATM   26  C   UNL     1       7.067  30.896  58.986  1.00  0.00     0.040 A 
ENDBRANCH  18  19
ENDBRANCH  17  18
ENDBRANCH   2  17
TORSDOF 5
ENDMDL
MODEL 3
REMARK VINA RESULT:      -8.8      1.656      2.404
REMARK  5 active torsions:
REMARK  status: ('A' for Active; 'I' for Inactive)
REMARK    1  A    between atoms: C_8  and  C_9 
REMARK    2  A    between atoms: N_10  and  N_11 
REMARK       I    between atoms: N_11  and  C_12 
REMARK    3  A    between atoms: C_12  and  C_13 
REMARK    4  A    between atoms: C_13  and  O_14 
REMARK    5  A    between atoms: O_14  and  C_15 
ROOT
HETATM    1  N   UNL     1       6.982  28.208  57.808  1.00  0.00    -0.246 N 
HETATM    2  C   UNL     1       7.182  29.462  57.246  1.00  0.00     0.261 C 
HETATM    3  O   UNL     1       8.031  29.759  56.408  1.00  0.00    -0.269 OA
HETATM    4  H   UNL     1       6.113  28.073  58.324  1.00  0.00     0.192 HD
ENDROOT
BRANCH   1   5
HETATM    5  N   UNL     1       7.613  27.036  57.465  1.00  0.00    -0.184 NA
HETATM    6  C   UNL     1       7.032  26.218  56.647  1.00  0.00     0.152 C 
BRANCH   6   7
HETATM    7  C   UNL     1       7.669  24.957  56.321  1.00  0.00     0.011 A 
HETATM    8  C   UNL     1       7.652  24.294  55.051  1.00  0.00     0.004 A 
HETATM    9  C   UNL     1       7.068  24.582  53.798  1.00  0.00     0.014 A 
HETATM   10  C   UNL     1       8.388  23.115  55.184  1.00  0.00     0.043 A 
HETATM   11  C   UNL     1       7.237  23.689  52.734  1.00  0.00     0.001 A 
HETATM   12  C   UNL     1       7.980  22.523  52.900  1.00  0.00     0.002 A 
HETATM   13  C   UNL     1       8.572  22.214  54.128  1.00  0.00     0.030 A 
HETATM   14  N   UNL     1       8.837  23.063  56.483  1.00  0.00    -0.364 N 
HETATM   15  H   UNL     1       9.397  22.315  56.866  1.00  0.00     0.165 HD
HETATM   16  C   UNL     1       8.405  24.160  57.178  1.00  0.00     0.102 A 
ENDBRANCH   6   7
ENDBRANCH   1   5
BRANCH   2  17
HETATM   17  C   UNL     1       6.260  30.533  57.826  1.00  0.00     0.280 C 
BRANCH  17  18
HETATM   18  O   UNL     1       6.963  31.736  58.117  1.00  0.00    -0.341 OA
BRANCH  18  19
HETATM   19  C   UNL     1       7.154  32.000  59.450  1.00  0.00     0.086 A 
HETATM   20  C   UNL     1       8.471  31.980  59.936  1.00  0.00     0.045 A 
HETATM   21 BR   UNL     1       9.937  31.581  58.796  1.00  0.00    -0.048 Br
HETATM   22  C   UNL     1       8.739  32.238  61.283  1.00  0.00     0.046 A 
HETATM   23  C   UNL     1       7.688  32.530  62.147  1.00  0.00     0.035 A 
HETATM   24 CL   UNL     1       8.007  32.842  63.809  1.00  0.00    -0.084 Cl
HETATM   25  C   UNL     1       6.378  32.578  61.676  1.00  0.00     0.026 A 
HETATM   26  C   UNL     1       6.112  32.319  60.328  1.00  0.00     0.040 A 
ENDBRANCH  18  19
ENDBRANCH  17  18
ENDBRANCH   2  17
TORSDOF 5
ENDMDL
MODEL 4
REMARK VINA RESULT:      -8.7      4.363      9.992
REMARK  5 active torsions:
REMARK  status: ('A' for Active; 'I' for Inactive)
REMARK    1  A    between atoms: C_8  and  C_9 
REMARK    2  A    between atoms: N_10  and  N_11 
REMARK       I    between atoms: N_11  and  C_12 
REMARK    3  A    between atoms: C_12  and  C_13 
REMARK    4  A    between atoms: C_13  and  O_14 
REMARK    5  A    between atoms: O_14  and  C_15 
ROOT
HETATM    1  N   UNL     1       6.273  28.503  56.124  1.00  0.00    -0.246 N 
HETATM    2  C   UNL     1       5.938  27.155  56.146  1.00  0.00     0.261 C 
HETATM    3  O   UNL     1       5.484  26.531  57.103  1.00  0.00    -0.269 OA
HETATM    4  H   UNL     1       6.436  28.918  55.207  1.00  0.00     0.192 HD
ENDROOT
BRANCH   1   5
HETATM    5  N   UNL     1       6.063  29.425  57.122  1.00  0.00    -0.184 NA
HETATM    6  C   UNL     1       7.051  30.154  57.531  1.00  0.00     0.152 C 
BRANCH   6   7
HETATM    7  C   UNL     1       6.848  31.092  58.618  1.00  0.00     0.011 A 
HETATM    8  C   UNL     1       7.649  31.219  59.799  1.00  0.00     0.004 A 
HETATM    9  C   UNL     1       8.791  30.550  60.290  1.00  0.00     0.014 A 
HETATM   10  C   UNL     1       7.096  32.242  60.572  1.00  0.00     0.043 A 
HETATM   11  C   UNL     1       9.333  30.922  61.525  1.00  0.00     0.001 A 
HETATM   12  C   UNL     1       8.759  31.949  62.270  1.00  0.00     0.002 A 
HETATM   13  C   UNL     1       7.630  32.631  61.807  1.00  0.00     0.030 A 
HETATM   14  N   UNL     1       6.003  32.720  59.888  1.00  0.00    -0.364 N 
HETATM   15  H   UNL     1       5.405  33.466  60.213  1.00  0.00     0.165 HD
HETATM   16  C   UNL     1       5.839  32.032  58.716  1.00  0.00     0.102 A 
ENDBRANCH   6   7
ENDBRANCH   1   5
BRANCH   2  17
HETATM   17  C   UNL     1       6.258  26.438  54.835  1.00  0.00     0.280 C 
BRANCH  17  18
HETATM   18  O   UNL     1       7.620  26.026  54.776  1.00  0.00    -0.341 OA
BRANCH  18  19
HETATM   19  C   UNL     1       7.828  24.741  54.341  1.00  0.00     0.086 A 
HETATM   20  C   UNL     1       8.299  23.806  55.277  1.00  0.00     0.045 A 
HETATM   21 BR   UNL     1       8.657  24.304  57.075  1.00  0.00    -0.048 Br
HETATM   22  C   UNL     1       8.535  22.480  54.904  1.00  0.00     0.046 A 
HETATM   23  C   UNL     1       8.287  22.082  53.594  1.00  0.00     0.035 A 
HETATM   24 CL   UNL     1       8.582  20.453  53.123  1.00  0.00    -0.084 Cl
HETATM   25  C   UNL     1       7.797  22.991  52.660  1.00  0.00     0.026 A 
HETATM   26  C   UNL     1       7.562  24.318  53.034  1.00  0.00     0.040 A 
ENDBRANCH  18  19
ENDBRANCH  17  18
ENDBRANCH   2  17
TORSDOF 5
ENDMDL
MODEL 5
REMARK VINA RESULT:      -8.7      4.419     10.213
REMARK  5 active torsions:
REMARK  status: ('A' for Active; 'I' for Inactive)
REMARK    1  A    between atoms: C_8  and  C_9 
REMARK    2  A    between atoms: N_10  and  N_11 
REMARK       I    between atoms: N_11  and  C_12 
REMARK    3  A    between atoms: C_12  and  C_13 
REMARK    4  A    between atoms: C_13  and  O_14 
REMARK    5  A    between atoms: O_14  and  C_15 
ROOT
HETATM    1  N   UNL     1       7.009  28.348  56.745  1.00  0.00    -0.246 N 
HETATM    2  C   UNL     1       7.456  27.054  56.982  1.00  0.00     0.261 C 
HETATM    3  O   UNL     1       7.659  26.542  58.081  1.00  0.00    -0.269 OA
HETATM    4  H   UNL     1       6.691  28.554  55.799  1.00  0.00     0.192 HD
ENDROOT
BRANCH   1   5
HETATM    5  N   UNL     1       6.602  29.268  57.682  1.00  0.00    -0.184 NA
HETATM    6  C   UNL     1       7.342  30.303  57.919  1.00  0.00     0.152 C 
BRANCH   6   7
HETATM    7  C   UNL     1       6.944  31.251  58.941  1.00  0.00     0.011 A 
HETATM    8  C   UNL     1       7.570  31.448  60.215  1.00  0.00     0.004 A 
HETATM    9  C   UNL     1       8.669  30.855  60.873  1.00  0.00     0.014 A 
HETATM   10  C   UNL     1       6.863  32.454  60.877  1.00  0.00     0.043 A 
HETATM   11  C   UNL     1       9.018  31.284  62.159  1.00  0.00     0.001 A 
HETATM   12  C   UNL     1       8.294  32.292  62.791  1.00  0.00     0.002 A 
HETATM   13  C   UNL     1       7.203  32.898  62.161  1.00  0.00     0.030 A 
HETATM   14  N   UNL     1       5.849  32.854  60.039  1.00  0.00    -0.364 N 
HETATM   15  H   UNL     1       5.173  33.572  60.260  1.00  0.00     0.165 HD
HETATM   16  C   UNL     1       5.882  32.134  58.877  1.00  0.00     0.102 A 
ENDBRANCH   6   7
ENDBRANCH   1   5
BRANCH   2  17
HETATM   17  C   UNL     1       7.765  26.284  55.699  1.00  0.00     0.280 C 
BRANCH  17  18
HETATM   18  O   UNL     1       6.706  25.398  55.347  1.00  0.00    -0.341 OA
BRANCH  18  19
HETATM   19  C   UNL     1       7.097  24.196  54.813  1.00  0.00     0.086 A 
HETATM   20  C   UNL     1       7.216  24.111  53.417  1.00  0.00     0.045 A 
HETATM   21 BR   UNL     1       6.830  25.600  52.302  1.00  0.00    -0.048 Br
HETATM   22  C   UNL     1       7.608  22.917  52.804  1.00  0.00     0.046 A 
HETATM   23  C   UNL     1       7.896  21.807  53.591  1.00  0.00     0.035 A 
HETATM   24 CL   UNL     1       8.372  20.330  52.847  1.00  0.00    -0.084 Cl
HETATM   25  C   UNL     1       7.806  21.881  54.980  1.00  0.00     0.026 A 
HETATM   26  C   UNL     1       7.412  23.075  55.590  1.00  0.00     0.040 A 
ENDBRANCH  18  19
ENDBRANCH  17  18
ENDBRANCH   2  17
TORSDOF 5
ENDMDL
MODEL 6
REMARK VINA RESULT:      -8.6      6.756      8.560
REMARK  5 active torsions:
REMARK  status: ('A' for Active; 'I' for Inactive)
REMARK    1  A    between atoms: C_8  and  C_9 
REMARK    2  A    between atoms: N_10  and  N_11 
REMARK       I    between atoms: N_11  and  C_12 
REMARK    3  A    between atoms: C_12  and  C_13 
REMARK    4  A    between atoms: C_13  and  O_14 
REMARK    5  A    between atoms: O_14  and  C_15 
ROOT
HETATM    1  N   UNL     1       4.925  26.645  54.283  1.00  0.00    -0.246 N 
HETATM    2  C   UNL     1       5.310  27.658  53.415  1.00  0.00     0.261 C 
HETATM    3  O   UNL     1       6.462  28.006  53.164  1.00  0.00    -0.269 OA
HETATM    4  H   UNL     1       3.954  26.339  54.225  1.00  0.00     0.192 HD
ENDROOT
BRANCH   1   5
HETATM    5  N   UNL     1       5.747  25.764  54.945  1.00  0.00    -0.184 NA
HETATM    6  C   UNL     1       6.230  24.745  54.309  1.00  0.00     0.152 C 
BRANCH   6   7
HETATM    7  C   UNL     1       7.057  23.786  55.014  1.00  0.00     0.011 A 
HETATM    8  C   UNL     1       7.621  22.584  54.475  1.00  0.00     0.004 A 
HETATM    9  C   UNL     1       7.577  21.957  53.211  1.00  0.00     0.014 A 
HETATM   10  C   UNL     1       8.342  21.965  55.498  1.00  0.00     0.043 A 
HETATM   11  C   UNL     1       8.247  20.744  53.017  1.00  0.00     0.001 A 
HETATM   12  C   UNL     1       8.960  20.154  54.057  1.00  0.00     0.002 A 
HETATM   13  C   UNL     1       9.023  20.754  55.318  1.00  0.00     0.030 A 
HETATM   14  N   UNL     1       8.223  22.758  56.615  1.00  0.00    -0.364 N 
HETATM   15  H   UNL     1       8.643  22.554  57.510  1.00  0.00     0.165 HD
HETATM   16  C   UNL     1       7.447  23.851  56.339  1.00  0.00     0.102 A 
ENDBRANCH   6   7
ENDBRANCH   1   5
BRANCH   2  17
HETATM   17  C   UNL     1       4.125  28.405  52.805  1.00  0.00     0.280 C 
BRANCH  17  18
HETATM   18  O   UNL     1       4.438  28.933  51.519  1.00  0.00    -0.341 OA
BRANCH  18  19
HETATM   19  C   UNL     1       4.062  28.152  50.455  1.00  0.00     0.086 A 
HETATM   20  C   UNL     1       2.907  28.526  49.749  1.00  0.00     0.045 A 
HETATM   21 BR   UNL     1       1.887  30.045  50.261  1.00  0.00    -0.048 Br
HETATM   22  C   UNL     1       2.464  27.777  48.656  1.00  0.00     0.046 A 
HETATM   23  C   UNL     1       3.186  26.656  48.256  1.00  0.00     0.035 A 
HETATM   24 CL   UNL     1       2.645  25.722  46.916  1.00  0.00    -0.084 Cl
HETATM   25  C   UNL     1       4.347  26.286  48.930  1.00  0.00     0.026 A 
HETATM   26  C   UNL     1       4.788  27.036  50.024  1.00  0.00     0.040 A 
ENDBRANCH  18  19
ENDBRANCH  17  18
ENDBRANCH   2  17
TORSDOF 5
ENDMDL
MODEL 7
REMARK VINA RESULT:      -8.5      7.405      9.877
REMARK  5 active torsions:
REMARK  status: ('A' for Active; 'I' for Inactive)
REMARK    1  A    between atoms: C_8  and  C_9 
REMARK    2  A    between atoms: N_10  and  N_11 
REMARK       I    between atoms: N_11  and  C_12 
REMARK    3  A    between atoms: C_12  and  C_13 
REMARK    4  A    between atoms: C_13  and  O_14 
REMARK    5  A    between atoms: O_14  and  C_15 
ROOT
HETATM    1  N   UNL     1       5.221  26.386  51.642  1.00  0.00    -0.246 N 
HETATM    2  C   UNL     1       5.420  27.744  51.431  1.00  0.00     0.261 C 
HETATM    3  O   UNL     1       5.843  28.557  52.251  1.00  0.00    -0.269 OA
HETATM    4  H   UNL     1       5.067  25.813  50.813  1.00  0.00     0.192 HD
ENDROOT
BRANCH   1   5
HETATM    5  N   UNL     1       5.557  25.665  52.764  1.00  0.00    -0.184 NA
HETATM    6  C   UNL     1       6.556  24.843  52.714  1.00  0.00     0.152 C 
BRANCH   6   7
HETATM    7  C   UNL     1       6.884  24.042  53.877  1.00  0.00     0.011 A 
HETATM    8  C   UNL     1       7.449  22.726  53.877  1.00  0.00     0.004 A 
HETATM    9  C   UNL     1       7.838  21.822  52.864  1.00  0.00     0.014 A 
HETATM   10  C   UNL     1       7.598  22.334  55.208  1.00  0.00     0.043 A 
HETATM   11  C   UNL     1       8.357  20.571  53.216  1.00  0.00     0.001 A 
HETATM   12  C   UNL     1       8.496  20.212  54.554  1.00  0.00     0.002 A 
HETATM   13  C   UNL     1       8.121  21.088  55.577  1.00  0.00     0.030 A 
HETATM   14  N   UNL     1       7.144  23.372  55.989  1.00  0.00    -0.364 N 
HETATM   15  H   UNL     1       7.130  23.365  56.999  1.00  0.00     0.165 HD
HETATM   16  C   UNL     1       6.705  24.400  55.201  1.00  0.00     0.102 A 
ENDBRANCH   6   7
ENDBRANCH   1   5
BRANCH   2  17
HETATM   17  C   UNL     1       4.985  28.204  50.040  1.00  0.00     0.280 C 
BRANCH  17  18
HETATM   18  O   UNL     1       4.338  27.161  49.317  1.00  0.00    -0.341 OA
BRANCH  18  19
HETATM   19  C   UNL     1       3.289  27.556  48.525  1.00  0.00     0.086 A 
HETATM   20  C   UNL     1       2.580  26.557  47.838  1.00  0.00     0.045 A 
HETATM   21 BR   UNL     1       3.064  24.726  47.984  1.00  0.00    -0.048 Br
HETATM   22  C   UNL     1       1.502  26.887  47.012  1.00  0.00     0.046 A 
HETATM   23  C   UNL     1       1.122  28.219  46.881  1.00  0.00     0.035 A 
HETATM   24 CL   UNL     1      -0.199  28.636  45.860  1.00  0.00    -0.084 Cl
HETATM   25  C   UNL     1       1.800  29.219  47.574  1.00  0.00     0.026 A 
HETATM   26  C   UNL     1       2.879  28.888  48.399  1.00  0.00     0.040 A 
ENDBRANCH  18  19
ENDBRANCH  17  18
ENDBRANCH   2  17
TORSDOF 5
ENDMDL
MODEL 8
REMARK VINA RESULT:      -8.5      3.127      3.784
REMARK  5 active torsions:
REMARK  status: ('A' for Active; 'I' for Inactive)
REMARK    1  A    between atoms: C_8  and  C_9 
REMARK    2  A    between atoms: N_10  and  N_11 
REMARK       I    between atoms: N_11  and  C_12 
REMARK    3  A    between atoms: C_12  and  C_13 
REMARK    4  A    between atoms: C_13  and  O_14 
REMARK    5  A    between atoms: O_14  and  C_15 
ROOT
HETATM    1  N   UNL     1       5.393  26.084  55.753  1.00  0.00    -0.246 N 
HETATM    2  C   UNL     1       5.810  26.775  56.883  1.00  0.00     0.261 C 
HETATM    3  O   UNL     1       6.564  26.355  57.759  1.00  0.00    -0.269 OA
HETATM    4  H   UNL     1       4.942  26.634  55.023  1.00  0.00     0.192 HD
ENDROOT
BRANCH   1   5
HETATM    5  N   UNL     1       5.821  24.846  55.333  1.00  0.00    -0.184 NA
HETATM    6  C   UNL     1       6.925  24.750  54.665  1.00  0.00     0.152 C 
BRANCH   6   7
HETATM    7  C   UNL     1       7.356  23.455  54.176  1.00  0.00     0.011 A 
HETATM    8  C   UNL     1       7.812  22.350  54.967  1.00  0.00     0.004 A 
HETATM    9  C   UNL     1       7.999  22.142  56.351  1.00  0.00     0.014 A 
HETATM   10  C   UNL     1       8.124  21.309  54.091  1.00  0.00     0.043 A 
HETATM   11  C   UNL     1       8.489  20.913  56.805  1.00  0.00     0.001 A 
HETATM   12  C   UNL     1       8.788  19.893  55.905  1.00  0.00     0.002 A 
HETATM   13  C   UNL     1       8.609  20.071  54.530  1.00  0.00     0.030 A 
HETATM   14  N   UNL     1       7.867  21.760  52.818  1.00  0.00    -0.364 N 
HETATM   15  H   UNL     1       8.005  21.216  51.978  1.00  0.00     0.165 HD
HETATM   16  C   UNL     1       7.412  23.050  52.855  1.00  0.00     0.102 A 
ENDBRANCH   6   7
ENDBRANCH   1   5
BRANCH   2  17
HETATM   17  C   UNL     1       5.173  28.158  57.009  1.00  0.00     0.280 C 
BRANCH  17  18
HETATM   18  O   UNL     1       5.842  29.123  56.202  1.00  0.00    -0.341 OA
BRANCH  18  19
HETATM   19  C   UNL     1       7.137  29.397  56.563  1.00  0.00     0.086 A 
HETATM   20  C   UNL     1       8.152  29.054  55.654  1.00  0.00     0.045 A 
HETATM   21 BR   UNL     1       7.750  28.221  53.995  1.00  0.00    -0.048 Br
HETATM   22  C   UNL     1       9.494  29.301  55.956  1.00  0.00     0.046 A 
HETATM   23  C   UNL     1       9.824  29.906  57.165  1.00  0.00     0.035 A 
HETATM   24 CL   UNL     1      11.474  30.209  57.549  1.00  0.00    -0.084 Cl
HETATM   25  C   UNL     1       8.827  30.275  58.066  1.00  0.00     0.026 A 
HETATM   26  C   UNL     1       7.485  30.026  57.763  1.00  0.00     0.040 A 
ENDBRANCH  18  19
ENDBRANCH  17  18
ENDBRANCH   2  17
TORSDOF 5
ENDMDL
MODEL 9
REMARK VINA RESULT:      -8.4      8.005     10.791
REMARK  5 active torsions:
REMARK  status: ('A' for Active; 'I' for Inactive)
REMARK    1  A    between atoms: C_8  and  C_9 
REMARK    2  A    between atoms: N_10  and  N_11 
REMARK       I    between atoms: N_11  and  C_12 
REMARK    3  A    between atoms: C_12  and  C_13 
REMARK    4  A    between atoms: C_13  and  O_14 
REMARK    5  A    between atoms: O_14  and  C_15 
ROOT
HETATM    1  N   UNL     1       4.450  25.805  50.497  1.00  0.00    -0.246 N 
HETATM    2  C   UNL     1       4.517  26.779  49.509  1.00  0.00     0.261 C 
HETATM    3  O   UNL     1       5.257  27.761  49.500  1.00  0.00    -0.269 OA
HETATM    4  H   UNL     1       3.944  24.952  50.263  1.00  0.00     0.192 HD
ENDROOT
BRANCH   1   5
HETATM    5  N   UNL     1       5.265  25.685  51.598  1.00  0.00    -0.184 NA
HETATM    6  C   UNL     1       5.028  24.754  52.465  1.00  0.00     0.152 C 
BRANCH   6   7
HETATM    7  C   UNL     1       5.853  24.654  53.653  1.00  0.00     0.011 A 
HETATM    8  C   UNL     1       6.979  23.789  53.842  1.00  0.00     0.004 A 
HETATM    9  C   UNL     1       7.619  22.819  53.040  1.00  0.00     0.014 A 
HETATM   10  C   UNL     1       7.473  24.019  55.127  1.00  0.00     0.043 A 
HETATM   11  C   UNL     1       8.720  22.120  53.548  1.00  0.00     0.001 A 
HETATM   12  C   UNL     1       9.190  22.376  54.833  1.00  0.00     0.002 A 
HETATM   13  C   UNL     1       8.577  23.332  55.648  1.00  0.00     0.030 A 
HETATM   14  N   UNL     1       6.681  24.987  55.698  1.00  0.00    -0.364 N 
HETATM   15  H   UNL     1       6.805  25.352  56.631  1.00  0.00     0.165 HD
HETATM   16  C   UNL     1       5.699  25.372  54.825  1.00  0.00     0.102 A 
ENDBRANCH   6   7
ENDBRANCH   1   5
BRANCH   2  17
HETATM   17  C   UNL     1       3.494  26.570  48.393  1.00  0.00     0.280 C 
BRANCH  17  18
HETATM   18  O   UNL     1       3.464  27.671  47.490  1.00  0.00    -0.341 OA
BRANCH  18  19
HETATM   19  C   UNL     1       2.216  28.051  47.065  1.00  0.00     0.086 A 
HETATM   20  C   UNL     1       2.027  29.399  46.721  1.00  0.00     0.045 A 
HETATM   21 BR   UNL     1       3.443  30.659  46.858  1.00  0.00    -0.048 Br
HETATM   22  C   UNL     1       0.782  29.857  46.281  1.00  0.00     0.046 A 
HETATM   23  C   UNL     1      -0.277  28.961  46.172  1.00  0.00     0.035 A 
HETATM   24 CL   UNL     1      -1.816  29.516  45.639  1.00  0.00    -0.084 Cl
HETATM   25  C   UNL     1      -0.100  27.616  46.486  1.00  0.00     0.026 A 
HETATM   26  C   UNL     1       1.146  27.160  46.926  1.00  0.00     0.040 A 
ENDBRANCH  18  19
ENDBRANCH  17  18
ENDBRANCH   2  17
TORSDOF 5
ENDMDL
MODEL 10
REMARK VINA RESULT:      -8.3      1.925      2.429
REMARK  5 active torsions:
REMARK  status: ('A' for Active; 'I' for Inactive)
REMARK    1  A    between atoms: C_8  and  C_9 
REMARK    2  A    between atoms: N_10  and  N_11 
REMARK       I    between atoms: N_11  and  C_12 
REMARK    3  A    between atoms: C_12  and  C_13 
REMARK    4  A    between atoms: C_13  and  O_14 
REMARK    5  A    between atoms: O_14  and  C_15 
ROOT
HETATM    1  N   UNL     1       5.293  26.668  55.489  1.00  0.00    -0.246 N 
HETATM    2  C   UNL     1       5.730  27.951  55.184  1.00  0.00     0.261 C 
HETATM    3  O   UNL     1       6.595  28.252  54.364  1.00  0.00    -0.269 OA
HETATM    4  H   UNL     1       4.432  26.596  56.030  1.00  0.00     0.192 HD
ENDROOT
BRANCH   1   5
HETATM    5  N   UNL     1       5.656  25.499  54.863  1.00  0.00    -0.184 NA
HETATM    6  C   UNL     1       6.785  24.942  55.164  1.00  0.00     0.152 C 
BRANCH   6   7
HETATM    7  C   UNL     1       7.197  23.736  54.471  1.00  0.00     0.011 A 
HETATM    8  C   UNL     1       7.700  22.536  55.069  1.00  0.00     0.004 A 
HETATM    9  C   UNL     1       7.963  22.134  56.397  1.00  0.00     0.014 A 
HETATM   10  C   UNL     1       7.972  21.636  54.037  1.00  0.00     0.043 A 
HETATM   11  C   UNL     1       8.484  20.858  56.642  1.00  0.00     0.001 A 
HETATM   12  C   UNL     1       8.740  19.983  55.590  1.00  0.00     0.002 A 
HETATM   13  C   UNL     1       8.487  20.354  54.267  1.00  0.00     0.030 A 
HETATM   14  N   UNL     1       7.644  22.262  52.858  1.00  0.00    -0.364 N 
HETATM   15  H   UNL     1       7.739  21.846  51.942  1.00  0.00     0.165 HD
HETATM   16  C   UNL     1       7.184  23.527  53.104  1.00  0.00     0.102 A 
ENDBRANCH   6   7
ENDBRANCH   1   5
BRANCH   2  17
HETATM   17  C   UNL     1       5.069  29.028  56.043  1.00  0.00     0.280 C 
BRANCH  17  18
HETATM   18  O   UNL     1       5.854  30.215  56.100  1.00  0.00    -0.341 OA
BRANCH  18  19
HETATM   19  C   UNL     1       6.564  30.397  57.261  1.00  0.00     0.086 A 
HETATM   20  C   UNL     1       6.207  31.481  58.079  1.00  0.00     0.045 A 
HETATM   21 BR   UNL     1       4.807  32.668  57.588  1.00  0.00    -0.048 Br
HETATM   22  C   UNL     1       6.887  31.728  59.275  1.00  0.00     0.046 A 
HETATM   23  C   UNL     1       7.919  30.880  59.663  1.00  0.00     0.035 A 
HETATM   24 CL   UNL     1       8.768  31.179  61.130  1.00  0.00    -0.084 Cl
HETATM   25  C   UNL     1       8.269  29.786  58.875  1.00  0.00     0.026 A 
HETATM   26  C   UNL     1       7.589  29.541  57.678  1.00  0.00     0.040 A 
ENDBRANCH  18  19
ENDBRANCH  17  18
ENDBRANCH   2  17
TORSDOF 5
ENDMDL
