MODEL 1
REMARK VINA RESULT:      -9.5      0.000      0.000
REMARK  4 active torsions:
REMARK  status: ('A' for Active; 'I' for Inactive)
REMARK    1  A    between atoms: C_6  and  N_7 
REMARK       I    between atoms: N_7  and  C_8 
REMARK    2  A    between atoms: C_8  and  C_9 
REMARK    3  A    between atoms: C_10  and  C_11 
REMARK    4  A    between atoms: C_13  and  O_14 
ROOT
HETATM    1  C   UNL     1       5.857  27.438  53.610  1.00  0.00     0.062 A 
HETATM    2  C   UNL     1       5.489  28.006  54.976  1.00  0.00     0.202 A 
HETATM    3  N   UNL     1       4.597  29.166  54.845  1.00  0.00    -0.084 N 
HETATM    4  C   UNL     1       4.162  29.668  53.647  1.00  0.00     0.725 A 
HETATM    5  N   UNL     1       4.577  29.100  52.501  1.00  0.00    -0.192 N 
HETATM    6  N   UNL     1       3.960  29.758  55.879  1.00  0.00    -0.149 NA
HETATM    7  C   UNL     1       3.250  30.689  55.231  1.00  0.00     0.275 A 
HETATM    8  N   UNL     1       3.334  30.658  53.863  1.00  0.00    -0.054 NA
HETATM    9  C   UNL     1       5.411  27.990  52.456  1.00  0.00     0.037 A 
HETATM   10  C   UNL     1       5.742  27.475  51.077  1.00  0.00     0.070 C 
HETATM   11  H   UNL     1       4.251  29.485  51.618  1.00  0.00     0.184 HD
ENDROOT
BRANCH   1  12
HETATM   12  C   UNL     1       6.820  26.308  53.570  1.00  0.00     0.256 C 
HETATM   13  N   UNL     1       6.310  25.146  54.106  1.00  0.00    -0.323 N 
HETATM   14  H   UNL     1       5.361  25.174  54.451  1.00  0.00     0.169 HD
HETATM   15  O   UNL     1       7.922  26.489  53.069  1.00  0.00    -0.267 OA
BRANCH  13  16
HETATM   16  C   UNL     1       6.952  23.885  54.189  1.00  0.00     0.041 A 
HETATM   17  C   UNL     1       7.400  23.428  55.447  1.00  0.00    -0.035 A 
HETATM   18  C   UNL     1       8.009  22.162  55.549  1.00  0.00     0.015 A 
HETATM   19  C   UNL     1       7.252  24.245  56.704  1.00  0.00     0.050 C 
HETATM   20  C   UNL     1       8.199  21.354  54.424  1.00  0.00    -0.061 A 
HETATM   21  C   UNL     1       8.812  19.990  54.547  1.00  0.00     0.048 C 
HETATM   22  C   UNL     1       7.756  21.815  53.185  1.00  0.00     0.009 A 
HETATM   23  C   UNL     1       7.147  23.067  53.069  1.00  0.00     0.030 A 
ENDBRANCH  13  16
ENDBRANCH   1  12
BRANCH   2  24
HETATM   24  C   UNL     1       6.673  28.346  55.878  1.00  0.00    -0.025 A 
HETATM   25  C   UNL     1       7.808  29.029  55.402  1.00  0.00     0.046 A 
HETATM   26  C   UNL     1       8.887  29.299  56.248  1.00  0.00     0.068 A 
HETATM   27  C   UNL     1       8.813  28.940  57.594  1.00  0.00     0.037 A 
HETATM   28  C   UNL     1       7.686  28.289  58.091  1.00  0.00     0.003 A 
HETATM   29  C   UNL     1       6.625  27.989  57.238  1.00  0.00     0.010 A 
BRANCH  26  30
HETATM   30  O   UNL     1      10.050  29.919  55.880  1.00  0.00    -0.356 OA
HETATM   31  C   UNL     1      11.060  29.993  56.881  1.00  0.00     0.210 C 
ENDBRANCH  26  30
ENDBRANCH   2  24
TORSDOF 4
ENDMDL
MODEL 2
REMARK VINA RESULT:      -9.1      2.609      4.487
REMARK  4 active torsions:
REMARK  status: ('A' for Active; 'I' for Inactive)
REMARK    1  A    between atoms: C_6  and  N_7 
REMARK       I    between atoms: N_7  and  C_8 
REMARK    2  A    between atoms: C_8  and  C_9 
REMARK    3  A    between atoms: C_10  and  C_11 
REMARK    4  A    between atoms: C_13  and  O_14 
ROOT
HETATM    1  C   UNL     1       5.500  26.915  55.471  1.00  0.00     0.062 A 
HETATM    2  C   UNL     1       5.746  28.239  54.758  1.00  0.00     0.202 A 
HETATM    3  N   UNL     1       5.436  29.378  55.634  1.00  0.00    -0.084 N 
HETATM    4  C   UNL     1       4.981  29.256  56.920  1.00  0.00     0.725 A 
HETATM    5  N   UNL     1       4.774  28.032  57.435  1.00  0.00    -0.192 N 
HETATM    6  N   UNL     1       5.732  30.665  55.344  1.00  0.00    -0.149 NA
HETATM    7  C   UNL     1       5.313  31.272  56.461  1.00  0.00     0.275 A 
HETATM    8  N   UNL     1       4.860  30.444  57.455  1.00  0.00    -0.054 NA
HETATM    9  C   UNL     1       5.030  26.856  56.741  1.00  0.00     0.037 A 
HETATM   10  C   UNL     1       4.764  25.578  57.497  1.00  0.00     0.070 C 
HETATM   11  H   UNL     1       4.431  27.954  58.389  1.00  0.00     0.184 HD
ENDROOT
BRANCH   1  12
HETATM   12  C   UNL     1       5.690  25.666  54.691  1.00  0.00     0.256 C 
HETATM   13  N   UNL     1       6.866  25.015  54.994  1.00  0.00    -0.323 N 
HETATM   14  H   UNL     1       7.456  25.432  55.700  1.00  0.00     0.169 HD
HETATM   15  O   UNL     1       4.820  25.325  53.900  1.00  0.00    -0.267 OA
BRANCH  13  16
HETATM   16  C   UNL     1       7.330  23.787  54.459  1.00  0.00     0.041 A 
HETATM   17  C   UNL     1       7.815  23.761  53.133  1.00  0.00    -0.035 A 
HETATM   18  C   UNL     1       8.310  22.555  52.600  1.00  0.00     0.015 A 
HETATM   19  C   UNL     1       7.828  24.982  52.252  1.00  0.00     0.050 C 
HETATM   20  C   UNL     1       8.314  21.375  53.350  1.00  0.00    -0.061 A 
HETATM   21  C   UNL     1       8.880  20.104  52.789  1.00  0.00     0.048 C 
HETATM   22  C   UNL     1       7.830  21.411  54.657  1.00  0.00     0.009 A 
HETATM   23  C   UNL     1       7.338  22.601  55.201  1.00  0.00     0.030 A 
ENDBRANCH  13  16
ENDBRANCH   1  12
BRANCH   2  24
HETATM   24  C   UNL     1       5.038  28.395  53.415  1.00  0.00    -0.025 A 
HETATM   25  C   UNL     1       5.727  28.323  52.190  1.00  0.00     0.046 A 
HETATM   26  C   UNL     1       5.053  28.500  50.979  1.00  0.00     0.068 A 
HETATM   27  C   UNL     1       3.670  28.690  50.982  1.00  0.00     0.037 A 
HETATM   28  C   UNL     1       2.966  28.735  52.183  1.00  0.00     0.003 A 
HETATM   29  C   UNL     1       3.645  28.593  53.391  1.00  0.00     0.010 A 
BRANCH  26  30
HETATM   30  O   UNL     1       5.630  28.488  49.738  1.00  0.00    -0.356 OA
HETATM   31  C   UNL     1       4.888  27.837  48.711  1.00  0.00     0.210 C 
ENDBRANCH  26  30
ENDBRANCH   2  24
TORSDOF 4
ENDMDL
MODEL 3
REMARK VINA RESULT:      -9.0      1.812      2.227
REMARK  4 active torsions:
REMARK  status: ('A' for Active; 'I' for Inactive)
REMARK    1  A    between atoms: C_6  and  N_7 
REMARK       I    between atoms: N_7  and  C_8 
REMARK    2  A    between atoms: C_8  and  C_9 
REMARK    3  A    between atoms: C_10  and  C_11 
REMARK    4  A    between atoms: C_13  and  O_14 
ROOT
HETATM    1  C   UNL     1       5.051  27.984  55.175  1.00  0.00     0.062 A 
HETATM    2  C   UNL     1       5.317  29.211  56.040  1.00  0.00     0.202 A 
HETATM    3  N   UNL     1       4.943  30.446  55.337  1.00  0.00    -0.084 N 
HETATM    4  C   UNL     1       4.427  30.482  54.068  1.00  0.00     0.725 A 
HETATM    5  N   UNL     1       4.262  29.333  53.389  1.00  0.00    -0.192 N 
HETATM    6  N   UNL     1       4.890  31.666  55.916  1.00  0.00    -0.149 NA
HETATM    7  C   UNL     1       4.448  32.406  54.893  1.00  0.00     0.275 A 
HETATM    8  N   UNL     1       4.139  31.717  53.749  1.00  0.00    -0.054 NA
HETATM    9  C   UNL     1       4.557  28.082  53.917  1.00  0.00     0.037 A 
HETATM   10  C   UNL     1       4.276  26.907  53.014  1.00  0.00     0.070 C 
HETATM   11  H   UNL     1       3.885  29.373  52.446  1.00  0.00     0.184 HD
ENDROOT
BRANCH   1  12
HETATM   12  C   UNL     1       5.453  26.661  55.714  1.00  0.00     0.256 C 
HETATM   13  N   UNL     1       6.479  26.078  55.001  1.00  0.00    -0.323 N 
HETATM   14  H   UNL     1       6.848  26.596  54.217  1.00  0.00     0.169 HD
HETATM   15  O   UNL     1       4.885  26.230  56.709  1.00  0.00    -0.267 OA
BRANCH  13  16
HETATM   16  C   UNL     1       7.116  24.841  55.271  1.00  0.00     0.041 A 
HETATM   17  C   UNL     1       7.977  24.746  56.386  1.00  0.00    -0.035 A 
HETATM   18  C   UNL     1       8.590  23.514  56.685  1.00  0.00     0.015 A 
HETATM   19  C   UNL     1       8.273  25.920  57.282  1.00  0.00     0.050 C 
HETATM   20  C   UNL     1       8.380  22.384  55.889  1.00  0.00    -0.061 A 
HETATM   21  C   UNL     1       9.004  21.066  56.238  1.00  0.00     0.048 C 
HETATM   22  C   UNL     1       7.531  22.489  54.789  1.00  0.00     0.009 A 
HETATM   23  C   UNL     1       6.912  23.704  54.481  1.00  0.00     0.030 A 
ENDBRANCH  13  16
ENDBRANCH   1  12
BRANCH   2  24
HETATM   24  C   UNL     1       6.736  29.322  56.589  1.00  0.00    -0.025 A 
HETATM   25  C   UNL     1       6.999  29.500  57.961  1.00  0.00     0.046 A 
HETATM   26  C   UNL     1       8.310  29.628  58.427  1.00  0.00     0.068 A 
HETATM   27  C   UNL     1       9.374  29.519  57.530  1.00  0.00     0.037 A 
HETATM   28  C   UNL     1       9.135  29.314  56.173  1.00  0.00     0.003 A 
HETATM   29  C   UNL     1       7.826  29.222  55.705  1.00  0.00     0.010 A 
BRANCH  26  30
HETATM   30  O   UNL     1       8.674  29.841  59.729  1.00  0.00    -0.356 OA
HETATM   31  C   UNL     1       9.276  31.102  60.008  1.00  0.00     0.210 C 
ENDBRANCH  26  30
ENDBRANCH   2  24
TORSDOF 4
ENDMDL
MODEL 4
REMARK VINA RESULT:      -8.7      1.501      2.122
REMARK  4 active torsions:
REMARK  status: ('A' for Active; 'I' for Inactive)
REMARK    1  A    between atoms: C_6  and  N_7 
REMARK       I    between atoms: N_7  and  C_8 
REMARK    2  A    between atoms: C_8  and  C_9 
REMARK    3  A    between atoms: C_10  and  C_11 
REMARK    4  A    between atoms: C_13  and  O_14 
ROOT
HETATM    1  C   UNL     1       4.576  27.247  52.883  1.00  0.00     0.062 A 
HETATM    2  C   UNL     1       4.143  28.178  54.009  1.00  0.00     0.202 A 
HETATM    3  N   UNL     1       3.859  29.527  53.501  1.00  0.00    -0.084 N 
HETATM    4  C   UNL     1       3.975  29.893  52.186  1.00  0.00     0.725 A 
HETATM    5  N   UNL     1       4.395  28.990  51.283  1.00  0.00    -0.192 N 
HETATM    6  N   UNL     1       3.280  30.509  54.228  1.00  0.00    -0.149 NA
HETATM    7  C   UNL     1       3.191  31.477  53.309  1.00  0.00     0.275 A 
HETATM    8  N   UNL     1       3.593  31.136  52.043  1.00  0.00    -0.054 NA
HETATM    9  C   UNL     1       4.692  27.671  51.601  1.00  0.00     0.037 A 
HETATM   10  C   UNL     1       5.119  26.798  50.446  1.00  0.00     0.070 C 
HETATM   11  H   UNL     1       4.483  29.275  50.311  1.00  0.00     0.184 HD
ENDROOT
BRANCH   1  12
HETATM   12  C   UNL     1       4.978  25.865  53.248  1.00  0.00     0.256 C 
HETATM   13  N   UNL     1       6.278  25.783  53.700  1.00  0.00    -0.323 N 
HETATM   14  H   UNL     1       6.805  26.643  53.746  1.00  0.00     0.169 HD
HETATM   15  O   UNL     1       4.157  24.963  53.144  1.00  0.00    -0.267 OA
BRANCH  13  16
HETATM   16  C   UNL     1       6.956  24.626  54.158  1.00  0.00     0.041 A 
HETATM   17  C   UNL     1       7.786  23.921  53.259  1.00  0.00    -0.035 A 
HETATM   18  C   UNL     1       8.492  22.789  53.711  1.00  0.00     0.015 A 
HETATM   19  C   UNL     1       7.952  24.332  51.820  1.00  0.00     0.050 C 
HETATM   20  C   UNL     1       8.374  22.335  55.028  1.00  0.00    -0.061 A 
HETATM   21  C   UNL     1       9.161  21.153  55.511  1.00  0.00     0.048 C 
HETATM   22  C   UNL     1       7.550  23.036  55.906  1.00  0.00     0.009 A 
HETATM   23  C   UNL     1       6.845  24.163  55.474  1.00  0.00     0.030 A 
ENDBRANCH  13  16
ENDBRANCH   1  12
BRANCH   2  24
HETATM   24  C   UNL     1       5.098  28.249  55.197  1.00  0.00    -0.025 A 
HETATM   25  C   UNL     1       6.223  29.096  55.208  1.00  0.00     0.046 A 
HETATM   26  C   UNL     1       7.093  29.114  56.300  1.00  0.00     0.068 A 
HETATM   27  C   UNL     1       6.813  28.329  57.418  1.00  0.00     0.037 A 
HETATM   28  C   UNL     1       5.690  27.506  57.439  1.00  0.00     0.003 A 
HETATM   29  C   UNL     1       4.841  27.462  56.335  1.00  0.00     0.010 A 
BRANCH  26  30
HETATM   30  O   UNL     1       8.232  29.868  56.396  1.00  0.00    -0.356 OA
HETATM   31  C   UNL     1       9.401  29.309  55.804  1.00  0.00     0.210 C 
ENDBRANCH  26  30
ENDBRANCH   2  24
TORSDOF 4
ENDMDL
MODEL 5
REMARK VINA RESULT:      -8.7      2.947      5.982
REMARK  4 active torsions:
REMARK  status: ('A' for Active; 'I' for Inactive)
REMARK    1  A    between atoms: C_6  and  N_7 
REMARK       I    between atoms: N_7  and  C_8 
REMARK    2  A    between atoms: C_8  and  C_9 
REMARK    3  A    between atoms: C_10  and  C_11 
REMARK    4  A    between atoms: C_13  and  O_14 
ROOT
HETATM    1  C   UNL     1       5.074  28.308  52.426  1.00  0.00     0.062 A 
HETATM    2  C   UNL     1       5.319  28.815  51.010  1.00  0.00     0.202 A 
HETATM    3  N   UNL     1       5.047  30.256  50.909  1.00  0.00    -0.084 N 
HETATM    4  C   UNL     1       4.625  31.033  51.955  1.00  0.00     0.725 A 
HETATM    5  N   UNL     1       4.415  30.468  53.156  1.00  0.00    -0.192 N 
HETATM    6  N   UNL     1       5.352  31.015  49.833  1.00  0.00    -0.149 NA
HETATM    7  C   UNL     1       4.971  32.222  50.267  1.00  0.00     0.275 A 
HETATM    8  N   UNL     1       4.534  32.278  51.564  1.00  0.00    -0.054 NA
HETATM    9  C   UNL     1       4.637  29.121  53.418  1.00  0.00     0.037 A 
HETATM   10  C   UNL     1       4.374  28.678  54.836  1.00  0.00     0.070 C 
HETATM   11  H   UNL     1       4.096  31.054  53.924  1.00  0.00     0.184 HD
ENDROOT
BRANCH   1  12
HETATM   12  C   UNL     1       5.227  26.852  52.673  1.00  0.00     0.256 C 
HETATM   13  N   UNL     1       6.514  26.495  53.012  1.00  0.00    -0.323 N 
HETATM   14  H   UNL     1       7.199  27.235  53.067  1.00  0.00     0.169 HD
HETATM   15  O   UNL     1       4.242  26.131  52.581  1.00  0.00    -0.267 OA
BRANCH  13  16
HETATM   16  C   UNL     1       6.986  25.200  53.343  1.00  0.00     0.041 A 
HETATM   17  C   UNL     1       6.839  24.738  54.669  1.00  0.00    -0.035 A 
HETATM   18  C   UNL     1       7.272  23.440  55.003  1.00  0.00     0.015 A 
HETATM   19  C   UNL     1       6.229  25.583  55.757  1.00  0.00     0.050 C 
HETATM   20  C   UNL     1       7.865  22.604  54.052  1.00  0.00    -0.061 A 
HETATM   21  C   UNL     1       8.287  21.209  54.407  1.00  0.00     0.048 C 
HETATM   22  C   UNL     1       8.009  23.070  52.747  1.00  0.00     0.009 A 
HETATM   23  C   UNL     1       7.580  24.354  52.399  1.00  0.00     0.030 A 
ENDBRANCH  13  16
ENDBRANCH   1  12
BRANCH   2  24
HETATM   24  C   UNL     1       4.577  28.058  49.912  1.00  0.00    -0.025 A 
HETATM   25  C   UNL     1       3.189  28.183  49.718  1.00  0.00     0.046 A 
HETATM   26  C   UNL     1       2.537  27.453  48.721  1.00  0.00     0.068 A 
HETATM   27  C   UNL     1       3.280  26.634  47.870  1.00  0.00     0.037 A 
HETATM   28  C   UNL     1       4.659  26.519  48.027  1.00  0.00     0.003 A 
HETATM   29  C   UNL     1       5.303  27.221  49.044  1.00  0.00     0.010 A 
BRANCH  26  30
HETATM   30  O   UNL     1       1.191  27.471  48.474  1.00  0.00    -0.356 OA
HETATM   31  C   UNL     1       0.808  27.363  47.106  1.00  0.00     0.210 C 
ENDBRANCH  26  30
ENDBRANCH   2  24
TORSDOF 4
ENDMDL
MODEL 6
REMARK VINA RESULT:      -8.6      4.489      8.614
REMARK  4 active torsions:
REMARK  status: ('A' for Active; 'I' for Inactive)
REMARK    1  A    between atoms: C_6  and  N_7 
REMARK       I    between atoms: N_7  and  C_8 
REMARK    2  A    between atoms: C_8  and  C_9 
REMARK    3  A    between atoms: C_10  and  C_11 
REMARK    4  A    between atoms: C_13  and  O_14 
ROOT
HETATM    1  C   UNL     1       7.586  30.158  57.961  1.00  0.00     0.062 A 
HETATM    2  C   UNL     1       6.170  29.800  57.530  1.00  0.00     0.202 A 
HETATM    3  N   UNL     1       6.181  28.822  56.433  1.00  0.00    -0.084 N 
HETATM    4  C   UNL     1       7.321  28.308  55.875  1.00  0.00     0.725 A 
HETATM    5  N   UNL     1       8.520  28.721  56.320  1.00  0.00    -0.192 N 
HETATM    6  N   UNL     1       5.084  28.180  55.973  1.00  0.00    -0.149 NA
HETATM    7  C   UNL     1       5.634  27.382  55.051  1.00  0.00     0.275 A 
HETATM    8  N   UNL     1       7.001  27.419  54.970  1.00  0.00    -0.054 NA
HETATM    9  C   UNL     1       8.679  29.632  57.357  1.00  0.00     0.037 A 
HETATM   10  C   UNL     1      10.105  29.950  57.737  1.00  0.00     0.070 C 
HETATM   11  H   UNL     1       9.360  28.337  55.893  1.00  0.00     0.184 HD
ENDROOT
BRANCH   1  12
HETATM   12  C   UNL     1       7.746  31.199  59.008  1.00  0.00     0.256 C 
HETATM   13  N   UNL     1       7.162  30.851  60.207  1.00  0.00    -0.323 N 
HETATM   14  H   UNL     1       6.710  29.950  60.256  1.00  0.00     0.169 HD
HETATM   15  O   UNL     1       8.369  32.217  58.739  1.00  0.00    -0.267 OA
BRANCH  13  16
HETATM   16  C   UNL     1       7.164  31.600  61.411  1.00  0.00     0.041 A 
HETATM   17  C   UNL     1       8.247  31.452  62.304  1.00  0.00    -0.035 A 
HETATM   18  C   UNL     1       8.278  32.216  63.488  1.00  0.00     0.015 A 
HETATM   19  C   UNL     1       9.387  30.503  62.045  1.00  0.00     0.050 C 
HETATM   20  C   UNL     1       7.247  33.104  63.808  1.00  0.00    -0.061 A 
HETATM   21  C   UNL     1       7.308  33.943  65.050  1.00  0.00     0.048 C 
HETATM   22  C   UNL     1       6.181  33.240  62.921  1.00  0.00     0.009 A 
HETATM   23  C   UNL     1       6.138  32.492  61.741  1.00  0.00     0.030 A 
ENDBRANCH  13  16
ENDBRANCH   1  12
BRANCH   2  24
HETATM   24  C   UNL     1       5.280  30.987  57.172  1.00  0.00    -0.025 A 
HETATM   25  C   UNL     1       4.440  31.608  58.116  1.00  0.00     0.046 A 
HETATM   26  C   UNL     1       3.616  32.675  57.747  1.00  0.00     0.068 A 
HETATM   27  C   UNL     1       3.670  33.168  56.443  1.00  0.00     0.037 A 
HETATM   28  C   UNL     1       4.516  32.586  55.502  1.00  0.00     0.003 A 
HETATM   29  C   UNL     1       5.312  31.500  55.862  1.00  0.00     0.010 A 
BRANCH  26  30
HETATM   30  O   UNL     1       2.737  33.322  58.572  1.00  0.00    -0.356 OA
HETATM   31  C   UNL     1       3.263  33.761  59.821  1.00  0.00     0.210 C 
ENDBRANCH  26  30
ENDBRANCH   2  24
TORSDOF 4
ENDMDL
MODEL 7
REMARK VINA RESULT:      -8.4      4.357      8.625
REMARK  4 active torsions:
REMARK  status: ('A' for Active; 'I' for Inactive)
REMARK    1  A    between atoms: C_6  and  N_7 
REMARK       I    between atoms: N_7  and  C_8 
REMARK    2  A    between atoms: C_8  and  C_9 
REMARK    3  A    between atoms: C_10  and  C_11 
REMARK    4  A    between atoms: C_13  and  O_14 
ROOT
HETATM    1  C   UNL     1       7.725  29.916  58.166  1.00  0.00     0.062 A 
HETATM    2  C   UNL     1       6.370  29.349  57.758  1.00  0.00     0.202 A 
HETATM    3  N   UNL     1       6.524  28.263  56.779  1.00  0.00    -0.084 N 
HETATM    4  C   UNL     1       7.730  27.827  56.299  1.00  0.00     0.725 A 
HETATM    5  N   UNL     1       8.862  28.424  56.712  1.00  0.00    -0.192 N 
HETATM    6  N   UNL     1       5.520  27.451  56.378  1.00  0.00    -0.149 NA
HETATM    7  C   UNL     1       6.183  26.625  55.561  1.00  0.00     0.275 A 
HETATM    8  N   UNL     1       7.539  26.812  55.496  1.00  0.00    -0.054 NA
HETATM    9  C   UNL     1       8.887  29.457  57.642  1.00  0.00     0.037 A 
HETATM   10  C   UNL     1      10.255  29.979  58.004  1.00  0.00     0.070 C 
HETATM   11  H   UNL     1       9.751  28.096  56.344  1.00  0.00     0.184 HD
ENDROOT
BRANCH   1  12
HETATM   12  C   UNL     1       7.735  31.077  59.091  1.00  0.00     0.256 C 
HETATM   13  N   UNL     1       7.348  30.750  60.372  1.00  0.00    -0.323 N 
HETATM   14  H   UNL     1       7.114  29.784  60.551  1.00  0.00     0.169 HD
HETATM   15  O   UNL     1       8.090  32.168  58.665  1.00  0.00    -0.267 OA
BRANCH  13  16
HETATM   16  C   UNL     1       7.283  31.612  61.496  1.00  0.00     0.041 A 
HETATM   17  C   UNL     1       6.155  32.445  61.652  1.00  0.00    -0.035 A 
HETATM   18  C   UNL     1       6.062  33.281  62.783  1.00  0.00     0.015 A 
HETATM   19  C   UNL     1       5.029  32.480  60.652  1.00  0.00     0.050 C 
HETATM   20  C   UNL     1       7.075  33.319  63.745  1.00  0.00    -0.061 A 
HETATM   21  C   UNL     1       6.950  34.182  64.965  1.00  0.00     0.048 C 
HETATM   22  C   UNL     1       8.187  32.494  63.580  1.00  0.00     0.009 A 
HETATM   23  C   UNL     1       8.291  31.656  62.466  1.00  0.00     0.030 A 
ENDBRANCH  13  16
ENDBRANCH   1  12
BRANCH   2  24
HETATM   24  C   UNL     1       5.361  30.377  57.255  1.00  0.00    -0.025 A 
HETATM   25  C   UNL     1       5.602  31.174  56.120  1.00  0.00     0.046 A 
HETATM   26  C   UNL     1       4.668  32.127  55.704  1.00  0.00     0.068 A 
HETATM   27  C   UNL     1       3.457  32.248  56.386  1.00  0.00     0.037 A 
HETATM   28  C   UNL     1       3.188  31.448  57.494  1.00  0.00     0.003 A 
HETATM   29  C   UNL     1       4.134  30.523  57.929  1.00  0.00     0.010 A 
BRANCH  26  30
HETATM   30  O   UNL     1       4.820  32.977  54.642  1.00  0.00    -0.356 OA
HETATM   31  C   UNL     1       3.667  33.732  54.280  1.00  0.00     0.210 C 
ENDBRANCH  26  30
ENDBRANCH   2  24
TORSDOF 4
ENDMDL
MODEL 8
REMARK VINA RESULT:      -8.3      5.721      8.676
REMARK  4 active torsions:
REMARK  status: ('A' for Active; 'I' for Inactive)
REMARK    1  A    between atoms: C_6  and  N_7 
REMARK       I    between atoms: N_7  and  C_8 
REMARK    2  A    between atoms: C_8  and  C_9 
REMARK    3  A    between atoms: C_10  and  C_11 
REMARK    4  A    between atoms: C_13  and  O_14 
ROOT
HETATM    1  C   UNL     1       7.916  32.204  61.224  1.00  0.00     0.062 A 
HETATM    2  C   UNL     1       6.942  33.349  61.468  1.00  0.00     0.202 A 
HETATM    3  N   UNL     1       6.737  33.574  62.906  1.00  0.00    -0.084 N 
HETATM    4  C   UNL     1       7.344  32.841  63.892  1.00  0.00     0.725 A 
HETATM    5  N   UNL     1       8.165  31.832  63.555  1.00  0.00    -0.192 N 
HETATM    6  N   UNL     1       6.078  34.634  63.426  1.00  0.00    -0.149 NA
HETATM    7  C   UNL     1       6.230  34.401  64.735  1.00  0.00     0.275 A 
HETATM    8  N   UNL     1       7.010  33.322  65.062  1.00  0.00    -0.054 NA
HETATM    9  C   UNL     1       8.471  31.500  62.241  1.00  0.00     0.037 A 
HETATM   10  C   UNL     1       9.438  30.356  62.063  1.00  0.00     0.070 C 
HETATM   11  H   UNL     1       8.605  31.291  64.295  1.00  0.00     0.184 HD
ENDROOT
BRANCH   1  12
HETATM   12  C   UNL     1       8.166  31.798  59.818  1.00  0.00     0.256 C 
HETATM   13  N   UNL     1       7.613  30.575  59.504  1.00  0.00    -0.323 N 
HETATM   14  H   UNL     1       7.103  30.099  60.232  1.00  0.00     0.169 HD
HETATM   15  O   UNL     1       8.790  32.556  59.087  1.00  0.00    -0.267 OA
BRANCH  13  16
HETATM   16  C   UNL     1       7.637  29.921  58.246  1.00  0.00     0.041 A 
HETATM   17  C   UNL     1       6.493  29.985  57.422  1.00  0.00    -0.035 A 
HETATM   18  C   UNL     1       6.516  29.368  56.155  1.00  0.00     0.015 A 
HETATM   19  C   UNL     1       5.232  30.693  57.841  1.00  0.00     0.050 C 
HETATM   20  C   UNL     1       7.643  28.675  55.704  1.00  0.00    -0.061 A 
HETATM   21  C   UNL     1       7.674  28.056  54.338  1.00  0.00     0.048 C 
HETATM   22  C   UNL     1       8.767  28.615  56.527  1.00  0.00     0.009 A 
HETATM   23  C   UNL     1       8.761  29.225  57.784  1.00  0.00     0.030 A 
ENDBRANCH  13  16
ENDBRANCH   1  12
BRANCH   2  24
HETATM   24  C   UNL     1       5.598  33.222  60.755  1.00  0.00    -0.025 A 
HETATM   25  C   UNL     1       5.271  33.997  59.626  1.00  0.00     0.046 A 
HETATM   26  C   UNL     1       4.020  33.876  59.015  1.00  0.00     0.068 A 
HETATM   27  C   UNL     1       3.108  32.935  59.493  1.00  0.00     0.037 A 
HETATM   28  C   UNL     1       3.425  32.138  60.590  1.00  0.00     0.003 A 
HETATM   29  C   UNL     1       4.659  32.284  61.221  1.00  0.00     0.010 A 
BRANCH  26  30
HETATM   30  O   UNL     1       3.586  34.606  57.942  1.00  0.00    -0.356 OA
HETATM   31  C   UNL     1       4.552  34.850  56.923  1.00  0.00     0.210 C 
ENDBRANCH  26  30
ENDBRANCH   2  24
TORSDOF 4
ENDMDL
MODEL 9
REMARK VINA RESULT:      -8.1      2.022      4.640
REMARK  4 active torsions:
REMARK  status: ('A' for Active; 'I' for Inactive)
REMARK    1  A    between atoms: C_6  and  N_7 
REMARK       I    between atoms: N_7  and  C_8 
REMARK    2  A    between atoms: C_8  and  C_9 
REMARK    3  A    between atoms: C_10  and  C_11 
REMARK    4  A    between atoms: C_13  and  O_14 
ROOT
HETATM    1  C   UNL     1       5.807  27.926  54.151  1.00  0.00     0.062 A 
HETATM    2  C   UNL     1       5.577  28.803  52.926  1.00  0.00     0.202 A 
HETATM    3  N   UNL     1       4.520  29.793  53.174  1.00  0.00    -0.084 N 
HETATM    4  C   UNL     1       3.833  29.904  54.354  1.00  0.00     0.725 A 
HETATM    5  N   UNL     1       4.104  29.053  55.360  1.00  0.00    -0.192 N 
HETATM    6  N   UNL     1       4.228  30.820  52.345  1.00  0.00    -0.149 NA
HETATM    7  C   UNL     1       3.268  31.437  53.045  1.00  0.00     0.275 A 
HETATM    8  N   UNL     1       3.007  30.916  54.285  1.00  0.00    -0.054 NA
HETATM    9  C   UNL     1       5.082  28.069  55.287  1.00  0.00     0.037 A 
HETATM   10  C   UNL     1       5.261  27.231  56.529  1.00  0.00     0.070 C 
HETATM   11  H   UNL     1       3.584  29.142  56.229  1.00  0.00     0.184 HD
ENDROOT
BRANCH   1  12
HETATM   12  C   UNL     1       6.790  26.819  54.032  1.00  0.00     0.256 C 
HETATM   13  N   UNL     1       6.227  25.576  54.227  1.00  0.00    -0.323 N 
HETATM   14  H   UNL     1       5.236  25.542  54.414  1.00  0.00     0.169 HD
HETATM   15  O   UNL     1       7.953  27.088  53.763  1.00  0.00    -0.267 OA
BRANCH  13  16
HETATM   16  C   UNL     1       6.877  24.319  54.147  1.00  0.00     0.041 A 
HETATM   17  C   UNL     1       7.277  23.681  55.342  1.00  0.00    -0.035 A 
HETATM   18  C   UNL     1       7.893  22.416  55.279  1.00  0.00     0.015 A 
HETATM   19  C   UNL     1       7.072  24.302  56.699  1.00  0.00     0.050 C 
HETATM   20  C   UNL     1       8.136  21.784  54.056  1.00  0.00    -0.061 A 
HETATM   21  C   UNL     1       8.755  20.419  54.000  1.00  0.00     0.048 C 
HETATM   22  C   UNL     1       7.740  22.423  52.882  1.00  0.00     0.009 A 
HETATM   23  C   UNL     1       7.124  23.677  52.928  1.00  0.00     0.030 A 
ENDBRANCH  13  16
ENDBRANCH   1  12
BRANCH   2  24
HETATM   24  C   UNL     1       5.301  28.047  51.629  1.00  0.00    -0.025 A 
HETATM   25  C   UNL     1       5.444  28.648  50.364  1.00  0.00     0.046 A 
HETATM   26  C   UNL     1       5.154  27.936  49.198  1.00  0.00     0.068 A 
HETATM   27  C   UNL     1       4.777  26.596  49.284  1.00  0.00     0.037 A 
HETATM   28  C   UNL     1       4.658  25.974  50.525  1.00  0.00     0.003 A 
HETATM   29  C   UNL     1       4.913  26.696  51.690  1.00  0.00     0.010 A 
BRANCH  26  30
HETATM   30  O   UNL     1       5.222  28.434  47.925  1.00  0.00    -0.356 OA
HETATM   31  C   UNL     1       3.986  28.854  47.354  1.00  0.00     0.210 C 
ENDBRANCH  26  30
ENDBRANCH   2  24
TORSDOF 4
ENDMDL
MODEL 10
REMARK VINA RESULT:      -7.8      4.696      9.171
REMARK  4 active torsions:
REMARK  status: ('A' for Active; 'I' for Inactive)
REMARK    1  A    between atoms: C_6  and  N_7 
REMARK       I    between atoms: N_7  and  C_8 
REMARK    2  A    between atoms: C_8  and  C_9 
REMARK    3  A    between atoms: C_10  and  C_11 
REMARK    4  A    between atoms: C_13  and  O_14 
ROOT
HETATM    1  C   UNL     1       6.398  30.124  58.140  1.00  0.00     0.062 A 
HETATM    2  C   UNL     1       5.223  29.355  57.549  1.00  0.00     0.202 A 
HETATM    3  N   UNL     1       5.637  28.019  57.099  1.00  0.00    -0.084 N 
HETATM    4  C   UNL     1       6.916  27.537  57.197  1.00  0.00     0.725 A 
HETATM    5  N   UNL     1       7.880  28.321  57.712  1.00  0.00    -0.192 N 
HETATM    6  N   UNL     1       4.782  27.047  56.707  1.00  0.00    -0.149 NA
HETATM    7  C   UNL     1       5.638  26.046  56.471  1.00  0.00     0.275 A 
HETATM    8  N   UNL     1       6.951  26.301  56.772  1.00  0.00    -0.054 NA
HETATM    9  C   UNL     1       7.648  29.603  58.193  1.00  0.00     0.037 A 
HETATM   10  C   UNL     1       8.849  30.317  58.762  1.00  0.00     0.070 C 
HETATM   11  H   UNL     1       8.826  27.955  57.775  1.00  0.00     0.184 HD
ENDROOT
BRANCH   1  12
HETATM   12  C   UNL     1       6.159  31.526  58.567  1.00  0.00     0.256 C 
HETATM   13  N   UNL     1       5.845  31.636  59.905  1.00  0.00    -0.323 N 
HETATM   14  H   UNL     1       5.820  30.783  60.444  1.00  0.00     0.169 HD
HETATM   15  O   UNL     1       6.277  32.423  57.743  1.00  0.00    -0.267 OA
BRANCH  13  16
HETATM   16  C   UNL     1       5.596  32.826  60.632  1.00  0.00     0.041 A 
HETATM   17  C   UNL     1       6.527  33.234  61.612  1.00  0.00    -0.035 A 
HETATM   18  C   UNL     1       6.309  34.434  62.319  1.00  0.00     0.015 A 
HETATM   19  C   UNL     1       7.760  32.434  61.940  1.00  0.00     0.050 C 
HETATM   20  C   UNL     1       5.177  35.221  62.084  1.00  0.00    -0.061 A 
HETATM   21  C   UNL     1       4.973  36.516  62.812  1.00  0.00     0.048 C 
HETATM   22  C   UNL     1       4.263  34.808  61.117  1.00  0.00     0.009 A 
HETATM   23  C   UNL     1       4.467  33.622  60.405  1.00  0.00     0.030 A 
ENDBRANCH  13  16
ENDBRANCH   1  12
BRANCH   2  24
HETATM   24  C   UNL     1       4.466  30.077  56.438  1.00  0.00    -0.025 A 
HETATM   25  C   UNL     1       3.255  30.757  56.672  1.00  0.00     0.046 A 
HETATM   26  C   UNL     1       2.573  31.383  55.626  1.00  0.00     0.068 A 
HETATM   27  C   UNL     1       3.128  31.386  54.346  1.00  0.00     0.037 A 
HETATM   28  C   UNL     1       4.340  30.745  54.100  1.00  0.00     0.003 A 
HETATM   29  C   UNL     1       5.002  30.091  55.137  1.00  0.00     0.010 A 
BRANCH  26  30
HETATM   30  O   UNL     1       1.375  32.034  55.736  1.00  0.00    -0.356 OA
HETATM   31  C   UNL     1       1.155  33.095  54.810  1.00  0.00     0.210 C 
ENDBRANCH  26  30
ENDBRANCH   2  24
TORSDOF 4
ENDMDL
