MODEL 1
REMARK VINA RESULT:     -10.6      0.000      0.000
REMARK  3 active torsions:
REMARK  status: ('A' for Active; 'I' for Inactive)
REMARK    1  A    between atoms: C_3  and  C_4 
REMARK       I    between atoms: C_4  and  N_5 
REMARK    2  A    between atoms: N_5  and  C_6 
REMARK    3  A    between atoms: C_13  and  C_14 
REMARK       I    between atoms: C_14  and  N_15 
ROOT
HETATM    1  C   UNL     1       8.575  28.306  57.360  1.00  0.00     0.035 A 
HETATM    2  C   UNL     1       7.986  29.183  58.280  1.00  0.00     0.046 A 
HETATM    3  C   UNL     1       8.639  30.392  58.606  1.00  0.00     0.030 A 
HETATM    4  C   UNL     1       9.864  30.673  58.015  1.00  0.00     0.063 A 
HETATM    5  N   UNL     1      10.241  31.884  58.521  1.00  0.00    -0.277 N 
HETATM    6  H   UNL     1      11.089  32.400  58.313  1.00  0.00     0.189 HD
HETATM    7  N   UNL     1       9.361  32.428  59.378  1.00  0.00    -0.168 NA
HETATM    8  C   UNL     1       8.363  31.518  59.439  1.00  0.00     0.156 A 
HETATM    9  C   UNL     1      10.483  29.818  57.100  1.00  0.00     0.034 A 
HETATM   10  C   UNL     1       9.807  28.634  56.780  1.00  0.00     0.032 A 
ENDROOT
BRANCH   1  11
HETATM   11  N   UNL     1       7.974  27.104  56.940  1.00  0.00    -0.325 N 
HETATM   12  C   UNL     1       7.306  26.854  55.755  1.00  0.00     0.252 C 
HETATM   13  O   UNL     1       7.020  27.676  54.890  1.00  0.00    -0.270 OA
HETATM   14  H   UNL     1       7.996  26.321  57.587  1.00  0.00     0.169 HD
BRANCH  12  15
HETATM   15  C   UNL     1       6.997  25.367  55.550  1.00  0.00     0.229 C 
HETATM   16  C   UNL     1       6.826  25.090  54.043  1.00  0.00     0.056 C 
HETATM   17  C   UNL     1       5.371  25.117  53.604  1.00  0.00     0.018 C 
HETATM   18  C   UNL     1       7.480  23.758  53.971  1.00  0.00    -0.018 A 
HETATM   19  C   UNL     1       8.183  23.528  55.143  1.00  0.00     0.076 A 
HETATM   20  C   UNL     1       7.517  22.841  52.933  1.00  0.00     0.010 A 
HETATM   21  O   UNL     1       8.075  24.537  56.063  1.00  0.00    -0.335 OA
HETATM   22  C   UNL     1       8.939  22.389  55.331  1.00  0.00     0.037 A 
HETATM   23  C   UNL     1       8.974  21.450  54.298  1.00  0.00     0.003 A 
HETATM   24  C   UNL     1       8.268  21.675  53.106  1.00  0.00     0.001 A 
ENDBRANCH  12  15
ENDBRANCH   1  11
BRANCH   8  25
HETATM   25  C   UNL     1       7.173  31.746  60.271  1.00  0.00     0.270 C 
HETATM   26  N   UNL     1       7.217  31.126  61.490  1.00  0.00    -0.365 N 
HETATM   27  H   UNL     1       8.039  30.585  61.729  1.00  0.00     0.159 HD
HETATM   28  H   UNL     1       6.453  31.242  62.137  1.00  0.00     0.159 HD
HETATM   29  O   UNL     1       6.211  32.432  59.943  1.00  0.00    -0.266 OA
ENDBRANCH   8  25
TORSDOF 3
ENDMDL
MODEL 2
REMARK VINA RESULT:     -10.1      5.683      8.740
REMARK  3 active torsions:
REMARK  status: ('A' for Active; 'I' for Inactive)
REMARK    1  A    between atoms: C_3  and  C_4 
REMARK       I    between atoms: C_4  and  N_5 
REMARK    2  A    between atoms: N_5  and  C_6 
REMARK    3  A    between atoms: C_13  and  C_14 
REMARK       I    between atoms: C_14  and  N_15 
ROOT
HETATM    1  C   UNL     1       5.514  26.567  51.067  1.00  0.00     0.035 A 
HETATM    2  C   UNL     1       4.787  25.970  50.028  1.00  0.00     0.046 A 
HETATM    3  C   UNL     1       3.972  26.772  49.200  1.00  0.00     0.030 A 
HETATM    4  C   UNL     1       3.899  28.136  49.448  1.00  0.00     0.063 A 
HETATM    5  N   UNL     1       3.045  28.631  48.504  1.00  0.00    -0.277 N 
HETATM    6  H   UNL     1       2.753  29.595  48.384  1.00  0.00     0.189 HD
HETATM    7  N   UNL     1       2.567  27.712  47.648  1.00  0.00    -0.168 NA
HETATM    8  C   UNL     1       3.134  26.557  48.064  1.00  0.00     0.156 A 
HETATM    9  C   UNL     1       4.604  28.763  50.478  1.00  0.00     0.034 A 
HETATM   10  C   UNL     1       5.419  27.949  51.275  1.00  0.00     0.032 A 
ENDROOT
BRANCH   1  11
HETATM   11  N   UNL     1       6.387  25.855  51.910  1.00  0.00    -0.325 N 
HETATM   12  C   UNL     1       6.061  25.004  52.951  1.00  0.00     0.252 C 
HETATM   13  O   UNL     1       4.938  24.797  53.401  1.00  0.00    -0.270 OA
HETATM   14  H   UNL     1       7.385  25.994  51.774  1.00  0.00     0.169 HD
BRANCH  12  15
HETATM   15  C   UNL     1       7.270  24.228  53.485  1.00  0.00     0.229 C 
HETATM   16  C   UNL     1       6.984  23.784  54.933  1.00  0.00     0.056 C 
HETATM   17  C   UNL     1       7.557  24.743  55.965  1.00  0.00     0.018 C 
HETATM   18  C   UNL     1       7.622  22.442  54.900  1.00  0.00    -0.018 A 
HETATM   19  C   UNL     1       7.883  22.091  53.585  1.00  0.00     0.076 A 
HETATM   20  C   UNL     1       7.894  21.562  55.934  1.00  0.00     0.010 A 
HETATM   21  O   UNL     1       7.533  23.051  52.673  1.00  0.00    -0.335 OA
HETATM   22  C   UNL     1       8.423  20.866  53.248  1.00  0.00     0.037 A 
HETATM   23  C   UNL     1       8.714  19.974  54.281  1.00  0.00     0.003 A 
HETATM   24  C   UNL     1       8.452  20.320  55.617  1.00  0.00     0.001 A 
ENDBRANCH  12  15
ENDBRANCH   1  11
BRANCH   8  25
HETATM   25  C   UNL     1       2.877  25.288  47.367  1.00  0.00     0.270 C 
HETATM   26  N   UNL     1       2.776  24.206  48.197  1.00  0.00    -0.365 N 
HETATM   27  H   UNL     1       2.870  24.350  49.196  1.00  0.00     0.159 HD
HETATM   28  H   UNL     1       2.581  23.296  47.810  1.00  0.00     0.159 HD
HETATM   29  O   UNL     1       2.748  25.171  46.154  1.00  0.00    -0.266 OA
ENDBRANCH   8  25
TORSDOF 3
ENDMDL
MODEL 3
REMARK VINA RESULT:      -9.7      1.892      2.782
REMARK  3 active torsions:
REMARK  status: ('A' for Active; 'I' for Inactive)
REMARK    1  A    between atoms: C_3  and  C_4 
REMARK       I    between atoms: C_4  and  N_5 
REMARK    2  A    between atoms: N_5  and  C_6 
REMARK    3  A    between atoms: C_13  and  C_14 
REMARK       I    between atoms: C_14  and  N_15 
ROOT
HETATM    1  C   UNL     1       7.036  28.055  56.984  1.00  0.00     0.035 A 
HETATM    2  C   UNL     1       7.863  28.995  57.613  1.00  0.00     0.046 A 
HETATM    3  C   UNL     1       7.310  30.206  58.082  1.00  0.00     0.030 A 
HETATM    4  C   UNL     1       5.954  30.442  57.891  1.00  0.00     0.063 A 
HETATM    5  N   UNL     1       5.721  31.672  58.436  1.00  0.00    -0.277 N 
HETATM    6  H   UNL     1       4.838  32.170  58.475  1.00  0.00     0.189 HD
HETATM    7  N   UNL     1       6.802  32.254  58.982  1.00  0.00    -0.168 NA
HETATM    8  C   UNL     1       7.792  31.357  58.774  1.00  0.00     0.156 A 
HETATM    9  C   UNL     1       5.103  29.531  57.262  1.00  0.00     0.034 A 
HETATM   10  C   UNL     1       5.672  28.330  56.821  1.00  0.00     0.032 A 
ENDROOT
BRANCH   1  11
HETATM   11  N   UNL     1       7.492  26.803  56.528  1.00  0.00    -0.325 N 
HETATM   12  C   UNL     1       7.285  26.221  55.290  1.00  0.00     0.252 C 
HETATM   13  O   UNL     1       6.567  26.649  54.392  1.00  0.00    -0.270 OA
HETATM   14  H   UNL     1       8.012  26.229  57.185  1.00  0.00     0.169 HD
BRANCH  12  15
HETATM   15  C   UNL     1       8.131  24.961  55.079  1.00  0.00     0.229 C 
HETATM   16  C   UNL     1       7.774  23.925  56.162  1.00  0.00     0.056 C 
HETATM   17  C   UNL     1       8.724  23.966  57.349  1.00  0.00     0.018 C 
HETATM   18  C   UNL     1       7.848  22.688  55.342  1.00  0.00    -0.018 A 
HETATM   19  C   UNL     1       7.885  23.030  53.999  1.00  0.00     0.076 A 
HETATM   20  C   UNL     1       7.816  21.360  55.731  1.00  0.00     0.010 A 
HETATM   21  O   UNL     1       7.881  24.381  53.769  1.00  0.00    -0.335 OA
HETATM   22  C   UNL     1       7.896  22.077  53.001  1.00  0.00     0.037 A 
HETATM   23  C   UNL     1       7.878  20.734  53.380  1.00  0.00     0.003 A 
HETATM   24  C   UNL     1       7.838  20.377  54.738  1.00  0.00     0.001 A 
ENDBRANCH  12  15
ENDBRANCH   1  11
BRANCH   8  25
HETATM   25  C   UNL     1       9.161  31.610  59.246  1.00  0.00     0.270 C 
HETATM   26  N   UNL     1       9.466  30.996  60.429  1.00  0.00    -0.365 N 
HETATM   27  H   UNL     1       8.760  30.421  60.873  1.00  0.00     0.159 HD
HETATM   28  H   UNL     1      10.389  31.097  60.821  1.00  0.00     0.159 HD
HETATM   29  O   UNL     1       9.988  32.298  58.658  1.00  0.00    -0.266 OA
ENDBRANCH   8  25
TORSDOF 3
ENDMDL
MODEL 4
REMARK VINA RESULT:      -9.7      2.158      2.494
REMARK  3 active torsions:
REMARK  status: ('A' for Active; 'I' for Inactive)
REMARK    1  A    between atoms: C_3  and  C_4 
REMARK       I    between atoms: C_4  and  N_5 
REMARK    2  A    between atoms: N_5  and  C_6 
REMARK    3  A    between atoms: C_13  and  C_14 
REMARK       I    between atoms: C_14  and  N_15 
ROOT
HETATM    1  C   UNL     1       7.049  27.723  56.879  1.00  0.00     0.035 A 
HETATM    2  C   UNL     1       5.930  28.492  57.224  1.00  0.00     0.046 A 
HETATM    3  C   UNL     1       6.111  29.793  57.743  1.00  0.00     0.030 A 
HETATM    4  C   UNL     1       7.404  30.272  57.914  1.00  0.00     0.063 A 
HETATM    5  N   UNL     1       7.259  31.529  58.427  1.00  0.00    -0.277 N 
HETATM    6  H   UNL     1       7.996  32.178  58.681  1.00  0.00     0.189 HD
HETATM    7  N   UNL     1       5.984  31.921  58.590  1.00  0.00    -0.168 NA
HETATM    8  C   UNL     1       5.262  30.859  58.168  1.00  0.00     0.156 A 
HETATM    9  C   UNL     1       8.542  29.530  57.588  1.00  0.00     0.034 A 
HETATM   10  C   UNL     1       8.334  28.250  57.059  1.00  0.00     0.032 A 
ENDROOT
BRANCH   1  11
HETATM   11  N   UNL     1       6.961  26.438  56.312  1.00  0.00    -0.325 N 
HETATM   12  C   UNL     1       7.667  25.302  56.665  1.00  0.00     0.252 C 
HETATM   13  O   UNL     1       8.586  25.235  57.475  1.00  0.00    -0.270 OA
HETATM   14  H   UNL     1       6.330  26.317  55.525  1.00  0.00     0.169 HD
BRANCH  12  15
HETATM   15  C   UNL     1       7.133  24.037  55.984  1.00  0.00     0.229 C 
HETATM   16  C   UNL     1       7.371  24.142  54.465  1.00  0.00     0.056 C 
HETATM   17  C   UNL     1       6.155  24.663  53.715  1.00  0.00     0.018 C 
HETATM   18  C   UNL     1       7.725  22.727  54.182  1.00  0.00    -0.018 A 
HETATM   19  C   UNL     1       7.977  22.069  55.376  1.00  0.00     0.076 A 
HETATM   20  C   UNL     1       7.882  22.076  52.970  1.00  0.00     0.010 A 
HETATM   21  O   UNL     1       7.808  22.851  56.487  1.00  0.00    -0.335 OA
HETATM   22  C   UNL     1       8.387  20.752  55.413  1.00  0.00     0.037 A 
HETATM   23  C   UNL     1       8.538  20.080  54.199  1.00  0.00     0.003 A 
HETATM   24  C   UNL     1       8.287  20.737  52.984  1.00  0.00     0.001 A 
ENDBRANCH  12  15
ENDBRANCH   1  11
BRANCH   8  25
HETATM   25  C   UNL     1       3.793  30.888  58.167  1.00  0.00     0.270 C 
HETATM   26  N   UNL     1       3.224  30.402  59.312  1.00  0.00    -0.365 N 
HETATM   27  H   UNL     1       3.831  30.081  60.057  1.00  0.00     0.159 HD
HETATM   28  H   UNL     1       2.221  30.401  59.410  1.00  0.00     0.159 HD
HETATM   29  O   UNL     1       3.102  31.311  57.247  1.00  0.00    -0.266 OA
ENDBRANCH   8  25
TORSDOF 3
ENDMDL
MODEL 5
REMARK VINA RESULT:      -9.6      2.185      2.656
REMARK  3 active torsions:
REMARK  status: ('A' for Active; 'I' for Inactive)
REMARK    1  A    between atoms: C_3  and  C_4 
REMARK       I    between atoms: C_4  and  N_5 
REMARK    2  A    between atoms: N_5  and  C_6 
REMARK    3  A    between atoms: C_13  and  C_14 
REMARK       I    between atoms: C_14  and  N_15 
ROOT
HETATM    1  C   UNL     1       5.576  28.503  56.293  1.00  0.00     0.035 A 
HETATM    2  C   UNL     1       6.512  28.941  57.238  1.00  0.00     0.046 A 
HETATM    3  C   UNL     1       6.435  30.261  57.735  1.00  0.00     0.030 A 
HETATM    4  C   UNL     1       5.437  31.100  57.258  1.00  0.00     0.063 A 
HETATM    5  N   UNL     1       5.620  32.287  57.908  1.00  0.00    -0.277 N 
HETATM    6  H   UNL     1       5.073  33.135  57.805  1.00  0.00     0.189 HD
HETATM    7  N   UNL     1       6.640  32.292  58.782  1.00  0.00    -0.168 NA
HETATM    8  C   UNL     1       7.152  31.044  58.689  1.00  0.00     0.156 A 
HETATM    9  C   UNL     1       4.492  30.699  56.310  1.00  0.00     0.034 A 
HETATM   10  C   UNL     1       4.579  29.381  55.846  1.00  0.00     0.032 A 
ENDROOT
BRANCH   1  11
HETATM   11  N   UNL     1       5.548  27.193  55.779  1.00  0.00    -0.325 N 
HETATM   12  C   UNL     1       6.542  26.530  55.082  1.00  0.00     0.252 C 
HETATM   13  O   UNL     1       7.601  27.008  54.688  1.00  0.00    -0.270 OA
HETATM   14  H   UNL     1       4.688  26.664  55.897  1.00  0.00     0.169 HD
BRANCH  12  15
HETATM   15  C   UNL     1       6.241  25.039  54.893  1.00  0.00     0.229 C 
HETATM   16  C   UNL     1       6.728  24.599  53.498  1.00  0.00     0.056 C 
HETATM   17  C   UNL     1       5.620  24.620  52.457  1.00  0.00     0.018 C 
HETATM   18  C   UNL     1       7.242  23.248  53.841  1.00  0.00    -0.018 A 
HETATM   19  C   UNL     1       7.339  23.131  55.219  1.00  0.00     0.076 A 
HETATM   20  C   UNL     1       7.660  22.220  53.014  1.00  0.00     0.010 A 
HETATM   21  O   UNL     1       6.916  24.240  55.902  1.00  0.00    -0.335 OA
HETATM   22  C   UNL     1       7.845  21.998  55.823  1.00  0.00     0.037 A 
HETATM   23  C   UNL     1       8.258  20.948  55.001  1.00  0.00     0.003 A 
HETATM   24  C   UNL     1       8.166  21.058  53.604  1.00  0.00     0.001 A 
ENDBRANCH  12  15
ENDBRANCH   1  11
BRANCH   8  25
HETATM   25  C   UNL     1       8.295  30.626  59.514  1.00  0.00     0.270 C 
HETATM   26  N   UNL     1       8.028  30.578  60.854  1.00  0.00    -0.365 N 
HETATM   27  H   UNL     1       7.095  30.811  61.172  1.00  0.00     0.159 HD
HETATM   28  H   UNL     1       8.747  30.283  61.496  1.00  0.00     0.159 HD
HETATM   29  O   UNL     1       9.402  30.331  59.077  1.00  0.00    -0.266 OA
ENDBRANCH   8  25
TORSDOF 3
ENDMDL
MODEL 6
REMARK VINA RESULT:      -9.5      3.097      8.587
REMARK  3 active torsions:
REMARK  status: ('A' for Active; 'I' for Inactive)
REMARK    1  A    between atoms: C_3  and  C_4 
REMARK       I    between atoms: C_4  and  N_5 
REMARK    2  A    between atoms: N_5  and  C_6 
REMARK    3  A    between atoms: C_13  and  C_14 
REMARK       I    between atoms: C_14  and  N_15 
ROOT
HETATM    1  C   UNL     1       7.579  25.221  54.517  1.00  0.00     0.035 A 
HETATM    2  C   UNL     1       7.918  24.071  55.243  1.00  0.00     0.046 A 
HETATM    3  C   UNL     1       7.983  22.825  54.583  1.00  0.00     0.030 A 
HETATM    4  C   UNL     1       7.692  22.769  53.226  1.00  0.00     0.063 A 
HETATM    5  N   UNL     1       7.833  21.455  52.879  1.00  0.00    -0.277 N 
HETATM    6  H   UNL     1       7.694  21.043  51.963  1.00  0.00     0.189 HD
HETATM    7  N   UNL     1       8.208  20.650  53.887  1.00  0.00    -0.168 NA
HETATM    8  C   UNL     1       8.308  21.483  54.947  1.00  0.00     0.156 A 
HETATM    9  C   UNL     1       7.344  23.893  52.473  1.00  0.00     0.034 A 
HETATM   10  C   UNL     1       7.303  25.119  53.148  1.00  0.00     0.032 A 
ENDROOT
BRANCH   1  11
HETATM   11  N   UNL     1       7.536  26.509  55.082  1.00  0.00    -0.325 N 
HETATM   12  C   UNL     1       7.970  26.905  56.334  1.00  0.00     0.252 C 
HETATM   13  O   UNL     1       8.378  26.174  57.231  1.00  0.00    -0.270 OA
HETATM   14  H   UNL     1       7.109  27.247  54.529  1.00  0.00     0.169 HD
BRANCH  12  15
HETATM   15  C   UNL     1       7.979  28.428  56.505  1.00  0.00     0.229 C 
HETATM   16  C   UNL     1       7.152  28.801  57.751  1.00  0.00     0.056 C 
HETATM   17  C   UNL     1       5.717  29.176  57.412  1.00  0.00     0.018 C 
HETATM   18  C   UNL     1       7.987  29.916  58.266  1.00  0.00    -0.018 A 
HETATM   19  C   UNL     1       9.214  29.906  57.621  1.00  0.00     0.076 A 
HETATM   20  C   UNL     1       7.725  30.832  59.271  1.00  0.00     0.010 A 
HETATM   21  O   UNL     1       9.335  28.925  56.673  1.00  0.00    -0.335 OA
HETATM   22  C   UNL     1      10.217  30.798  57.942  1.00  0.00     0.037 A 
HETATM   23  C   UNL     1       9.962  31.736  58.944  1.00  0.00     0.003 A 
HETATM   24  C   UNL     1       8.723  31.752  59.606  1.00  0.00     0.001 A 
ENDBRANCH  12  15
ENDBRANCH   1  11
BRANCH   8  25
HETATM   25  C   UNL     1       8.720  20.989  56.269  1.00  0.00     0.270 C 
HETATM   26  N   UNL     1       9.688  20.024  56.226  1.00  0.00    -0.365 N 
HETATM   27  H   UNL     1      10.049  19.737  55.324  1.00  0.00     0.159 HD
HETATM   28  H   UNL     1      10.047  19.639  57.086  1.00  0.00     0.159 HD
HETATM   29  O   UNL     1       8.268  21.387  57.337  1.00  0.00    -0.266 OA
ENDBRANCH   8  25
TORSDOF 3
ENDMDL
MODEL 7
REMARK VINA RESULT:      -9.2      3.775      9.314
REMARK  3 active torsions:
REMARK  status: ('A' for Active; 'I' for Inactive)
REMARK    1  A    between atoms: C_3  and  C_4 
REMARK       I    between atoms: C_4  and  N_5 
REMARK    2  A    between atoms: N_5  and  C_6 
REMARK    3  A    between atoms: C_13  and  C_14 
REMARK       I    between atoms: C_14  and  N_15 
ROOT
HETATM    1  C   UNL     1       7.710  29.708  57.876  1.00  0.00     0.035 A 
HETATM    2  C   UNL     1       6.688  29.240  57.039  1.00  0.00     0.046 A 
HETATM    3  C   UNL     1       7.002  28.803  55.733  1.00  0.00     0.030 A 
HETATM    4  C   UNL     1       8.322  28.865  55.305  1.00  0.00     0.063 A 
HETATM    5  N   UNL     1       8.310  28.389  54.025  1.00  0.00    -0.277 N 
HETATM    6  H   UNL     1       9.102  28.293  53.398  1.00  0.00     0.189 HD
HETATM    7  N   UNL     1       7.101  28.005  53.585  1.00  0.00    -0.168 NA
HETATM    8  C   UNL     1       6.281  28.251  54.632  1.00  0.00     0.156 A 
HETATM    9  C   UNL     1       9.364  29.333  56.110  1.00  0.00     0.034 A 
HETATM   10  C   UNL     1       9.029  29.744  57.406  1.00  0.00     0.032 A 
ENDROOT
BRANCH   1  11
HETATM   11  N   UNL     1       7.496  30.118  59.205  1.00  0.00    -0.325 N 
HETATM   12  C   UNL     1       7.455  31.408  59.702  1.00  0.00     0.252 C 
HETATM   13  O   UNL     1       7.707  32.438  59.084  1.00  0.00    -0.270 OA
HETATM   14  H   UNL     1       7.387  29.390  59.906  1.00  0.00     0.169 HD
BRANCH  12  15
HETATM   15  C   UNL     1       6.964  31.470  61.153  1.00  0.00     0.229 C 
HETATM   16  C   UNL     1       8.161  31.765  62.078  1.00  0.00     0.056 C 
HETATM   17  C   UNL     1       8.762  30.504  62.680  1.00  0.00     0.018 C 
HETATM   18  C   UNL     1       7.493  32.667  63.051  1.00  0.00    -0.018 A 
HETATM   19  C   UNL     1       6.267  33.065  62.540  1.00  0.00     0.076 A 
HETATM   20  C   UNL     1       7.948  33.162  64.262  1.00  0.00     0.010 A 
HETATM   21  O   UNL     1       5.969  32.516  61.321  1.00  0.00    -0.335 OA
HETATM   22  C   UNL     1       5.451  33.956  63.207  1.00  0.00     0.037 A 
HETATM   23  C   UNL     1       5.891  34.452  64.435  1.00  0.00     0.003 A 
HETATM   24  C   UNL     1       7.133  34.058  64.960  1.00  0.00     0.001 A 
ENDBRANCH  12  15
ENDBRANCH   1  11
BRANCH   8  25
HETATM   25  C   UNL     1       4.845  27.946  54.563  1.00  0.00     0.270 C 
HETATM   26  N   UNL     1       4.560  26.721  54.027  1.00  0.00    -0.365 N 
HETATM   27  H   UNL     1       5.328  26.127  53.738  1.00  0.00     0.159 HD
HETATM   28  H   UNL     1       3.601  26.417  53.958  1.00  0.00     0.159 HD
HETATM   29  O   UNL     1       3.953  28.693  54.950  1.00  0.00    -0.266 OA
ENDBRANCH   8  25
TORSDOF 3
ENDMDL
MODEL 8
REMARK VINA RESULT:      -9.1      5.161      7.118
REMARK  3 active torsions:
REMARK  status: ('A' for Active; 'I' for Inactive)
REMARK    1  A    between atoms: C_3  and  C_4 
REMARK       I    between atoms: C_4  and  N_5 
REMARK    2  A    between atoms: N_5  and  C_6 
REMARK    3  A    between atoms: C_13  and  C_14 
REMARK       I    between atoms: C_14  and  N_15 
ROOT
HETATM    1  C   UNL     1       5.071  27.683  53.278  1.00  0.00     0.035 A 
HETATM    2  C   UNL     1       4.427  27.707  52.034  1.00  0.00     0.046 A 
HETATM    3  C   UNL     1       3.592  28.797  51.703  1.00  0.00     0.030 A 
HETATM    4  C   UNL     1       3.417  29.814  52.632  1.00  0.00     0.063 A 
HETATM    5  N   UNL     1       2.569  30.705  52.038  1.00  0.00    -0.277 N 
HETATM    6  H   UNL     1       2.217  31.573  52.429  1.00  0.00     0.189 HD
HETATM    7  N   UNL     1       2.188  30.368  50.795  1.00  0.00    -0.168 NA
HETATM    8  C   UNL     1       2.816  29.191  50.571  1.00  0.00     0.156 A 
HETATM    9  C   UNL     1       4.036  29.819  53.884  1.00  0.00     0.034 A 
HETATM   10  C   UNL     1       4.873  28.736  54.181  1.00  0.00     0.032 A 
ENDROOT
BRANCH   1  11
HETATM   11  N   UNL     1       5.956  26.663  53.673  1.00  0.00    -0.325 N 
HETATM   12  C   UNL     1       5.729  25.299  53.694  1.00  0.00     0.252 C 
HETATM   13  O   UNL     1       4.663  24.732  53.471  1.00  0.00    -0.270 OA
HETATM   14  H   UNL     1       6.870  26.945  54.017  1.00  0.00     0.169 HD
BRANCH  12  15
HETATM   15  C   UNL     1       7.003  24.489  53.957  1.00  0.00     0.229 C 
HETATM   16  C   UNL     1       6.899  23.818  55.341  1.00  0.00     0.056 C 
HETATM   17  C   UNL     1       7.579  24.625  56.436  1.00  0.00     0.018 C 
HETATM   18  C   UNL     1       7.545  22.519  55.025  1.00  0.00    -0.018 A 
HETATM   19  C   UNL     1       7.651  22.381  53.650  1.00  0.00     0.076 A 
HETATM   20  C   UNL     1       7.950  21.499  55.870  1.00  0.00     0.010 A 
HETATM   21  O   UNL     1       7.181  23.459  52.946  1.00  0.00    -0.335 OA
HETATM   22  C   UNL     1       8.161  21.240  53.065  1.00  0.00     0.037 A 
HETATM   23  C   UNL     1       8.586  20.210  53.906  1.00  0.00     0.003 A 
HETATM   24  C   UNL     1       8.481  20.338  55.300  1.00  0.00     0.001 A 
ENDBRANCH  12  15
ENDBRANCH   1  11
BRANCH   8  25
HETATM   25  C   UNL     1       2.673  28.483  49.292  1.00  0.00     0.270 C 
HETATM   26  N   UNL     1       1.591  27.649  49.233  1.00  0.00    -0.365 N 
HETATM   27  H   UNL     1       0.980  27.589  50.039  1.00  0.00     0.159 HD
HETATM   28  H   UNL     1       1.401  27.135  48.387  1.00  0.00     0.159 HD
HETATM   29  O   UNL     1       3.429  28.607  48.335  1.00  0.00    -0.266 OA
ENDBRANCH   8  25
TORSDOF 3
ENDMDL
MODEL 9
REMARK VINA RESULT:      -9.1      5.544      7.307
REMARK  3 active torsions:
REMARK  status: ('A' for Active; 'I' for Inactive)
REMARK    1  A    between atoms: C_3  and  C_4 
REMARK       I    between atoms: C_4  and  N_5 
REMARK    2  A    between atoms: N_5  and  C_6 
REMARK    3  A    between atoms: C_13  and  C_14 
REMARK       I    between atoms: C_14  and  N_15 
ROOT
HETATM    1  C   UNL     1       5.387  26.693  51.086  1.00  0.00     0.035 A 
HETATM    2  C   UNL     1       4.972  28.001  51.369  1.00  0.00     0.046 A 
HETATM    3  C   UNL     1       4.042  28.636  50.518  1.00  0.00     0.030 A 
HETATM    4  C   UNL     1       3.573  27.949  49.406  1.00  0.00     0.063 A 
HETATM    5  N   UNL     1       2.710  28.808  48.787  1.00  0.00    -0.277 N 
HETATM    6  H   UNL     1       2.182  28.642  47.937  1.00  0.00     0.189 HD
HETATM    7  N   UNL     1       2.560  29.990  49.407  1.00  0.00    -0.168 NA
HETATM    8  C   UNL     1       3.375  29.898  50.482  1.00  0.00     0.156 A 
HETATM    9  C   UNL     1       3.971  26.648  49.089  1.00  0.00     0.034 A 
HETATM   10  C   UNL     1       4.880  26.033  49.959  1.00  0.00     0.032 A 
ENDROOT
BRANCH   1  11
HETATM   11  N   UNL     1       6.272  25.966  51.905  1.00  0.00    -0.325 N 
HETATM   12  C   UNL     1       5.961  25.087  52.926  1.00  0.00     0.252 C 
HETATM   13  O   UNL     1       4.843  24.861  53.380  1.00  0.00    -0.270 OA
HETATM   14  H   UNL     1       7.267  26.116  51.763  1.00  0.00     0.169 HD
BRANCH  12  15
HETATM   15  C   UNL     1       7.180  24.307  53.431  1.00  0.00     0.229 C 
HETATM   16  C   UNL     1       6.902  23.807  54.862  1.00  0.00     0.056 C 
HETATM   17  C   UNL     1       7.465  24.735  55.927  1.00  0.00     0.018 C 
HETATM   18  C   UNL     1       7.556  22.476  54.779  1.00  0.00    -0.018 A 
HETATM   19  C   UNL     1       7.819  22.176  53.452  1.00  0.00     0.076 A 
HETATM   20  C   UNL     1       7.841  21.561  55.780  1.00  0.00     0.010 A 
HETATM   21  O   UNL     1       7.456  23.164  52.576  1.00  0.00    -0.335 OA
HETATM   22  C   UNL     1       8.373  20.971  53.070  1.00  0.00     0.037 A 
HETATM   23  C   UNL     1       8.677  20.045  54.070  1.00  0.00     0.003 A 
HETATM   24  C   UNL     1       8.412  20.338  55.417  1.00  0.00     0.001 A 
ENDBRANCH  12  15
ENDBRANCH   1  11
BRANCH   8  25
HETATM   25  C   UNL     1       3.489  30.999  51.448  1.00  0.00     0.270 C 
HETATM   26  N   UNL     1       2.327  31.282  52.112  1.00  0.00    -0.365 N 
HETATM   27  H   UNL     1       1.505  30.726  51.909  1.00  0.00     0.159 HD
HETATM   28  H   UNL     1       2.315  32.010  52.809  1.00  0.00     0.159 HD
HETATM   29  O   UNL     1       4.517  31.627  51.674  1.00  0.00    -0.266 OA
ENDBRANCH   8  25
TORSDOF 3
ENDMDL
MODEL 10
REMARK VINA RESULT:      -9.0      2.749      8.579
REMARK  3 active torsions:
REMARK  status: ('A' for Active; 'I' for Inactive)
REMARK    1  A    between atoms: C_3  and  C_4 
REMARK       I    between atoms: C_4  and  N_5 
REMARK    2  A    between atoms: N_5  and  C_6 
REMARK    3  A    between atoms: C_13  and  C_14 
REMARK       I    between atoms: C_14  and  N_15 
ROOT
HETATM    1  C   UNL     1       7.896  27.008  56.587  1.00  0.00     0.035 A 
HETATM    2  C   UNL     1       7.224  26.728  55.389  1.00  0.00     0.046 A 
HETATM    3  C   UNL     1       7.096  25.389  54.959  1.00  0.00     0.030 A 
HETATM    4  C   UNL     1       7.659  24.380  55.730  1.00  0.00     0.063 A 
HETATM    5  N   UNL     1       7.380  23.219  55.067  1.00  0.00    -0.277 N 
HETATM    6  H   UNL     1       7.643  22.278  55.339  1.00  0.00     0.189 HD
HETATM    7  N   UNL     1       6.670  23.379  53.938  1.00  0.00    -0.168 NA
HETATM    8  C   UNL     1       6.483  24.716  53.859  1.00  0.00     0.156 A 
HETATM    9  C   UNL     1       8.342  24.624  56.924  1.00  0.00     0.034 A 
HETATM   10  C   UNL     1       8.440  25.958  57.338  1.00  0.00     0.032 A 
ENDROOT
BRANCH   1  11
HETATM   11  N   UNL     1       8.030  28.305  57.116  1.00  0.00    -0.325 N 
HETATM   12  C   UNL     1       7.043  29.111  57.653  1.00  0.00     0.252 C 
HETATM   13  O   UNL     1       5.837  28.880  57.668  1.00  0.00    -0.270 OA
HETATM   14  H   UNL     1       8.951  28.731  57.079  1.00  0.00     0.169 HD
BRANCH  12  15
HETATM   15  C   UNL     1       7.605  30.359  58.343  1.00  0.00     0.229 C 
HETATM   16  C   UNL     1       6.444  31.159  58.965  1.00  0.00     0.056 C 
HETATM   17  C   UNL     1       5.954  32.280  58.062  1.00  0.00     0.018 C 
HETATM   18  C   UNL     1       7.107  31.606  60.217  1.00  0.00    -0.018 A 
HETATM   19  C   UNL     1       8.277  30.885  60.398  1.00  0.00     0.076 A 
HETATM   20  C   UNL     1       6.689  32.524  61.166  1.00  0.00     0.010 A 
HETATM   21  O   UNL     1       8.543  29.994  59.393  1.00  0.00    -0.335 OA
HETATM   22  C   UNL     1       9.072  31.049  61.515  1.00  0.00     0.037 A 
HETATM   23  C   UNL     1       8.669  31.981  62.473  1.00  0.00     0.003 A 
HETATM   24  C   UNL     1       7.484  32.715  62.299  1.00  0.00     0.001 A 
ENDBRANCH  12  15
ENDBRANCH   1  11
BRANCH   8  25
HETATM   25  C   UNL     1       5.721  25.315  52.755  1.00  0.00     0.270 C 
HETATM   26  N   UNL     1       4.407  25.557  53.050  1.00  0.00    -0.365 N 
HETATM   27  H   UNL     1       4.068  25.328  53.977  1.00  0.00     0.159 HD
HETATM   28  H   UNL     1       3.811  25.985  52.359  1.00  0.00     0.159 HD
HETATM   29  O   UNL     1       6.185  25.596  51.656  1.00  0.00    -0.266 OA
ENDBRANCH   8  25
TORSDOF 3
ENDMDL
