MODEL 1
REMARK VINA RESULT:      -9.0      0.000      0.000
REMARK  7 active torsions:
REMARK  status: ('A' for Active; 'I' for Inactive)
REMARK    1  A    between atoms: C_2  and  O_3 
REMARK    2  A    between atoms: O_3  and  C_4 
REMARK    3  A    between atoms: C_5  and  N_6 
REMARK       I    between atoms: N_6  and  C_7 
REMARK    4  A    between atoms: C_7  and  C_8 
REMARK    5  A    between atoms: C_8  and  S_9 
REMARK    6  A    between atoms: S_9  and  C_10 
REMARK    7  A    between atoms: N_11  and  C_12 
ROOT
HETATM    1  C   UNL     1       7.439  24.162  56.248  1.00  0.00     0.177 A 
HETATM    2  N   UNL     1       7.238  24.311  54.858  1.00  0.00    -0.276 N 
HETATM    3  C   UNL     1       7.621  23.211  54.004  1.00  0.00     0.124 A 
HETATM    4  N   UNL     1       7.558  23.262  52.688  1.00  0.00    -0.384 N 
HETATM    5  H   UNL     1       7.856  22.482  52.122  1.00  0.00     0.157 HD
HETATM    6  H   UNL     1       7.228  24.101  52.227  1.00  0.00     0.157 HD
HETATM    7  C   UNL     1       8.129  22.048  54.658  1.00  0.00     0.081 A 
HETATM    8  C   UNL     1       8.268  22.069  56.042  1.00  0.00     0.187 A 
HETATM    9  N   UNL     1       8.755  20.932  56.520  1.00  0.00    -0.153 NA
HETATM   10  N   UNL     1       8.916  20.174  55.420  1.00  0.00    -0.280 N 
HETATM   11  H   UNL     1       9.276  19.232  55.541  1.00  0.00     0.189 HD
HETATM   12  C   UNL     1       8.565  20.809  54.247  1.00  0.00     0.042 A 
HETATM   13  C   UNL     1       8.697  20.143  52.932  1.00  0.00     0.071 C 
HETATM   14  N   UNL     1       7.953  23.139  56.869  1.00  0.00    -0.202 NA
ENDROOT
BRANCH   1  15
HETATM   15  S   UNL     1       7.002  25.507  57.341  1.00  0.00    -0.082 SA
BRANCH  15  16
HETATM   16  C   UNL     1       8.557  26.443  57.311  1.00  0.00     0.185 C 
BRANCH  16  17
HETATM   17  C   UNL     1       8.283  27.932  57.178  1.00  0.00     0.232 C 
HETATM   18  N   UNL     1       7.053  28.305  57.704  1.00  0.00    -0.324 N 
HETATM   19  H   UNL     1       6.774  27.838  58.558  1.00  0.00     0.169 HD
HETATM   20  O   UNL     1       9.109  28.717  56.713  1.00  0.00    -0.272 OA
BRANCH  18  21
HETATM   21  C   UNL     1       6.449  29.549  57.428  1.00  0.00     0.068 A 
HETATM   22  C   UNL     1       6.604  30.667  58.267  1.00  0.00     0.095 A 
HETATM   23  C   UNL     1       6.001  31.882  57.933  1.00  0.00     0.039 A 
HETATM   24  C   UNL     1       5.232  31.984  56.771  1.00  0.00     0.003 A 
HETATM   25  C   UNL     1       5.102  30.887  55.921  1.00  0.00     0.002 A 
HETATM   26  C   UNL     1       5.725  29.678  56.238  1.00  0.00     0.032 A 
BRANCH  22  27
HETATM   27  O   UNL     1       7.532  30.629  59.280  1.00  0.00    -0.349 OA
BRANCH  27  28
HETATM   28  C   UNL     1       8.672  31.457  59.038  1.00  0.00     0.171 C 
HETATM   29  C   UNL     1       9.006  32.245  60.290  1.00  0.00     0.034 C 
ENDBRANCH  27  28
ENDBRANCH  22  27
ENDBRANCH  18  21
ENDBRANCH  16  17
ENDBRANCH  15  16
ENDBRANCH   1  15
BRANCH   2  30
HETATM   30  C   UNL     1       6.667  25.489  54.294  1.00  0.00     0.043 A 
HETATM   31  C   UNL     1       7.476  26.566  53.899  1.00  0.00     0.031 A 
HETATM   32  C   UNL     1       6.914  27.684  53.278  1.00  0.00     0.021 A 
HETATM   33  C   UNL     1       5.541  27.725  53.037  1.00  0.00     0.011 A 
HETATM   34 BR   UNL     1       4.785  29.231  52.183  1.00  0.00    -0.051 Br
HETATM   35  C   UNL     1       4.726  26.662  53.416  1.00  0.00     0.021 A 
HETATM   36  C   UNL     1       5.287  25.547  54.044  1.00  0.00     0.031 A 
ENDBRANCH   2  30
TORSDOF 7
ENDMDL
MODEL 2
REMARK VINA RESULT:      -8.8      3.603      6.359
REMARK  7 active torsions:
REMARK  status: ('A' for Active; 'I' for Inactive)
REMARK    1  A    between atoms: C_2  and  O_3 
REMARK    2  A    between atoms: O_3  and  C_4 
REMARK    3  A    between atoms: C_5  and  N_6 
REMARK       I    between atoms: N_6  and  C_7 
REMARK    4  A    between atoms: C_7  and  C_8 
REMARK    5  A    between atoms: C_8  and  S_9 
REMARK    6  A    between atoms: S_9  and  C_10 
REMARK    7  A    between atoms: N_11  and  C_12 
ROOT
HETATM    1  C   UNL     1       7.356  26.546  54.635  1.00  0.00     0.177 A 
HETATM    2  N   UNL     1       7.758  26.470  55.988  1.00  0.00    -0.276 N 
HETATM    3  C   UNL     1       7.969  25.157  56.550  1.00  0.00     0.124 A 
HETATM    4  N   UNL     1       8.265  24.954  57.820  1.00  0.00    -0.384 N 
HETATM    5  H   UNL     1       8.383  24.020  58.183  1.00  0.00     0.157 HD
HETATM    6  H   UNL     1       8.355  25.738  58.452  1.00  0.00     0.157 HD
HETATM    7  C   UNL     1       7.794  24.052  55.664  1.00  0.00     0.081 A 
HETATM    8  C   UNL     1       7.390  24.304  54.357  1.00  0.00     0.187 A 
HETATM    9  N   UNL     1       7.260  23.193  53.644  1.00  0.00    -0.153 NA
HETATM   10  N   UNL     1       7.599  22.223  54.511  1.00  0.00    -0.280 N 
HETATM   11  H   UNL     1       7.584  21.263  54.179  1.00  0.00     0.189 HD
HETATM   12  C   UNL     1       7.920  22.685  55.771  1.00  0.00     0.042 A 
HETATM   13  C   UNL     1       8.295  21.764  56.865  1.00  0.00     0.071 C 
HETATM   14  N   UNL     1       7.132  25.557  53.818  1.00  0.00    -0.202 NA
ENDROOT
BRANCH   1  15
HETATM   15  S   UNL     1       7.061  28.150  53.904  1.00  0.00    -0.082 SA
BRANCH  15  16
HETATM   16  C   UNL     1       5.253  28.223  54.048  1.00  0.00     0.185 C 
BRANCH  16  17
HETATM   17  C   UNL     1       4.601  28.090  52.681  1.00  0.00     0.232 C 
HETATM   18  N   UNL     1       5.446  27.530  51.731  1.00  0.00    -0.324 N 
HETATM   19  H   UNL     1       6.044  26.780  52.055  1.00  0.00     0.169 HD
HETATM   20  O   UNL     1       3.425  28.390  52.478  1.00  0.00    -0.272 OA
BRANCH  18  21
HETATM   21  C   UNL     1       5.185  27.587  50.347  1.00  0.00     0.068 A 
HETATM   22  C   UNL     1       5.433  28.738  49.578  1.00  0.00     0.095 A 
HETATM   23  C   UNL     1       5.176  28.731  48.204  1.00  0.00     0.039 A 
HETATM   24  C   UNL     1       4.659  27.585  47.596  1.00  0.00     0.003 A 
HETATM   25  C   UNL     1       4.441  26.433  48.349  1.00  0.00     0.002 A 
HETATM   26  C   UNL     1       4.722  26.427  49.718  1.00  0.00     0.032 A 
BRANCH  22  27
HETATM   27  O   UNL     1       6.142  29.779  50.128  1.00  0.00    -0.349 OA
BRANCH  27  28
HETATM   28  C   UNL     1       5.380  30.982  50.253  1.00  0.00     0.171 C 
HETATM   29  C   UNL     1       6.093  32.115  49.540  1.00  0.00     0.034 C 
ENDBRANCH  27  28
ENDBRANCH  22  27
ENDBRANCH  18  21
ENDBRANCH  16  17
ENDBRANCH  15  16
ENDBRANCH   1  15
BRANCH   2  30
HETATM   30  C   UNL     1       7.967  27.633  56.786  1.00  0.00     0.043 A 
HETATM   31  C   UNL     1       9.232  28.236  56.865  1.00  0.00     0.031 A 
HETATM   32  C   UNL     1       9.409  29.419  57.589  1.00  0.00     0.021 A 
HETATM   33  C   UNL     1       8.319  30.011  58.224  1.00  0.00     0.011 A 
HETATM   34 BR   UNL     1       8.555  31.618  59.189  1.00  0.00    -0.051 Br
HETATM   35  C   UNL     1       7.055  29.429  58.149  1.00  0.00     0.021 A 
HETATM   36  C   UNL     1       6.880  28.242  57.432  1.00  0.00     0.031 A 
ENDBRANCH   2  30
TORSDOF 7
ENDMDL
MODEL 3
REMARK VINA RESULT:      -8.7      3.798      6.547
REMARK  7 active torsions:
REMARK  status: ('A' for Active; 'I' for Inactive)
REMARK    1  A    between atoms: C_2  and  O_3 
REMARK    2  A    between atoms: O_3  and  C_4 
REMARK    3  A    between atoms: C_5  and  N_6 
REMARK       I    between atoms: N_6  and  C_7 
REMARK    4  A    between atoms: C_7  and  C_8 
REMARK    5  A    between atoms: C_8  and  S_9 
REMARK    6  A    between atoms: S_9  and  C_10 
REMARK    7  A    between atoms: N_11  and  C_12 
ROOT
HETATM    1  C   UNL     1       6.979  25.261  54.296  1.00  0.00     0.177 A 
HETATM    2  N   UNL     1       7.273  25.363  55.675  1.00  0.00    -0.276 N 
HETATM    3  C   UNL     1       7.665  24.157  56.366  1.00  0.00     0.124 A 
HETATM    4  N   UNL     1       7.884  24.108  57.666  1.00  0.00    -0.384 N 
HETATM    5  H   UNL     1       8.133  23.242  58.119  1.00  0.00     0.157 HD
HETATM    6  H   UNL     1       7.781  24.942  58.230  1.00  0.00     0.157 HD
HETATM    7  C   UNL     1       7.763  22.974  55.572  1.00  0.00     0.081 A 
HETATM    8  C   UNL     1       7.432  23.048  54.224  1.00  0.00     0.187 A 
HETATM    9  N   UNL     1       7.560  21.882  53.606  1.00  0.00    -0.153 NA
HETATM   10  N   UNL     1       7.991  21.058  54.579  1.00  0.00    -0.280 N 
HETATM   11  H   UNL     1       8.174  20.089  54.334  1.00  0.00     0.189 HD
HETATM   12  C   UNL     1       8.118  21.666  55.810  1.00  0.00     0.042 A 
HETATM   13  C   UNL     1       8.556  20.914  57.007  1.00  0.00     0.071 C 
HETATM   14  N   UNL     1       7.003  24.189  53.558  1.00  0.00    -0.202 NA
ENDROOT
BRANCH   1  15
HETATM   15  S   UNL     1       6.468  26.724  53.406  1.00  0.00    -0.082 SA
BRANCH  15  16
HETATM   16  C   UNL     1       6.737  26.155  51.703  1.00  0.00     0.185 C 
BRANCH  16  17
HETATM   17  C   UNL     1       5.409  25.921  51.001  1.00  0.00     0.232 C 
HETATM   18  N   UNL     1       5.318  26.584  49.784  1.00  0.00    -0.324 N 
HETATM   19  H   UNL     1       6.161  26.606  49.225  1.00  0.00     0.169 HD
HETATM   20  O   UNL     1       4.548  25.164  51.450  1.00  0.00    -0.272 OA
BRANCH  18  21
HETATM   21  C   UNL     1       4.095  26.771  49.106  1.00  0.00     0.068 A 
HETATM   22  C   UNL     1       3.229  27.841  49.391  1.00  0.00     0.095 A 
HETATM   23  C   UNL     1       2.040  27.991  48.672  1.00  0.00     0.039 A 
HETATM   24  C   UNL     1       1.705  27.069  47.677  1.00  0.00     0.003 A 
HETATM   25  C   UNL     1       2.577  26.026  47.370  1.00  0.00     0.002 A 
HETATM   26  C   UNL     1       3.779  25.888  48.068  1.00  0.00     0.032 A 
BRANCH  22  27
HETATM   27  O   UNL     1       3.659  28.861  50.206  1.00  0.00    -0.349 OA
BRANCH  27  28
HETATM   28  C   UNL     1       2.731  29.189  51.243  1.00  0.00     0.171 C 
HETATM   29  C   UNL     1       3.240  28.658  52.570  1.00  0.00     0.034 C 
ENDBRANCH  27  28
ENDBRANCH  22  27
ENDBRANCH  18  21
ENDBRANCH  16  17
ENDBRANCH  15  16
ENDBRANCH   1  15
BRANCH   2  30
HETATM   30  C   UNL     1       7.206  26.601  56.378  1.00  0.00     0.043 A 
HETATM   31  C   UNL     1       8.366  27.343  56.647  1.00  0.00     0.031 A 
HETATM   32  C   UNL     1       8.282  28.592  57.268  1.00  0.00     0.021 A 
HETATM   33  C   UNL     1       7.034  29.111  57.611  1.00  0.00     0.011 A 
HETATM   34 BR   UNL     1       6.919  30.805  58.437  1.00  0.00    -0.051 Br
HETATM   35  C   UNL     1       5.872  28.390  57.344  1.00  0.00     0.021 A 
HETATM   36  C   UNL     1       5.958  27.139  56.730  1.00  0.00     0.031 A 
ENDBRANCH   2  30
TORSDOF 7
ENDMDL
MODEL 4
REMARK VINA RESULT:      -8.7      2.712      7.177
REMARK  7 active torsions:
REMARK  status: ('A' for Active; 'I' for Inactive)
REMARK    1  A    between atoms: C_2  and  O_3 
REMARK    2  A    between atoms: O_3  and  C_4 
REMARK    3  A    between atoms: C_5  and  N_6 
REMARK       I    between atoms: N_6  and  C_7 
REMARK    4  A    between atoms: C_7  and  C_8 
REMARK    5  A    between atoms: C_8  and  S_9 
REMARK    6  A    between atoms: S_9  and  C_10 
REMARK    7  A    between atoms: N_11  and  C_12 
ROOT
HETATM    1  C   UNL     1       5.328  26.227  55.295  1.00  0.00     0.177 A 
HETATM    2  N   UNL     1       5.521  27.597  55.007  1.00  0.00    -0.276 N 
HETATM    3  C   UNL     1       5.459  28.005  53.623  1.00  0.00     0.124 A 
HETATM    4  N   UNL     1       5.702  29.238  53.222  1.00  0.00    -0.384 N 
HETATM    5  H   UNL     1       5.673  29.482  52.243  1.00  0.00     0.157 HD
HETATM    6  H   UNL     1       5.947  29.952  53.895  1.00  0.00     0.157 HD
HETATM    7  C   UNL     1       5.159  26.982  52.673  1.00  0.00     0.081 A 
HETATM    8  C   UNL     1       5.002  25.677  53.127  1.00  0.00     0.187 A 
HETATM    9  N   UNL     1       4.734  24.828  52.145  1.00  0.00    -0.153 NA
HETATM   10  N   UNL     1       4.710  25.611  51.052  1.00  0.00    -0.280 N 
HETATM   11  H   UNL     1       4.508  25.173  50.158  1.00  0.00     0.189 HD
HETATM   12  C   UNL     1       4.980  26.939  51.309  1.00  0.00     0.042 A 
HETATM   13  C   UNL     1       5.023  27.948  50.228  1.00  0.00     0.071 C 
HETATM   14  N   UNL     1       5.111  25.262  54.448  1.00  0.00    -0.202 NA
ENDROOT
BRANCH   1  15
HETATM   15  S   UNL     1       5.420  25.673  56.991  1.00  0.00    -0.082 SA
BRANCH  15  16
HETATM   16  C   UNL     1       7.212  25.794  57.256  1.00  0.00     0.185 C 
BRANCH  16  17
HETATM   17  C   UNL     1       7.942  24.712  56.478  1.00  0.00     0.232 C 
HETATM   18  N   UNL     1       7.133  23.625  56.173  1.00  0.00    -0.324 N 
HETATM   19  H   UNL     1       6.177  23.840  55.919  1.00  0.00     0.169 HD
HETATM   20  O   UNL     1       9.109  24.838  56.107  1.00  0.00    -0.272 OA
BRANCH  18  21
HETATM   21  C   UNL     1       7.648  22.387  55.739  1.00  0.00     0.068 A 
HETATM   22  C   UNL     1       7.573  21.965  54.400  1.00  0.00     0.095 A 
HETATM   23  C   UNL     1       8.121  20.736  54.021  1.00  0.00     0.039 A 
HETATM   24  C   UNL     1       8.732  19.920  54.975  1.00  0.00     0.003 A 
HETATM   25  C   UNL     1       8.836  20.349  56.297  1.00  0.00     0.002 A 
HETATM   26  C   UNL     1       8.313  21.588  56.675  1.00  0.00     0.032 A 
BRANCH  22  27
HETATM   27  O   UNL     1       7.176  22.855  53.431  1.00  0.00    -0.349 OA
BRANCH  27  28
HETATM   28  C   UNL     1       8.254  23.334  52.623  1.00  0.00     0.171 C 
HETATM   29  C   UNL     1       8.180  24.846  52.516  1.00  0.00     0.034 C 
ENDBRANCH  27  28
ENDBRANCH  22  27
ENDBRANCH  18  21
ENDBRANCH  16  17
ENDBRANCH  15  16
ENDBRANCH   1  15
BRANCH   2  30
HETATM   30  C   UNL     1       5.757  28.563  56.028  1.00  0.00     0.043 A 
HETATM   31  C   UNL     1       7.058  29.002  56.321  1.00  0.00     0.031 A 
HETATM   32  C   UNL     1       7.271  30.004  57.271  1.00  0.00     0.021 A 
HETATM   33  C   UNL     1       6.183  30.583  57.922  1.00  0.00     0.011 A 
HETATM   34 BR   UNL     1       6.471  31.949  59.194  1.00  0.00    -0.051 Br
HETATM   35  C   UNL     1       4.885  30.165  57.638  1.00  0.00     0.021 A 
HETATM   36  C   UNL     1       4.673  29.157  56.694  1.00  0.00     0.031 A 
ENDBRANCH   2  30
TORSDOF 7
ENDMDL
MODEL 5
REMARK VINA RESULT:      -8.7      3.450      6.036
REMARK  7 active torsions:
REMARK  status: ('A' for Active; 'I' for Inactive)
REMARK    1  A    between atoms: C_2  and  O_3 
REMARK    2  A    between atoms: O_3  and  C_4 
REMARK    3  A    between atoms: C_5  and  N_6 
REMARK       I    between atoms: N_6  and  C_7 
REMARK    4  A    between atoms: C_7  and  C_8 
REMARK    5  A    between atoms: C_8  and  S_9 
REMARK    6  A    between atoms: S_9  and  C_10 
REMARK    7  A    between atoms: N_11  and  C_12 
ROOT
HETATM    1  C   UNL     1       5.550  28.177  54.363  1.00  0.00     0.177 A 
HETATM    2  N   UNL     1       5.462  27.186  53.360  1.00  0.00    -0.276 N 
HETATM    3  C   UNL     1       4.566  27.430  52.255  1.00  0.00     0.124 A 
HETATM    4  N   UNL     1       4.337  26.547  51.302  1.00  0.00    -0.384 N 
HETATM    5  H   UNL     1       3.686  26.743  50.557  1.00  0.00     0.157 HD
HETATM    6  H   UNL     1       4.799  25.647  51.322  1.00  0.00     0.157 HD
HETATM    7  C   UNL     1       3.882  28.683  52.257  1.00  0.00     0.081 A 
HETATM    8  C   UNL     1       4.079  29.547  53.329  1.00  0.00     0.187 A 
HETATM    9  N   UNL     1       3.382  30.669  53.210  1.00  0.00    -0.153 NA
HETATM   10  N   UNL     1       2.741  30.516  52.037  1.00  0.00    -0.280 N 
HETATM   11  H   UNL     1       2.140  31.273  51.723  1.00  0.00     0.189 HD
HETATM   12  C   UNL     1       2.994  29.312  51.414  1.00  0.00     0.042 A 
HETATM   13  C   UNL     1       2.360  28.954  50.127  1.00  0.00     0.071 C 
HETATM   14  N   UNL     1       4.897  29.302  54.424  1.00  0.00    -0.202 NA
ENDROOT
BRANCH   1  15
HETATM   15  S   UNL     1       6.629  27.907  55.762  1.00  0.00    -0.082 SA
BRANCH  15  16
HETATM   16  C   UNL     1       6.893  29.626  56.281  1.00  0.00     0.185 C 
BRANCH  16  17
HETATM   17  C   UNL     1       7.397  29.682  57.714  1.00  0.00     0.232 C 
HETATM   18  N   UNL     1       7.305  30.950  58.271  1.00  0.00    -0.324 N 
HETATM   19  H   UNL     1       6.480  31.484  58.029  1.00  0.00     0.169 HD
HETATM   20  O   UNL     1       7.777  28.679  58.320  1.00  0.00    -0.272 OA
BRANCH  18  21
HETATM   21  C   UNL     1       7.981  31.316  59.453  1.00  0.00     0.068 A 
HETATM   22  C   UNL     1       9.344  31.660  59.470  1.00  0.00     0.095 A 
HETATM   23  C   UNL     1       9.957  32.037  60.668  1.00  0.00     0.039 A 
HETATM   24  C   UNL     1       9.218  32.060  61.854  1.00  0.00     0.003 A 
HETATM   25  C   UNL     1       7.859  31.750  61.835  1.00  0.00     0.002 A 
HETATM   26  C   UNL     1       7.237  31.399  60.635  1.00  0.00     0.032 A 
BRANCH  22  27
HETATM   27  O   UNL     1      10.008  31.851  58.282  1.00  0.00    -0.349 OA
BRANCH  27  28
HETATM   28  C   UNL     1      10.950  30.817  57.985  1.00  0.00     0.171 C 
HETATM   29  C   UNL     1      10.609  30.185  56.648  1.00  0.00     0.034 C 
ENDBRANCH  27  28
ENDBRANCH  22  27
ENDBRANCH  18  21
ENDBRANCH  16  17
ENDBRANCH  15  16
ENDBRANCH   1  15
BRANCH   2  30
HETATM   30  C   UNL     1       6.230  25.986  53.408  1.00  0.00     0.043 A 
HETATM   31  C   UNL     1       7.372  25.826  52.607  1.00  0.00     0.031 A 
HETATM   32  C   UNL     1       8.160  24.678  52.717  1.00  0.00     0.021 A 
HETATM   33  C   UNL     1       7.818  23.690  53.639  1.00  0.00     0.011 A 
HETATM   34 BR   UNL     1       8.893  22.145  53.799  1.00  0.00    -0.051 Br
HETATM   35  C   UNL     1       6.693  23.836  54.447  1.00  0.00     0.021 A 
HETATM   36  C   UNL     1       5.900  24.981  54.331  1.00  0.00     0.031 A 
ENDBRANCH   2  30
TORSDOF 7
ENDMDL
MODEL 6
REMARK VINA RESULT:      -8.6      2.112      3.641
REMARK  7 active torsions:
REMARK  status: ('A' for Active; 'I' for Inactive)
REMARK    1  A    between atoms: C_2  and  O_3 
REMARK    2  A    between atoms: O_3  and  C_4 
REMARK    3  A    between atoms: C_5  and  N_6 
REMARK       I    between atoms: N_6  and  C_7 
REMARK    4  A    between atoms: C_7  and  C_8 
REMARK    5  A    between atoms: C_8  and  S_9 
REMARK    6  A    between atoms: S_9  and  C_10 
REMARK    7  A    between atoms: N_11  and  C_12 
ROOT
HETATM    1  C   UNL     1       7.529  27.541  56.332  1.00  0.00     0.177 A 
HETATM    2  N   UNL     1       6.800  26.925  55.290  1.00  0.00    -0.276 N 
HETATM    3  C   UNL     1       6.850  25.486  55.197  1.00  0.00     0.124 A 
HETATM    4  N   UNL     1       6.280  24.803  54.223  1.00  0.00    -0.384 N 
HETATM    5  H   UNL     1       6.356  23.798  54.177  1.00  0.00     0.157 HD
HETATM    6  H   UNL     1       5.776  25.288  53.492  1.00  0.00     0.157 HD
HETATM    7  C   UNL     1       7.603  24.811  56.206  1.00  0.00     0.081 A 
HETATM    8  C   UNL     1       8.268  25.572  57.162  1.00  0.00     0.187 A 
HETATM    9  N   UNL     1       8.931  24.825  58.033  1.00  0.00    -0.153 NA
HETATM   10  N   UNL     1       8.673  23.568  57.628  1.00  0.00    -0.280 N 
HETATM   11  H   UNL     1       9.077  22.804  58.163  1.00  0.00     0.189 HD
HETATM   12  C   UNL     1       7.878  23.495  56.503  1.00  0.00     0.042 A 
HETATM   13  C   UNL     1       7.507  22.199  55.895  1.00  0.00     0.071 C 
HETATM   14  N   UNL     1       8.271  26.959  57.231  1.00  0.00    -0.202 NA
ENDROOT
BRANCH   1  15
HETATM   15  S   UNL     1       7.515  29.322  56.470  1.00  0.00    -0.082 SA
BRANCH  15  16
HETATM   16  C   UNL     1       9.284  29.623  56.742  1.00  0.00     0.185 C 
BRANCH  16  17
HETATM   17  C   UNL     1       9.498  30.477  57.981  1.00  0.00     0.232 C 
HETATM   18  N   UNL     1       8.672  30.114  59.037  1.00  0.00    -0.324 N 
HETATM   19  H   UNL     1       8.514  29.121  59.157  1.00  0.00     0.169 HD
HETATM   20  O   UNL     1      10.367  31.347  58.042  1.00  0.00    -0.272 OA
BRANCH  18  21
HETATM   21  C   UNL     1       8.468  30.936  60.164  1.00  0.00     0.068 A 
HETATM   22  C   UNL     1       7.674  32.095  60.120  1.00  0.00     0.095 A 
HETATM   23  C   UNL     1       7.487  32.861  61.275  1.00  0.00     0.039 A 
HETATM   24  C   UNL     1       8.100  32.481  62.471  1.00  0.00     0.003 A 
HETATM   25  C   UNL     1       8.862  31.315  62.526  1.00  0.00     0.002 A 
HETATM   26  C   UNL     1       9.029  30.533  61.380  1.00  0.00     0.032 A 
BRANCH  22  27
HETATM   27  O   UNL     1       6.899  32.343  59.013  1.00  0.00    -0.349 OA
BRANCH  27  28
HETATM   28  C   UNL     1       5.495  32.310  59.282  1.00  0.00     0.171 C 
HETATM   29  C   UNL     1       4.779  31.564  58.172  1.00  0.00     0.034 C 
ENDBRANCH  27  28
ENDBRANCH  22  27
ENDBRANCH  18  21
ENDBRANCH  16  17
ENDBRANCH  15  16
ENDBRANCH   1  15
BRANCH   2  30
HETATM   30  C   UNL     1       6.024  27.676  54.358  1.00  0.00     0.043 A 
HETATM   31  C   UNL     1       6.546  28.033  53.106  1.00  0.00     0.031 A 
HETATM   32  C   UNL     1       5.752  28.702  52.171  1.00  0.00     0.021 A 
HETATM   33  C   UNL     1       4.427  29.005  52.480  1.00  0.00     0.011 A 
HETATM   34 BR   UNL     1       3.348  29.895  51.210  1.00  0.00    -0.051 Br
HETATM   35  C   UNL     1       3.891  28.650  53.716  1.00  0.00     0.021 A 
HETATM   36  C   UNL     1       4.687  27.988  54.653  1.00  0.00     0.031 A 
ENDBRANCH   2  30
TORSDOF 7
ENDMDL
MODEL 7
REMARK VINA RESULT:      -8.3      4.144      6.976
REMARK  7 active torsions:
REMARK  status: ('A' for Active; 'I' for Inactive)
REMARK    1  A    between atoms: C_2  and  O_3 
REMARK    2  A    between atoms: O_3  and  C_4 
REMARK    3  A    between atoms: C_5  and  N_6 
REMARK       I    between atoms: N_6  and  C_7 
REMARK    4  A    between atoms: C_7  and  C_8 
REMARK    5  A    between atoms: C_8  and  S_9 
REMARK    6  A    between atoms: S_9  and  C_10 
REMARK    7  A    between atoms: N_11  and  C_12 
ROOT
HETATM    1  C   UNL     1       7.126  25.835  54.125  1.00  0.00     0.177 A 
HETATM    2  N   UNL     1       7.337  25.810  55.522  1.00  0.00    -0.276 N 
HETATM    3  C   UNL     1       7.619  24.534  56.134  1.00  0.00     0.124 A 
HETATM    4  N   UNL     1       7.753  24.370  57.436  1.00  0.00    -0.384 N 
HETATM    5  H   UNL     1       7.926  23.458  57.831  1.00  0.00     0.157 HD
HETATM    6  H   UNL     1       7.658  25.161  58.059  1.00  0.00     0.157 HD
HETATM    7  C   UNL     1       7.704  23.413  55.253  1.00  0.00     0.081 A 
HETATM    8  C   UNL     1       7.464  23.612  53.898  1.00  0.00     0.187 A 
HETATM    9  N   UNL     1       7.569  22.492  53.195  1.00  0.00    -0.153 NA
HETATM   10  N   UNL     1       7.893  21.571  54.121  1.00  0.00    -0.280 N 
HETATM   11  H   UNL     1       8.039  20.615  53.809  1.00  0.00     0.189 HD
HETATM   12  C   UNL     1       7.974  22.072  55.404  1.00  0.00     0.042 A 
HETATM   13  C   UNL     1       8.295  21.204  56.558  1.00  0.00     0.071 C 
HETATM   14  N   UNL     1       7.139  24.824  53.304  1.00  0.00    -0.202 NA
ENDROOT
BRANCH   1  15
HETATM   15  S   UNL     1       6.751  27.390  53.328  1.00  0.00    -0.082 SA
BRANCH  15  16
HETATM   16  C   UNL     1       5.880  26.778  51.858  1.00  0.00     0.185 C 
BRANCH  16  17
HETATM   17  C   UNL     1       5.148  27.912  51.159  1.00  0.00     0.232 C 
HETATM   18  N   UNL     1       3.860  27.567  50.771  1.00  0.00    -0.324 N 
HETATM   19  H   UNL     1       3.342  26.985  51.418  1.00  0.00     0.169 HD
HETATM   20  O   UNL     1       5.641  29.032  51.023  1.00  0.00    -0.272 OA
BRANCH  18  21
HETATM   21  C   UNL     1       3.109  28.327  49.851  1.00  0.00     0.068 A 
HETATM   22  C   UNL     1       3.242  28.177  48.460  1.00  0.00     0.095 A 
HETATM   23  C   UNL     1       2.455  28.941  47.594  1.00  0.00     0.039 A 
HETATM   24  C   UNL     1       1.544  29.865  48.110  1.00  0.00     0.003 A 
HETATM   25  C   UNL     1       1.387  29.994  49.490  1.00  0.00     0.002 A 
HETATM   26  C   UNL     1       2.152  29.212  50.358  1.00  0.00     0.032 A 
BRANCH  22  27
HETATM   27  O   UNL     1       3.969  27.123  47.959  1.00  0.00    -0.349 OA
BRANCH  27  28
HETATM   28  C   UNL     1       3.175  26.178  47.236  1.00  0.00     0.171 C 
HETATM   29  C   UNL     1       3.040  24.901  48.043  1.00  0.00     0.034 C 
ENDBRANCH  27  28
ENDBRANCH  22  27
ENDBRANCH  18  21
ENDBRANCH  16  17
ENDBRANCH  15  16
ENDBRANCH   1  15
BRANCH   2  30
HETATM   30  C   UNL     1       7.291  26.992  56.319  1.00  0.00     0.043 A 
HETATM   31  C   UNL     1       8.461  27.706  56.619  1.00  0.00     0.031 A 
HETATM   32  C   UNL     1       8.397  28.904  57.336  1.00  0.00     0.021 A 
HETATM   33  C   UNL     1       7.160  29.400  57.744  1.00  0.00     0.011 A 
HETATM   34 BR   UNL     1       7.071  31.027  58.699  1.00  0.00    -0.051 Br
HETATM   35  C   UNL     1       5.988  28.708  57.447  1.00  0.00     0.021 A 
HETATM   36  C   UNL     1       6.054  27.506  56.737  1.00  0.00     0.031 A 
ENDBRANCH   2  30
TORSDOF 7
ENDMDL
MODEL 8
REMARK VINA RESULT:      -8.3      2.884      8.609
REMARK  7 active torsions:
REMARK  status: ('A' for Active; 'I' for Inactive)
REMARK    1  A    between atoms: C_2  and  O_3 
REMARK    2  A    between atoms: O_3  and  C_4 
REMARK    3  A    between atoms: C_5  and  N_6 
REMARK       I    between atoms: N_6  and  C_7 
REMARK    4  A    between atoms: C_7  and  C_8 
REMARK    5  A    between atoms: C_8  and  S_9 
REMARK    6  A    between atoms: S_9  and  C_10 
REMARK    7  A    between atoms: N_11  and  C_12 
ROOT
HETATM    1  C   UNL     1       7.316  30.158  58.248  1.00  0.00     0.177 A 
HETATM    2  N   UNL     1       6.324  31.118  58.551  1.00  0.00    -0.276 N 
HETATM    3  C   UNL     1       6.420  31.802  59.818  1.00  0.00     0.124 A 
HETATM    4  N   UNL     1       5.512  32.657  60.249  1.00  0.00    -0.384 N 
HETATM    5  H   UNL     1       5.600  33.098  61.152  1.00  0.00     0.157 HD
HETATM    6  H   UNL     1       4.699  32.862  59.683  1.00  0.00     0.157 HD
HETATM    7  C   UNL     1       7.545  31.473  60.633  1.00  0.00     0.081 A 
HETATM    8  C   UNL     1       8.429  30.497  60.185  1.00  0.00     0.187 A 
HETATM    9  N   UNL     1       9.423  30.284  61.036  1.00  0.00    -0.153 NA
HETATM   10  N   UNL     1       9.169  31.148  62.036  1.00  0.00    -0.280 N 
HETATM   11  H   UNL     1       9.819  31.174  62.817  1.00  0.00     0.189 HD
HETATM   12  C   UNL     1       8.023  31.893  61.854  1.00  0.00     0.042 A 
HETATM   13  C   UNL     1       7.568  32.878  62.859  1.00  0.00     0.071 C 
HETATM   14  N   UNL     1       8.320  29.794  58.992  1.00  0.00    -0.202 NA
ENDROOT
BRANCH   1  15
HETATM   15  S   UNL     1       7.223  29.271  56.699  1.00  0.00    -0.082 SA
BRANCH  15  16
HETATM   16  C   UNL     1       6.723  27.637  57.312  1.00  0.00     0.185 C 
BRANCH  16  17
HETATM   17  C   UNL     1       6.443  26.693  56.154  1.00  0.00     0.232 C 
HETATM   18  N   UNL     1       7.517  25.863  55.861  1.00  0.00    -0.324 N 
HETATM   19  H   UNL     1       8.036  25.511  56.655  1.00  0.00     0.169 HD
HETATM   20  O   UNL     1       5.347  26.640  55.595  1.00  0.00    -0.272 OA
BRANCH  18  21
HETATM   21  C   UNL     1       7.612  25.133  54.658  1.00  0.00     0.068 A 
HETATM   22  C   UNL     1       7.588  23.728  54.623  1.00  0.00     0.095 A 
HETATM   23  C   UNL     1       7.663  23.057  53.400  1.00  0.00     0.039 A 
HETATM   24  C   UNL     1       7.777  23.781  52.211  1.00  0.00     0.003 A 
HETATM   25  C   UNL     1       7.770  25.175  52.240  1.00  0.00     0.002 A 
HETATM   26  C   UNL     1       7.667  25.850  53.458  1.00  0.00     0.032 A 
BRANCH  22  27
HETATM   27  O   UNL     1       7.256  23.028  55.758  1.00  0.00    -0.349 OA
BRANCH  27  28
HETATM   28  C   UNL     1       8.264  22.102  56.170  1.00  0.00     0.171 C 
HETATM   29  C   UNL     1       7.712  20.690  56.118  1.00  0.00     0.034 C 
ENDBRANCH  27  28
ENDBRANCH  22  27
ENDBRANCH  18  21
ENDBRANCH  16  17
ENDBRANCH  15  16
ENDBRANCH   1  15
BRANCH   2  30
HETATM   30  C   UNL     1       5.264  31.428  57.649  1.00  0.00     0.043 A 
HETATM   31  C   UNL     1       4.120  30.618  57.574  1.00  0.00     0.031 A 
HETATM   32  C   UNL     1       3.054  30.972  56.742  1.00  0.00     0.021 A 
HETATM   33  C   UNL     1       3.122  32.145  55.992  1.00  0.00     0.011 A 
HETATM   34 BR   UNL     1       1.674  32.631  54.880  1.00  0.00    -0.051 Br
HETATM   35  C   UNL     1       4.247  32.964  56.061  1.00  0.00     0.021 A 
HETATM   36  C   UNL     1       5.315  32.606  56.887  1.00  0.00     0.031 A 
ENDBRANCH   2  30
TORSDOF 7
ENDMDL
MODEL 9
REMARK VINA RESULT:      -8.3      4.603      8.376
REMARK  7 active torsions:
REMARK  status: ('A' for Active; 'I' for Inactive)
REMARK    1  A    between atoms: C_2  and  O_3 
REMARK    2  A    between atoms: O_3  and  C_4 
REMARK    3  A    between atoms: C_5  and  N_6 
REMARK       I    between atoms: N_6  and  C_7 
REMARK    4  A    between atoms: C_7  and  C_8 
REMARK    5  A    between atoms: C_8  and  S_9 
REMARK    6  A    between atoms: S_9  and  C_10 
REMARK    7  A    between atoms: N_11  and  C_12 
ROOT
HETATM    1  C   UNL     1       5.751  26.982  54.479  1.00  0.00     0.177 A 
HETATM    2  N   UNL     1       6.812  26.345  55.161  1.00  0.00    -0.276 N 
HETATM    3  C   UNL     1       7.462  27.079  56.221  1.00  0.00     0.124 A 
HETATM    4  N   UNL     1       8.514  26.626  56.875  1.00  0.00    -0.384 N 
HETATM    5  H   UNL     1       8.957  27.177  57.595  1.00  0.00     0.157 HD
HETATM    6  H   UNL     1       8.905  25.722  56.643  1.00  0.00     0.157 HD
HETATM    7  C   UNL     1       6.934  28.374  56.512  1.00  0.00     0.081 A 
HETATM    8  C   UNL     1       5.884  28.854  55.737  1.00  0.00     0.187 A 
HETATM    9  N   UNL     1       5.494  30.067  56.108  1.00  0.00    -0.153 NA
HETATM   10  N   UNL     1       6.305  30.353  57.143  1.00  0.00    -0.280 N 
HETATM   11  H   UNL     1       6.183  31.248  57.607  1.00  0.00     0.189 HD
HETATM   12  C   UNL     1       7.220  29.361  57.428  1.00  0.00     0.042 A 
HETATM   13  C   UNL     1       8.211  29.507  58.516  1.00  0.00     0.071 C 
HETATM   14  N   UNL     1       5.285  28.181  54.681  1.00  0.00    -0.202 NA
ENDROOT
BRANCH   1  15
HETATM   15  S   UNL     1       4.934  26.120  53.144  1.00  0.00    -0.082 SA
BRANCH  15  16
HETATM   16  C   UNL     1       5.780  26.875  51.728  1.00  0.00     0.185 C 
BRANCH  16  17
HETATM   17  C   UNL     1       4.802  27.677  50.884  1.00  0.00     0.232 C 
HETATM   18  N   UNL     1       5.068  27.596  49.524  1.00  0.00    -0.324 N 
HETATM   19  H   UNL     1       5.371  26.693  49.183  1.00  0.00     0.169 HD
HETATM   20  O   UNL     1       3.841  28.271  51.373  1.00  0.00    -0.272 OA
BRANCH  18  21
HETATM   21  C   UNL     1       4.505  28.481  48.581  1.00  0.00     0.068 A 
HETATM   22  C   UNL     1       3.328  28.181  47.873  1.00  0.00     0.095 A 
HETATM   23  C   UNL     1       2.802  29.105  46.966  1.00  0.00     0.039 A 
HETATM   24  C   UNL     1       3.452  30.323  46.753  1.00  0.00     0.003 A 
HETATM   25  C   UNL     1       4.602  30.636  47.476  1.00  0.00     0.002 A 
HETATM   26  C   UNL     1       5.116  29.726  48.403  1.00  0.00     0.032 A 
BRANCH  22  27
HETATM   27  O   UNL     1       2.575  27.093  48.242  1.00  0.00    -0.349 OA
BRANCH  27  28
HETATM   28  C   UNL     1       2.581  26.042  47.271  1.00  0.00     0.171 C 
HETATM   29  C   UNL     1       3.016  24.745  47.926  1.00  0.00     0.034 C 
ENDBRANCH  27  28
ENDBRANCH  22  27
ENDBRANCH  18  21
ENDBRANCH  16  17
ENDBRANCH  15  16
ENDBRANCH   1  15
BRANCH   2  30
HETATM   30  C   UNL     1       7.237  25.022  54.842  1.00  0.00     0.043 A 
HETATM   31  C   UNL     1       6.922  23.941  55.681  1.00  0.00     0.031 A 
HETATM   32  C   UNL     1       7.277  22.638  55.321  1.00  0.00     0.021 A 
HETATM   33  C   UNL     1       7.935  22.409  54.113  1.00  0.00     0.011 A 
HETATM   34 BR   UNL     1       8.400  20.646  53.620  1.00  0.00    -0.051 Br
HETATM   35  C   UNL     1       8.247  23.470  53.266  1.00  0.00     0.021 A 
HETATM   36  C   UNL     1       7.900  24.773  53.630  1.00  0.00     0.031 A 
ENDBRANCH   2  30
TORSDOF 7
ENDMDL
MODEL 10
REMARK VINA RESULT:      -8.2      4.702      8.579
REMARK  7 active torsions:
REMARK  status: ('A' for Active; 'I' for Inactive)
REMARK    1  A    between atoms: C_2  and  O_3 
REMARK    2  A    between atoms: O_3  and  C_4 
REMARK    3  A    between atoms: C_5  and  N_6 
REMARK       I    between atoms: N_6  and  C_7 
REMARK    4  A    between atoms: C_7  and  C_8 
REMARK    5  A    between atoms: C_8  and  S_9 
REMARK    6  A    between atoms: S_9  and  C_10 
REMARK    7  A    between atoms: N_11  and  C_12 
ROOT
HETATM    1  C   UNL     1       5.560  28.154  54.374  1.00  0.00     0.177 A 
HETATM    2  N   UNL     1       6.525  27.325  54.988  1.00  0.00    -0.276 N 
HETATM    3  C   UNL     1       7.192  27.830  56.164  1.00  0.00     0.124 A 
HETATM    4  N   UNL     1       8.167  27.185  56.776  1.00  0.00    -0.384 N 
HETATM    5  H   UNL     1       8.626  27.580  57.583  1.00  0.00     0.157 HD
HETATM    6  H   UNL     1       8.483  26.291  56.424  1.00  0.00     0.157 HD
HETATM    7  C   UNL     1       6.774  29.114  56.627  1.00  0.00     0.081 A 
HETATM    8  C   UNL     1       5.809  29.803  55.900  1.00  0.00     0.187 A 
HETATM    9  N   UNL     1       5.517  30.981  56.434  1.00  0.00    -0.153 NA
HETATM   10  N   UNL     1       6.303  31.034  57.524  1.00  0.00    -0.280 N 
HETATM   11  H   UNL     1       6.243  31.860  58.113  1.00  0.00     0.189 HD
HETATM   12  C   UNL     1       7.108  29.926  57.688  1.00  0.00     0.042 A 
HETATM   13  C   UNL     1       8.058  29.814  58.816  1.00  0.00     0.071 C 
HETATM   14  N   UNL     1       5.198  29.351  54.738  1.00  0.00    -0.202 NA
ENDROOT
BRANCH   1  15
HETATM   15  S   UNL     1       4.727  27.579  52.902  1.00  0.00    -0.082 SA
BRANCH  15  16
HETATM   16  C   UNL     1       5.321  28.814  51.712  1.00  0.00     0.185 C 
BRANCH  16  17
HETATM   17  C   UNL     1       4.982  28.395  50.290  1.00  0.00     0.232 C 
HETATM   18  N   UNL     1       3.679  27.931  50.160  1.00  0.00    -0.324 N 
HETATM   19  H   UNL     1       2.976  28.422  50.698  1.00  0.00     0.169 HD
HETATM   20  O   UNL     1       5.773  28.526  49.356  1.00  0.00    -0.272 OA
BRANCH  18  21
HETATM   21  C   UNL     1       3.234  27.210  49.033  1.00  0.00     0.068 A 
HETATM   22  C   UNL     1       2.397  27.776  48.055  1.00  0.00     0.095 A 
HETATM   23  C   UNL     1       2.005  27.021  46.947  1.00  0.00     0.039 A 
HETATM   24  C   UNL     1       2.433  25.698  46.815  1.00  0.00     0.003 A 
HETATM   25  C   UNL     1       3.289  25.144  47.766  1.00  0.00     0.002 A 
HETATM   26  C   UNL     1       3.705  25.904  48.862  1.00  0.00     0.032 A 
BRANCH  22  27
HETATM   27  O   UNL     1       2.159  29.130  48.069  1.00  0.00    -0.349 OA
BRANCH  27  28
HETATM   28  C   UNL     1       2.707  29.814  46.940  1.00  0.00     0.171 C 
HETATM   29  C   UNL     1       3.902  30.642  47.376  1.00  0.00     0.034 C 
ENDBRANCH  27  28
ENDBRANCH  22  27
ENDBRANCH  18  21
ENDBRANCH  16  17
ENDBRANCH  15  16
ENDBRANCH   1  15
BRANCH   2  30
HETATM   30  C   UNL     1       6.839  26.026  54.489  1.00  0.00     0.043 A 
HETATM   31  C   UNL     1       7.683  25.863  53.380  1.00  0.00     0.031 A 
HETATM   32  C   UNL     1       8.046  24.585  52.947  1.00  0.00     0.021 A 
HETATM   33  C   UNL     1       7.576  23.464  53.630  1.00  0.00     0.011 A 
HETATM   34 BR   UNL     1       8.079  21.736  53.053  1.00  0.00    -0.051 Br
HETATM   35  C   UNL     1       6.744  23.609  54.737  1.00  0.00     0.021 A 
HETATM   36  C   UNL     1       6.376  24.886  55.165  1.00  0.00     0.031 A 
ENDBRANCH   2  30
TORSDOF 7
ENDMDL
