MODEL 1
REMARK VINA RESULT:      -8.5      0.000      0.000
REMARK  10 active torsions:
REMARK  status: ('A' for Active; 'I' for Inactive)
REMARK    1  A    between atoms: C_2  and  O_3 
REMARK    2  A    between atoms: O_3  and  C_4 
REMARK    3  A    between atoms: C_7  and  C_8 
REMARK    4  A    between atoms: C_8  and  C_9 
REMARK    5  A    between atoms: C_10  and  C_11 
REMARK    6  A    between atoms: C_13  and  N_14 
REMARK    7  A    between atoms: N_20  and  C_21 
REMARK    8  A    between atoms: C_21  and  C_22 
REMARK    9  A    between atoms: C_22  and  N_23 
REMARK   10  A    between atoms: C_34  and  O_35 
ROOT
HETATM    1  C   UNL     1       4.477  29.230  54.763  1.00  0.00     0.059 C 
HETATM    2  C   UNL     1       4.817  29.120  56.216  1.00  0.00     0.161 C 
HETATM    3  N   UNL     1       4.640  30.506  56.649  1.00  0.00    -0.332 N 
HETATM    4  C   UNL     1       4.469  31.348  55.571  1.00  0.00     0.278 C 
HETATM    5  O   UNL     1       4.420  32.565  55.637  1.00  0.00    -0.265 OA
HETATM    6  C   UNL     1       4.301  30.504  54.375  1.00  0.00     0.146 C 
ENDROOT
BRANCH   1   7
HETATM    7  C   UNL     1       4.387  28.149  53.763  1.00  0.00     0.193 C 
HETATM    8  O   UNL     1       3.441  28.147  52.976  1.00  0.00    -0.287 OA
BRANCH   7   9
HETATM    9  C   UNL     1       5.428  27.106  53.645  1.00  0.00     0.015 A 
HETATM   10  C   UNL     1       6.716  27.362  53.166  1.00  0.00     0.018 A 
HETATM   11  C   UNL     1       7.667  26.330  53.109  1.00  0.00     0.038 A 
HETATM   12  C   UNL     1       7.351  25.055  53.576  1.00  0.00     0.069 A 
HETATM   13  C   UNL     1       6.068  24.813  54.075  1.00  0.00     0.038 A 
HETATM   14  C   UNL     1       5.111  25.828  54.115  1.00  0.00     0.018 A 
BRANCH  12  15
HETATM   15  O   UNL     1       8.174  23.971  53.626  1.00  0.00    -0.347 OA
BRANCH  15  16
HETATM   16  C   UNL     1       7.767  22.779  54.303  1.00  0.00     0.120 C 
HETATM   17  C   UNL     1       8.651  22.589  55.531  1.00  0.00     0.040 C 
HETATM   18  C   UNL     1       7.954  21.622  53.324  1.00  0.00     0.040 C 
ENDBRANCH  15  16
ENDBRANCH  12  15
ENDBRANCH   7   9
ENDBRANCH   1   7
BRANCH   2  19
HETATM   19  C   UNL     1       6.210  28.601  56.520  1.00  0.00    -0.028 A 
HETATM   20  C   UNL     1       7.322  29.252  55.960  1.00  0.00     0.045 A 
HETATM   21  C   UNL     1       8.624  28.786  56.213  1.00  0.00     0.103 A 
HETATM   22  C   UNL     1       8.838  27.676  57.032  1.00  0.00     0.036 A 
HETATM   23  C   UNL     1       7.739  27.023  57.590  1.00  0.00     0.003 A 
HETATM   24  C   UNL     1       6.439  27.473  57.329  1.00  0.00     0.010 A 
BRANCH  21  25
HETATM   25  N   UNL     1       9.764  29.457  55.573  1.00  0.00    -0.116 N 
HETATM   26  O   UNL     1      10.525  30.097  56.314  1.00  0.00    -0.532 OA
HETATM   27  O   UNL     1       9.869  29.375  54.345  1.00  0.00    -0.532 OA
ENDBRANCH  21  25
ENDBRANCH   2  19
BRANCH   6  28
HETATM   28  O   UNL     1       4.018  31.003  53.139  1.00  0.00    -0.355 OA
HETATM   29  H   UNL     1       4.241  31.964  53.147  1.00  0.00     0.218 HD
ENDBRANCH   6  28
BRANCH   3  30
HETATM   30  C   UNL     1       4.838  30.969  58.017  1.00  0.00     0.155 C 
BRANCH  30  31
HETATM   31  C   UNL     1       6.277  31.496  58.288  1.00  0.00     0.254 C 
BRANCH  31  32
HETATM   32  N   UNL     1       6.913  30.908  59.557  1.00  0.00    -0.066 N 
HETATM   33  H   UNL     1       6.327  30.089  59.788  1.00  0.00     0.280 HD
HETATM   34  C   UNL     1       6.807  31.846  60.768  1.00  0.00     0.262 C 
HETATM   35  C   UNL     1       7.896  32.947  60.762  1.00  0.00     0.260 C 
HETATM   36  N   UNL     1       9.272  32.349  60.631  1.00  0.00    -0.072 N 
HETATM   37  H   UNL     1       9.550  31.841  61.486  1.00  0.00     0.277 HD
HETATM   38  H   UNL     1       9.965  33.115  60.558  1.00  0.00     0.277 HD
HETATM   39  C   UNL     1       9.425  31.472  59.409  1.00  0.00     0.260 C 
HETATM   40  C   UNL     1       8.342  30.362  59.384  1.00  0.00     0.262 C 
ENDBRANCH  31  32
ENDBRANCH  30  31
ENDBRANCH   3  30
TORSDOF 10
ENDMDL
MODEL 2
REMARK VINA RESULT:      -8.3      2.227      3.434
REMARK  10 active torsions:
REMARK  status: ('A' for Active; 'I' for Inactive)
REMARK    1  A    between atoms: C_2  and  O_3 
REMARK    2  A    between atoms: O_3  and  C_4 
REMARK    3  A    between atoms: C_7  and  C_8 
REMARK    4  A    between atoms: C_8  and  C_9 
REMARK    5  A    between atoms: C_10  and  C_11 
REMARK    6  A    between atoms: C_13  and  N_14 
REMARK    7  A    between atoms: N_20  and  C_21 
REMARK    8  A    between atoms: C_21  and  C_22 
REMARK    9  A    between atoms: C_22  and  N_23 
REMARK   10  A    between atoms: C_34  and  O_35 
ROOT
HETATM    1  C   UNL     1       5.159  27.802  55.950  1.00  0.00     0.059 C 
HETATM    2  C   UNL     1       5.554  29.127  56.522  1.00  0.00     0.161 C 
HETATM    3  N   UNL     1       5.040  30.036  55.498  1.00  0.00    -0.332 N 
HETATM    4  C   UNL     1       4.630  29.346  54.377  1.00  0.00     0.278 C 
HETATM    5  O   UNL     1       4.273  29.862  53.332  1.00  0.00    -0.265 OA
HETATM    6  C   UNL     1       4.652  27.911  54.711  1.00  0.00     0.146 C 
ENDROOT
BRANCH   1   7
HETATM    7  C   UNL     1       5.321  26.464  56.551  1.00  0.00     0.193 C 
HETATM    8  O   UNL     1       4.534  26.108  57.426  1.00  0.00    -0.287 OA
BRANCH   7   9
HETATM    9  C   UNL     1       6.365  25.523  56.090  1.00  0.00     0.015 A 
HETATM   10  C   UNL     1       7.604  25.385  56.724  1.00  0.00     0.018 A 
HETATM   11  C   UNL     1       8.538  24.450  56.251  1.00  0.00     0.038 A 
HETATM   12  C   UNL     1       8.220  23.616  55.180  1.00  0.00     0.069 A 
HETATM   13  C   UNL     1       6.971  23.744  54.567  1.00  0.00     0.038 A 
HETATM   14  C   UNL     1       6.045  24.687  55.018  1.00  0.00     0.018 A 
BRANCH  12  15
HETATM   15  O   UNL     1       9.000  22.638  54.641  1.00  0.00    -0.347 OA
BRANCH  15  16
HETATM   16  C   UNL     1       8.555  21.279  54.626  1.00  0.00     0.120 C 
HETATM   17  C   UNL     1       9.318  20.504  55.695  1.00  0.00     0.040 C 
HETATM   18  C   UNL     1       8.862  20.722  53.238  1.00  0.00     0.040 C 
ENDBRANCH  15  16
ENDBRANCH  12  15
ENDBRANCH   7   9
ENDBRANCH   1   7
BRANCH   2  19
HETATM   19  C   UNL     1       7.042  29.315  56.757  1.00  0.00    -0.028 A 
HETATM   20  C   UNL     1       7.477  29.914  57.951  1.00  0.00     0.045 A 
HETATM   21  C   UNL     1       8.848  30.114  58.191  1.00  0.00     0.103 A 
HETATM   22  C   UNL     1       9.802  29.713  57.253  1.00  0.00     0.036 A 
HETATM   23  C   UNL     1       9.376  29.120  56.064  1.00  0.00     0.003 A 
HETATM   24  C   UNL     1       8.012  28.933  55.813  1.00  0.00     0.010 A 
BRANCH  21  25
HETATM   25  N   UNL     1       9.271  30.788  59.425  1.00  0.00    -0.116 N 
HETATM   26  O   UNL     1       9.048  30.195  60.492  1.00  0.00    -0.532 OA
HETATM   27  O   UNL     1       9.781  31.909  59.328  1.00  0.00    -0.532 OA
ENDBRANCH  21  25
ENDBRANCH   2  19
BRANCH   6  28
HETATM   28  O   UNL     1       4.217  26.937  53.862  1.00  0.00    -0.355 OA
HETATM   29  H   UNL     1       3.702  26.286  54.395  1.00  0.00     0.218 HD
ENDBRANCH   6  28
BRANCH   3  30
HETATM   30  C   UNL     1       5.149  31.488  55.562  1.00  0.00     0.155 C 
BRANCH  30  31
HETATM   31  C   UNL     1       4.164  32.137  56.577  1.00  0.00     0.254 C 
BRANCH  31  32
HETATM   32  N   UNL     1       4.869  32.832  57.752  1.00  0.00    -0.066 N 
HETATM   33  H   UNL     1       5.866  32.856  57.482  1.00  0.00     0.280 HD
HETATM   34  C   UNL     1       4.814  32.013  59.050  1.00  0.00     0.262 C 
HETATM   35  C   UNL     1       3.465  32.175  59.796  1.00  0.00     0.260 C 
HETATM   36  N   UNL     1       3.146  33.627  60.031  1.00  0.00    -0.072 N 
HETATM   37  H   UNL     1       3.777  34.048  60.732  1.00  0.00     0.277 HD
HETATM   38  H   UNL     1       2.208  33.697  60.464  1.00  0.00     0.277 HD
HETATM   39  C   UNL     1       3.128  34.446  58.760  1.00  0.00     0.260 C 
HETATM   40  C   UNL     1       4.465  34.299  57.988  1.00  0.00     0.262 C 
ENDBRANCH  31  32
ENDBRANCH  30  31
ENDBRANCH   3  30
TORSDOF 10
ENDMDL
MODEL 3
REMARK VINA RESULT:      -8.2      1.523      2.030
REMARK  10 active torsions:
REMARK  status: ('A' for Active; 'I' for Inactive)
REMARK    1  A    between atoms: C_2  and  O_3 
REMARK    2  A    between atoms: O_3  and  C_4 
REMARK    3  A    between atoms: C_7  and  C_8 
REMARK    4  A    between atoms: C_8  and  C_9 
REMARK    5  A    between atoms: C_10  and  C_11 
REMARK    6  A    between atoms: C_13  and  N_14 
REMARK    7  A    between atoms: N_20  and  C_21 
REMARK    8  A    between atoms: C_21  and  C_22 
REMARK    9  A    between atoms: C_22  and  N_23 
REMARK   10  A    between atoms: C_34  and  O_35 
ROOT
HETATM    1  C   UNL     1       4.507  29.105  54.715  1.00  0.00     0.059 C 
HETATM    2  C   UNL     1       4.765  28.891  56.174  1.00  0.00     0.161 C 
HETATM    3  N   UNL     1       4.670  30.261  56.677  1.00  0.00    -0.332 N 
HETATM    4  C   UNL     1       4.615  31.171  55.642  1.00  0.00     0.278 C 
HETATM    5  O   UNL     1       4.653  32.382  55.776  1.00  0.00    -0.265 OA
HETATM    6  C   UNL     1       4.444  30.408  54.394  1.00  0.00     0.146 C 
ENDROOT
BRANCH   1   7
HETATM    7  C   UNL     1       4.385  28.089  53.651  1.00  0.00     0.193 C 
HETATM    8  O   UNL     1       3.426  28.147  52.883  1.00  0.00    -0.287 OA
BRANCH   7   9
HETATM    9  C   UNL     1       5.412  27.044  53.451  1.00  0.00     0.015 A 
HETATM   10  C   UNL     1       6.763  27.331  53.234  1.00  0.00     0.018 A 
HETATM   11  C   UNL     1       7.690  26.288  53.081  1.00  0.00     0.038 A 
HETATM   12  C   UNL     1       7.281  24.959  53.195  1.00  0.00     0.069 A 
HETATM   13  C   UNL     1       5.934  24.682  53.435  1.00  0.00     0.038 A 
HETATM   14  C   UNL     1       5.002  25.713  53.567  1.00  0.00     0.018 A 
BRANCH  12  15
HETATM   15  O   UNL     1       8.066  23.849  53.115  1.00  0.00    -0.347 OA
BRANCH  15  16
HETATM   16  C   UNL     1       7.885  22.763  54.027  1.00  0.00     0.120 C 
HETATM   17  C   UNL     1       8.805  22.973  55.225  1.00  0.00     0.040 C 
HETATM   18  C   UNL     1       8.259  21.484  53.282  1.00  0.00     0.040 C 
ENDBRANCH  15  16
ENDBRANCH  12  15
ENDBRANCH   7   9
ENDBRANCH   1   7
BRANCH   2  19
HETATM   19  C   UNL     1       6.099  28.251  56.510  1.00  0.00    -0.028 A 
HETATM   20  C   UNL     1       7.276  29.005  56.368  1.00  0.00     0.045 A 
HETATM   21  C   UNL     1       8.528  28.435  56.659  1.00  0.00     0.103 A 
HETATM   22  C   UNL     1       8.624  27.115  57.104  1.00  0.00     0.036 A 
HETATM   23  C   UNL     1       7.460  26.360  57.245  1.00  0.00     0.003 A 
HETATM   24  C   UNL     1       6.212  26.917  56.941  1.00  0.00     0.010 A 
BRANCH  21  25
HETATM   25  N   UNL     1       9.745  29.231  56.454  1.00  0.00    -0.116 N 
HETATM   26  O   UNL     1      10.455  29.436  57.450  1.00  0.00    -0.532 OA
HETATM   27  O   UNL     1       9.963  29.675  55.322  1.00  0.00    -0.532 OA
ENDBRANCH  21  25
ENDBRANCH   2  19
BRANCH   6  28
HETATM   28  O   UNL     1       4.260  30.993  53.177  1.00  0.00    -0.355 OA
HETATM   29  H   UNL     1       3.288  31.058  53.021  1.00  0.00     0.218 HD
ENDBRANCH   6  28
BRANCH   3  30
HETATM   30  C   UNL     1       4.833  30.633  58.077  1.00  0.00     0.155 C 
BRANCH  30  31
HETATM   31  C   UNL     1       3.604  31.387  58.662  1.00  0.00     0.254 C 
BRANCH  31  32
HETATM   32  N   UNL     1       3.857  32.886  58.886  1.00  0.00    -0.066 N 
HETATM   33  H   UNL     1       3.663  33.323  57.970  1.00  0.00     0.280 HD
HETATM   34  C   UNL     1       5.328  33.203  59.191  1.00  0.00     0.262 C 
HETATM   35  C   UNL     1       5.695  32.945  60.674  1.00  0.00     0.260 C 
HETATM   36  N   UNL     1       4.757  33.674  61.600  1.00  0.00    -0.072 N 
HETATM   37  H   UNL     1       4.904  34.695  61.565  1.00  0.00     0.277 HD
HETATM   38  H   UNL     1       4.987  33.420  62.577  1.00  0.00     0.277 HD
HETATM   39  C   UNL     1       3.304  33.329  61.365  1.00  0.00     0.260 C 
HETATM   40  C   UNL     1       2.908  33.572  59.885  1.00  0.00     0.262 C 
ENDBRANCH  31  32
ENDBRANCH  30  31
ENDBRANCH   3  30
TORSDOF 10
ENDMDL
MODEL 4
REMARK VINA RESULT:      -8.1      2.376      7.138
REMARK  10 active torsions:
REMARK  status: ('A' for Active; 'I' for Inactive)
REMARK    1  A    between atoms: C_2  and  O_3 
REMARK    2  A    between atoms: O_3  and  C_4 
REMARK    3  A    between atoms: C_7  and  C_8 
REMARK    4  A    between atoms: C_8  and  C_9 
REMARK    5  A    between atoms: C_10  and  C_11 
REMARK    6  A    between atoms: C_13  and  N_14 
REMARK    7  A    between atoms: N_20  and  C_21 
REMARK    8  A    between atoms: C_21  and  C_22 
REMARK    9  A    between atoms: C_22  and  N_23 
REMARK   10  A    between atoms: C_34  and  O_35 
ROOT
HETATM    1  C   UNL     1       5.044  28.530  53.646  1.00  0.00     0.059 C 
HETATM    2  C   UNL     1       6.490  28.166  53.778  1.00  0.00     0.161 C 
HETATM    3  N   UNL     1       6.480  26.799  53.256  1.00  0.00    -0.332 N 
HETATM    4  C   UNL     1       5.191  26.340  53.079  1.00  0.00     0.278 C 
HETATM    5  O   UNL     1       4.893  25.199  52.771  1.00  0.00    -0.265 OA
HETATM    6  C   UNL     1       4.286  27.487  53.271  1.00  0.00     0.146 C 
ENDROOT
BRANCH   1   7
HETATM    7  C   UNL     1       4.401  29.828  53.932  1.00  0.00     0.193 C 
HETATM    8  O   UNL     1       3.759  30.380  53.040  1.00  0.00    -0.287 OA
BRANCH   7   9
HETATM    9  C   UNL     1       4.461  30.450  55.272  1.00  0.00     0.015 A 
HETATM   10  C   UNL     1       5.093  31.671  55.521  1.00  0.00     0.018 A 
HETATM   11  C   UNL     1       5.087  32.219  56.814  1.00  0.00     0.038 A 
HETATM   12  C   UNL     1       4.407  31.577  57.848  1.00  0.00     0.069 A 
HETATM   13  C   UNL     1       3.758  30.368  57.585  1.00  0.00     0.038 A 
HETATM   14  C   UNL     1       3.778  29.806  56.308  1.00  0.00     0.018 A 
BRANCH  12  15
HETATM   15  O   UNL     1       4.275  32.004  59.134  1.00  0.00    -0.347 OA
BRANCH  15  16
HETATM   16  C   UNL     1       5.132  33.025  59.653  1.00  0.00     0.120 C 
HETATM   17  C   UNL     1       6.263  32.363  60.433  1.00  0.00     0.040 C 
HETATM   18  C   UNL     1       4.284  33.897  60.575  1.00  0.00     0.040 C 
ENDBRANCH  15  16
ENDBRANCH  12  15
ENDBRANCH   7   9
ENDBRANCH   1   7
BRANCH   2  19
HETATM   19  C   UNL     1       7.051  28.234  55.186  1.00  0.00    -0.028 A 
HETATM   20  C   UNL     1       8.177  29.035  55.438  1.00  0.00     0.045 A 
HETATM   21  C   UNL     1       8.727  29.108  56.729  1.00  0.00     0.103 A 
HETATM   22  C   UNL     1       8.160  28.394  57.787  1.00  0.00     0.036 A 
HETATM   23  C   UNL     1       7.043  27.595  57.544  1.00  0.00     0.003 A 
HETATM   24  C   UNL     1       6.500  27.506  56.257  1.00  0.00     0.010 A 
BRANCH  21  25
HETATM   25  N   UNL     1       9.935  29.914  56.952  1.00  0.00    -0.116 N 
HETATM   26  O   UNL     1      10.609  30.201  55.952  1.00  0.00    -0.532 OA
HETATM   27  O   UNL     1      10.221  30.218  58.115  1.00  0.00    -0.532 OA
ENDBRANCH  21  25
ENDBRANCH   2  19
BRANCH   6  28
HETATM   28  O   UNL     1       2.938  27.418  53.080  1.00  0.00    -0.355 OA
HETATM   29  H   UNL     1       2.711  26.475  52.900  1.00  0.00     0.218 HD
ENDBRANCH   6  28
BRANCH   3  30
HETATM   30  C   UNL     1       7.663  25.956  53.146  1.00  0.00     0.155 C 
BRANCH  30  31
HETATM   31  C   UNL     1       7.908  25.068  54.400  1.00  0.00     0.254 C 
BRANCH  31  32
HETATM   32  N   UNL     1       7.188  23.712  54.338  1.00  0.00    -0.066 N 
HETATM   33  H   UNL     1       6.203  23.948  54.129  1.00  0.00     0.280 HD
HETATM   34  C   UNL     1       7.160  22.988  55.692  1.00  0.00     0.262 C 
HETATM   35  C   UNL     1       8.484  22.243  55.993  1.00  0.00     0.260 C 
HETATM   36  N   UNL     1       8.854  21.316  54.866  1.00  0.00    -0.072 N 
HETATM   37  H   UNL     1       8.214  20.508  54.812  1.00  0.00     0.277 HD
HETATM   38  H   UNL     1       9.777  20.893  55.070  1.00  0.00     0.277 HD
HETATM   39  C   UNL     1       8.953  22.016  53.529  1.00  0.00     0.260 C 
HETATM   40  C   UNL     1       7.642  22.777  53.202  1.00  0.00     0.262 C 
ENDBRANCH  31  32
ENDBRANCH  30  31
ENDBRANCH   3  30
TORSDOF 10
ENDMDL
MODEL 5
REMARK VINA RESULT:      -8.0      1.588      2.235
REMARK  10 active torsions:
REMARK  status: ('A' for Active; 'I' for Inactive)
REMARK    1  A    between atoms: C_2  and  O_3 
REMARK    2  A    between atoms: O_3  and  C_4 
REMARK    3  A    between atoms: C_7  and  C_8 
REMARK    4  A    between atoms: C_8  and  C_9 
REMARK    5  A    between atoms: C_10  and  C_11 
REMARK    6  A    between atoms: C_13  and  N_14 
REMARK    7  A    between atoms: N_20  and  C_21 
REMARK    8  A    between atoms: C_21  and  C_22 
REMARK    9  A    between atoms: C_22  and  N_23 
REMARK   10  A    between atoms: C_34  and  O_35 
ROOT
HETATM    1  C   UNL     1       4.506  28.668  53.587  1.00  0.00     0.059 C 
HETATM    2  C   UNL     1       4.348  28.345  55.039  1.00  0.00     0.161 C 
HETATM    3  N   UNL     1       3.924  29.642  55.567  1.00  0.00    -0.332 N 
HETATM    4  C   UNL     1       4.054  30.635  54.619  1.00  0.00     0.278 C 
HETATM    5  O   UNL     1       3.886  31.824  54.827  1.00  0.00    -0.265 OA
HETATM    6  C   UNL     1       4.365  29.980  53.336  1.00  0.00     0.146 C 
ENDROOT
BRANCH   1   7
HETATM    7  C   UNL     1       4.843  27.751  52.480  1.00  0.00     0.193 C 
HETATM    8  O   UNL     1       4.478  28.037  51.341  1.00  0.00    -0.287 OA
BRANCH   7   9
HETATM    9  C   UNL     1       5.655  26.533  52.696  1.00  0.00     0.015 A 
HETATM   10  C   UNL     1       5.097  25.283  52.976  1.00  0.00     0.018 A 
HETATM   11  C   UNL     1       5.926  24.161  53.141  1.00  0.00     0.038 A 
HETATM   12  C   UNL     1       7.306  24.275  52.976  1.00  0.00     0.069 A 
HETATM   13  C   UNL     1       7.853  25.524  52.673  1.00  0.00     0.038 A 
HETATM   14  C   UNL     1       7.038  26.648  52.529  1.00  0.00     0.018 A 
BRANCH  12  15
HETATM   15  O   UNL     1       8.228  23.276  53.060  1.00  0.00    -0.347 OA
BRANCH  15  16
HETATM   16  C   UNL     1       8.023  22.169  53.942  1.00  0.00     0.120 C 
HETATM   17  C   UNL     1       9.162  22.136  54.955  1.00  0.00     0.040 C 
HETATM   18  C   UNL     1       8.031  20.906  53.085  1.00  0.00     0.040 C 
ENDBRANCH  15  16
ENDBRANCH  12  15
ENDBRANCH   7   9
ENDBRANCH   1   7
BRANCH   2  19
HETATM   19  C   UNL     1       5.597  27.830  55.730  1.00  0.00    -0.028 A 
HETATM   20  C   UNL     1       6.774  28.596  55.680  1.00  0.00     0.045 A 
HETATM   21  C   UNL     1       7.950  28.138  56.298  1.00  0.00     0.103 A 
HETATM   22  C   UNL     1       7.969  26.920  56.982  1.00  0.00     0.036 A 
HETATM   23  C   UNL     1       6.805  26.154  57.035  1.00  0.00     0.003 A 
HETATM   24  C   UNL     1       5.635  26.597  56.407  1.00  0.00     0.010 A 
BRANCH  21  25
HETATM   25  N   UNL     1       9.179  28.935  56.187  1.00  0.00    -0.116 N 
HETATM   26  O   UNL     1       9.431  29.423  55.075  1.00  0.00    -0.532 OA
HETATM   27  O   UNL     1       9.896  29.036  57.187  1.00  0.00    -0.532 OA
ENDBRANCH  21  25
ENDBRANCH   2  19
BRANCH   6  28
HETATM   28  O   UNL     1       4.471  30.654  52.157  1.00  0.00    -0.355 OA
HETATM   29  H   UNL     1       3.650  31.189  52.044  1.00  0.00     0.218 HD
ENDBRANCH   6  28
BRANCH   3  30
HETATM   30  C   UNL     1       3.614  29.895  56.969  1.00  0.00     0.155 C 
BRANCH  30  31
HETATM   31  C   UNL     1       4.824  30.445  57.778  1.00  0.00     0.254 C 
BRANCH  31  32
HETATM   32  N   UNL     1       4.767  31.964  58.003  1.00  0.00    -0.066 N 
HETATM   33  H   UNL     1       4.725  32.368  57.052  1.00  0.00     0.280 HD
HETATM   34  C   UNL     1       6.052  32.523  58.631  1.00  0.00     0.262 C 
HETATM   35  C   UNL     1       6.096  32.323  60.167  1.00  0.00     0.260 C 
HETATM   36  N   UNL     1       4.860  32.879  60.823  1.00  0.00    -0.072 N 
HETATM   37  H   UNL     1       4.841  33.910  60.788  1.00  0.00     0.277 HD
HETATM   38  H   UNL     1       4.892  32.662  61.835  1.00  0.00     0.277 HD
HETATM   39  C   UNL     1       3.580  32.296  60.268  1.00  0.00     0.260 C 
HETATM   40  C   UNL     1       3.509  32.476  58.729  1.00  0.00     0.262 C 
ENDBRANCH  31  32
ENDBRANCH  30  31
ENDBRANCH   3  30
TORSDOF 10
ENDMDL
MODEL 6
REMARK VINA RESULT:      -7.9      2.406      4.518
REMARK  10 active torsions:
REMARK  status: ('A' for Active; 'I' for Inactive)
REMARK    1  A    between atoms: C_2  and  O_3 
REMARK    2  A    between atoms: O_3  and  C_4 
REMARK    3  A    between atoms: C_7  and  C_8 
REMARK    4  A    between atoms: C_8  and  C_9 
REMARK    5  A    between atoms: C_10  and  C_11 
REMARK    6  A    between atoms: C_13  and  N_14 
REMARK    7  A    between atoms: N_20  and  C_21 
REMARK    8  A    between atoms: C_21  and  C_22 
REMARK    9  A    between atoms: C_22  and  N_23 
REMARK   10  A    between atoms: C_34  and  O_35 
ROOT
HETATM    1  C   UNL     1       5.151  27.751  55.943  1.00  0.00     0.059 C 
HETATM    2  C   UNL     1       5.492  29.099  56.496  1.00  0.00     0.161 C 
HETATM    3  N   UNL     1       4.976  29.970  55.440  1.00  0.00    -0.332 N 
HETATM    4  C   UNL     1       4.615  29.244  54.324  1.00  0.00     0.278 C 
HETATM    5  O   UNL     1       4.269  29.727  53.260  1.00  0.00    -0.265 OA
HETATM    6  C   UNL     1       4.672  27.818  54.690  1.00  0.00     0.146 C 
ENDROOT
BRANCH   1   7
HETATM    7  C   UNL     1       5.339  26.431  56.577  1.00  0.00     0.193 C 
HETATM    8  O   UNL     1       4.571  26.091  57.476  1.00  0.00    -0.287 OA
BRANCH   7   9
HETATM    9  C   UNL     1       6.384  25.489  56.122  1.00  0.00     0.015 A 
HETATM   10  C   UNL     1       7.644  25.398  56.720  1.00  0.00     0.018 A 
HETATM   11  C   UNL     1       8.579  24.459  56.256  1.00  0.00     0.038 A 
HETATM   12  C   UNL     1       8.241  23.575  55.232  1.00  0.00     0.069 A 
HETATM   13  C   UNL     1       6.971  23.656  54.656  1.00  0.00     0.038 A 
HETATM   14  C   UNL     1       6.044  24.602  55.097  1.00  0.00     0.018 A 
BRANCH  12  15
HETATM   15  O   UNL     1       9.021  22.588  54.709  1.00  0.00    -0.347 OA
BRANCH  15  16
HETATM   16  C   UNL     1       8.553  21.237  54.668  1.00  0.00     0.120 C 
HETATM   17  C   UNL     1       9.272  20.438  55.749  1.00  0.00     0.040 C 
HETATM   18  C   UNL     1       8.888  20.689  53.283  1.00  0.00     0.040 C 
ENDBRANCH  15  16
ENDBRANCH  12  15
ENDBRANCH   7   9
ENDBRANCH   1   7
BRANCH   2  19
HETATM   19  C   UNL     1       6.966  29.338  56.762  1.00  0.00    -0.028 A 
HETATM   20  C   UNL     1       7.349  30.054  57.909  1.00  0.00     0.045 A 
HETATM   21  C   UNL     1       8.706  30.302  58.176  1.00  0.00     0.103 A 
HETATM   22  C   UNL     1       9.700  29.835  57.312  1.00  0.00     0.036 A 
HETATM   23  C   UNL     1       9.327  29.125  56.171  1.00  0.00     0.003 A 
HETATM   24  C   UNL     1       7.976  28.888  55.892  1.00  0.00     0.010 A 
BRANCH  21  25
HETATM   25  N   UNL     1       9.074  31.096  59.355  1.00  0.00    -0.116 N 
HETATM   26  O   UNL     1       9.109  30.501  60.443  1.00  0.00    -0.532 OA
HETATM   27  O   UNL     1       9.284  32.304  59.199  1.00  0.00    -0.532 OA
ENDBRANCH  21  25
ENDBRANCH   2  19
BRANCH   6  28
HETATM   28  O   UNL     1       4.288  26.814  53.852  1.00  0.00    -0.355 OA
HETATM   29  H   UNL     1       3.790  26.152  54.389  1.00  0.00     0.218 HD
ENDBRANCH   6  28
BRANCH   3  30
HETATM   30  C   UNL     1       5.039  31.426  55.475  1.00  0.00     0.155 C 
BRANCH  30  31
HETATM   31  C   UNL     1       3.718  32.090  55.958  1.00  0.00     0.254 C 
BRANCH  31  32
HETATM   32  N   UNL     1       3.341  33.350  55.163  1.00  0.00    -0.066 N 
HETATM   33  H   UNL     1       4.025  34.064  55.466  1.00  0.00     0.280 HD
HETATM   34  C   UNL     1       1.964  33.909  55.547  1.00  0.00     0.262 C 
HETATM   35  C   UNL     1       0.803  33.154  54.852  1.00  0.00     0.260 C 
HETATM   36  N   UNL     1       0.999  33.113  53.359  1.00  0.00    -0.072 N 
HETATM   37  H   UNL     1       0.874  34.044  52.933  1.00  0.00     0.277 HD
HETATM   38  H   UNL     1       0.246  32.540  52.938  1.00  0.00     0.277 HD
HETATM   39  C   UNL     1       2.322  32.506  52.950  1.00  0.00     0.260 C 
HETATM   40  C   UNL     1       3.505  33.238  53.636  1.00  0.00     0.262 C 
ENDBRANCH  31  32
ENDBRANCH  30  31
ENDBRANCH   3  30
TORSDOF 10
ENDMDL
MODEL 7
REMARK VINA RESULT:      -7.8      3.059      4.830
REMARK  10 active torsions:
REMARK  status: ('A' for Active; 'I' for Inactive)
REMARK    1  A    between atoms: C_2  and  O_3 
REMARK    2  A    between atoms: O_3  and  C_4 
REMARK    3  A    between atoms: C_7  and  C_8 
REMARK    4  A    between atoms: C_8  and  C_9 
REMARK    5  A    between atoms: C_10  and  C_11 
REMARK    6  A    between atoms: C_13  and  N_14 
REMARK    7  A    between atoms: N_20  and  C_21 
REMARK    8  A    between atoms: C_21  and  C_22 
REMARK    9  A    between atoms: C_22  and  N_23 
REMARK   10  A    between atoms: C_34  and  O_35 
ROOT
HETATM    1  C   UNL     1       5.033  26.834  51.709  1.00  0.00     0.059 C 
HETATM    2  C   UNL     1       4.843  27.942  52.697  1.00  0.00     0.161 C 
HETATM    3  N   UNL     1       4.744  29.096  51.804  1.00  0.00    -0.332 N 
HETATM    4  C   UNL     1       5.075  28.756  50.509  1.00  0.00     0.278 C 
HETATM    5  O   UNL     1       5.192  29.547  49.589  1.00  0.00    -0.265 OA
HETATM    6  C   UNL     1       5.193  27.289  50.456  1.00  0.00     0.146 C 
ENDROOT
BRANCH   1   7
HETATM    7  C   UNL     1       5.121  25.384  51.971  1.00  0.00     0.193 C 
HETATM    8  O   UNL     1       4.364  24.626  51.367  1.00  0.00    -0.287 OA
BRANCH   7   9
HETATM    9  C   UNL     1       6.130  24.817  52.892  1.00  0.00     0.015 A 
HETATM   10  C   UNL     1       5.892  24.613  54.255  1.00  0.00     0.018 A 
HETATM   11  C   UNL     1       6.884  24.043  55.067  1.00  0.00     0.038 A 
HETATM   12  C   UNL     1       8.095  23.628  54.514  1.00  0.00     0.069 A 
HETATM   13  C   UNL     1       8.316  23.814  53.147  1.00  0.00     0.038 A 
HETATM   14  C   UNL     1       7.342  24.400  52.337  1.00  0.00     0.018 A 
BRANCH  12  15
HETATM   15  O   UNL     1       9.129  23.022  55.161  1.00  0.00    -0.347 OA
BRANCH  15  16
HETATM   16  C   UNL     1       9.117  21.611  55.391  1.00  0.00     0.120 C 
HETATM   17  C   UNL     1       8.314  20.942  54.281  1.00  0.00     0.040 C 
HETATM   18  C   UNL     1       8.451  21.384  56.746  1.00  0.00     0.040 C 
ENDBRANCH  15  16
ENDBRANCH  12  15
ENDBRANCH   7   9
ENDBRANCH   1   7
BRANCH   2  19
HETATM   19  C   UNL     1       5.957  28.103  53.715  1.00  0.00    -0.028 A 
HETATM   20  C   UNL     1       5.630  28.405  55.048  1.00  0.00     0.045 A 
HETATM   21  C   UNL     1       6.641  28.574  56.010  1.00  0.00     0.103 A 
HETATM   22  C   UNL     1       7.987  28.434  55.662  1.00  0.00     0.036 A 
HETATM   23  C   UNL     1       8.318  28.137  54.341  1.00  0.00     0.003 A 
HETATM   24  C   UNL     1       7.317  27.984  53.375  1.00  0.00     0.010 A 
BRANCH  21  25
HETATM   25  N   UNL     1       6.272  28.938  57.384  1.00  0.00    -0.116 N 
HETATM   26  O   UNL     1       5.061  29.034  57.632  1.00  0.00    -0.532 OA
HETATM   27  O   UNL     1       7.183  29.162  58.188  1.00  0.00    -0.532 OA
ENDBRANCH  21  25
ENDBRANCH   2  19
BRANCH   6  28
HETATM   28  O   UNL     1       5.422  26.596  49.304  1.00  0.00    -0.355 OA
HETATM   29  H   UNL     1       4.571  26.175  49.036  1.00  0.00     0.218 HD
ENDBRANCH   6  28
BRANCH   3  30
HETATM   30  C   UNL     1       4.537  30.466  52.255  1.00  0.00     0.155 C 
BRANCH  30  31
HETATM   31  C   UNL     1       3.325  30.623  53.218  1.00  0.00     0.254 C 
BRANCH  31  32
HETATM   32  N   UNL     1       3.666  31.379  54.511  1.00  0.00    -0.066 N 
HETATM   33  H   UNL     1       4.300  30.745  55.025  1.00  0.00     0.280 HD
HETATM   34  C   UNL     1       2.449  31.575  55.427  1.00  0.00     0.262 C 
HETATM   35  C   UNL     1       1.565  32.771  54.990  1.00  0.00     0.260 C 
HETATM   36  N   UNL     1       2.381  34.030  54.859  1.00  0.00    -0.072 N 
HETATM   37  H   UNL     1       2.694  34.378  55.779  1.00  0.00     0.277 HD
HETATM   38  H   UNL     1       1.774  34.786  54.497  1.00  0.00     0.277 HD
HETATM   39  C   UNL     1       3.550  33.884  53.911  1.00  0.00     0.260 C 
HETATM   40  C   UNL     1       4.451  32.690  54.320  1.00  0.00     0.262 C 
ENDBRANCH  31  32
ENDBRANCH  30  31
ENDBRANCH   3  30
TORSDOF 10
ENDMDL
MODEL 8
REMARK VINA RESULT:      -7.6      3.752      6.717
REMARK  10 active torsions:
REMARK  status: ('A' for Active; 'I' for Inactive)
REMARK    1  A    between atoms: C_2  and  O_3 
REMARK    2  A    between atoms: O_3  and  C_4 
REMARK    3  A    between atoms: C_7  and  C_8 
REMARK    4  A    between atoms: C_8  and  C_9 
REMARK    5  A    between atoms: C_10  and  C_11 
REMARK    6  A    between atoms: C_13  and  N_14 
REMARK    7  A    between atoms: N_20  and  C_21 
REMARK    8  A    between atoms: C_21  and  C_22 
REMARK    9  A    between atoms: C_22  and  N_23 
REMARK   10  A    between atoms: C_34  and  O_35 
ROOT
HETATM    1  C   UNL     1       6.828  32.269  60.726  1.00  0.00     0.059 C 
HETATM    2  C   UNL     1       5.604  33.076  60.426  1.00  0.00     0.161 C 
HETATM    3  N   UNL     1       4.793  32.801  61.612  1.00  0.00    -0.332 N 
HETATM    4  C   UNL     1       5.345  31.792  62.373  1.00  0.00     0.278 C 
HETATM    5  O   UNL     1       4.817  31.283  63.346  1.00  0.00    -0.265 OA
HETATM    6  C   UNL     1       6.683  31.509  61.824  1.00  0.00     0.146 C 
ENDROOT
BRANCH   1   7
HETATM    7  C   UNL     1       8.078  32.183  59.945  1.00  0.00     0.193 C 
HETATM    8  O   UNL     1       8.950  33.031  60.127  1.00  0.00    -0.287 OA
BRANCH   7   9
HETATM    9  C   UNL     1       8.330  31.077  58.996  1.00  0.00     0.015 A 
HETATM   10  C   UNL     1       9.601  30.765  58.506  1.00  0.00     0.018 A 
HETATM   11  C   UNL     1       9.774  29.682  57.630  1.00  0.00     0.038 A 
HETATM   12  C   UNL     1       8.689  28.877  57.282  1.00  0.00     0.069 A 
HETATM   13  C   UNL     1       7.426  29.182  57.795  1.00  0.00     0.038 A 
HETATM   14  C   UNL     1       7.243  30.270  58.649  1.00  0.00     0.018 A 
BRANCH  12  15
HETATM   15  O   UNL     1       8.708  27.774  56.484  1.00  0.00    -0.347 OA
BRANCH  15  16
HETATM   16  C   UNL     1       7.716  26.753  56.630  1.00  0.00     0.120 C 
HETATM   17  C   UNL     1       8.340  25.566  57.355  1.00  0.00     0.040 C 
HETATM   18  C   UNL     1       7.276  26.352  55.224  1.00  0.00     0.040 C 
ENDBRANCH  15  16
ENDBRANCH  12  15
ENDBRANCH   7   9
ENDBRANCH   1   7
BRANCH   2  19
HETATM   19  C   UNL     1       4.881  32.707  59.143  1.00  0.00    -0.028 A 
HETATM   20  C   UNL     1       4.979  33.561  58.032  1.00  0.00     0.045 A 
HETATM   21  C   UNL     1       4.310  33.253  56.835  1.00  0.00     0.103 A 
HETATM   22  C   UNL     1       3.544  32.090  56.724  1.00  0.00     0.036 A 
HETATM   23  C   UNL     1       3.441  31.239  57.825  1.00  0.00     0.003 A 
HETATM   24  C   UNL     1       4.092  31.549  59.025  1.00  0.00     0.010 A 
BRANCH  21  25
HETATM   25  N   UNL     1       4.390  34.189  55.705  1.00  0.00    -0.116 N 
HETATM   26  O   UNL     1       5.437  34.843  55.593  1.00  0.00    -0.532 OA
HETATM   27  O   UNL     1       3.403  34.293  54.969  1.00  0.00    -0.532 OA
ENDBRANCH  21  25
ENDBRANCH   2  19
BRANCH   6  28
HETATM   28  O   UNL     1       7.554  30.627  62.390  1.00  0.00    -0.355 OA
HETATM   29  H   UNL     1       7.196  30.379  63.275  1.00  0.00     0.218 HD
ENDBRANCH   6  28
BRANCH   3  30
HETATM   30  C   UNL     1       3.468  33.360  61.847  1.00  0.00     0.155 C 
BRANCH  30  31
HETATM   31  C   UNL     1       3.444  34.444  62.964  1.00  0.00     0.254 C 
BRANCH  31  32
HETATM   32  N   UNL     1       4.759  34.532  63.755  1.00  0.00    -0.066 N 
HETATM   33  H   UNL     1       5.339  33.762  63.385  1.00  0.00     0.280 HD
HETATM   34  C   UNL     1       4.577  34.230  65.249  1.00  0.00     0.262 C 
HETATM   35  C   UNL     1       4.047  35.452  66.041  1.00  0.00     0.260 C 
HETATM   36  N   UNL     1       4.911  36.664  65.812  1.00  0.00    -0.072 N 
HETATM   37  H   UNL     1       5.836  36.562  66.258  1.00  0.00     0.277 HD
HETATM   38  H   UNL     1       4.486  37.474  66.296  1.00  0.00     0.277 HD
HETATM   39  C   UNL     1       5.054  37.024  64.350  1.00  0.00     0.260 C 
HETATM   40  C   UNL     1       5.578  35.817  63.530  1.00  0.00     0.262 C 
ENDBRANCH  31  32
ENDBRANCH  30  31
ENDBRANCH   3  30
TORSDOF 10
ENDMDL
MODEL 9
REMARK VINA RESULT:      -7.6      5.766      9.745
REMARK  10 active torsions:
REMARK  status: ('A' for Active; 'I' for Inactive)
REMARK    1  A    between atoms: C_2  and  O_3 
REMARK    2  A    between atoms: O_3  and  C_4 
REMARK    3  A    between atoms: C_7  and  C_8 
REMARK    4  A    between atoms: C_8  and  C_9 
REMARK    5  A    between atoms: C_10  and  C_11 
REMARK    6  A    between atoms: C_13  and  N_14 
REMARK    7  A    between atoms: N_20  and  C_21 
REMARK    8  A    between atoms: C_21  and  C_22 
REMARK    9  A    between atoms: C_22  and  N_23 
REMARK   10  A    between atoms: C_34  and  O_35 
ROOT
HETATM    1  C   UNL     1       5.045  33.987  63.243  1.00  0.00     0.059 C 
HETATM    2  C   UNL     1       4.976  35.236  62.421  1.00  0.00     0.161 C 
HETATM    3  N   UNL     1       4.593  36.216  63.437  1.00  0.00    -0.332 N 
HETATM    4  C   UNL     1       4.244  35.600  64.620  1.00  0.00     0.278 C 
HETATM    5  O   UNL     1       3.772  36.169  65.590  1.00  0.00    -0.265 OA
HETATM    6  C   UNL     1       4.604  34.177  64.498  1.00  0.00     0.146 C 
ENDROOT
BRANCH   1   7
HETATM    7  C   UNL     1       5.463  32.637  62.818  1.00  0.00     0.193 C 
HETATM    8  O   UNL     1       4.920  31.660  63.331  1.00  0.00    -0.287 OA
BRANCH   7   9
HETATM    9  C   UNL     1       6.470  32.431  61.755  1.00  0.00     0.015 A 
HETATM   10  C   UNL     1       7.844  32.369  62.006  1.00  0.00     0.018 A 
HETATM   11  C   UNL     1       8.744  32.141  60.953  1.00  0.00     0.038 A 
HETATM   12  C   UNL     1       8.273  31.924  59.658  1.00  0.00     0.069 A 
HETATM   13  C   UNL     1       6.897  31.964  59.420  1.00  0.00     0.038 A 
HETATM   14  C   UNL     1       5.997  32.212  60.458  1.00  0.00     0.018 A 
BRANCH  12  15
HETATM   15  O   UNL     1       9.016  31.648  58.550  1.00  0.00    -0.347 OA
BRANCH  15  16
HETATM   16  C   UNL     1       9.679  30.389  58.413  1.00  0.00     0.120 C 
HETATM   17  C   UNL     1      10.849  30.555  57.450  1.00  0.00     0.040 C 
HETATM   18  C   UNL     1       8.658  29.403  57.851  1.00  0.00     0.040 C 
ENDBRANCH  15  16
ENDBRANCH  12  15
ENDBRANCH   7   9
ENDBRANCH   1   7
BRANCH   2  19
HETATM   19  C   UNL     1       3.994  35.200  61.265  1.00  0.00    -0.028 A 
HETATM   20  C   UNL     1       2.620  35.089  61.535  1.00  0.00     0.045 A 
HETATM   21  C   UNL     1       1.688  35.039  60.484  1.00  0.00     0.103 A 
HETATM   22  C   UNL     1       2.108  35.110  59.154  1.00  0.00     0.036 A 
HETATM   23  C   UNL     1       3.471  35.218  58.879  1.00  0.00     0.003 A 
HETATM   24  C   UNL     1       4.405  35.252  59.921  1.00  0.00     0.010 A 
BRANCH  21  25
HETATM   25  N   UNL     1       0.262  34.872  60.795  1.00  0.00    -0.116 N 
HETATM   26  O   UNL     1      -0.033  34.675  61.983  1.00  0.00    -0.532 OA
HETATM   27  O   UNL     1      -0.542  34.899  59.858  1.00  0.00    -0.532 OA
ENDBRANCH  21  25
ENDBRANCH   2  19
BRANCH   6  28
HETATM   28  O   UNL     1       4.482  33.282  65.519  1.00  0.00    -0.355 OA
HETATM   29  H   UNL     1       5.248  32.662  65.465  1.00  0.00     0.218 HD
ENDBRANCH   6  28
BRANCH   3  30
HETATM   30  C   UNL     1       4.394  37.636  63.172  1.00  0.00     0.155 C 
BRANCH  30  31
HETATM   31  C   UNL     1       5.475  38.246  62.234  1.00  0.00     0.254 C 
BRANCH  31  32
HETATM   32  N   UNL     1       4.992  39.494  61.478  1.00  0.00    -0.066 N 
HETATM   33  H   UNL     1       5.210  40.283  62.110  1.00  0.00     0.280 HD
HETATM   34  C   UNL     1       3.468  39.526  61.289  1.00  0.00     0.262 C 
HETATM   35  C   UNL     1       3.000  38.654  60.098  1.00  0.00     0.260 C 
HETATM   36  N   UNL     1       3.733  39.022  58.835  1.00  0.00    -0.072 N 
HETATM   37  H   UNL     1       3.447  39.951  58.486  1.00  0.00     0.277 HD
HETATM   38  H   UNL     1       3.448  38.373  58.081  1.00  0.00     0.277 HD
HETATM   39  C   UNL     1       5.236  38.936  58.973  1.00  0.00     0.260 C 
HETATM   40  C   UNL     1       5.734  39.796  60.163  1.00  0.00     0.262 C 
ENDBRANCH  31  32
ENDBRANCH  30  31
ENDBRANCH   3  30
TORSDOF 10
ENDMDL
MODEL 10
REMARK VINA RESULT:      -7.6      2.847      8.599
REMARK  10 active torsions:
REMARK  status: ('A' for Active; 'I' for Inactive)
REMARK    1  A    between atoms: C_2  and  O_3 
REMARK    2  A    between atoms: O_3  and  C_4 
REMARK    3  A    between atoms: C_7  and  C_8 
REMARK    4  A    between atoms: C_8  and  C_9 
REMARK    5  A    between atoms: C_10  and  C_11 
REMARK    6  A    between atoms: C_13  and  N_14 
REMARK    7  A    between atoms: N_20  and  C_21 
REMARK    8  A    between atoms: C_21  and  C_22 
REMARK    9  A    between atoms: C_22  and  N_23 
REMARK   10  A    between atoms: C_34  and  O_35 
ROOT
HETATM    1  C   UNL     1       8.207  30.371  58.053  1.00  0.00     0.059 C 
HETATM    2  C   UNL     1       6.908  29.639  57.918  1.00  0.00     0.161 C 
HETATM    3  N   UNL     1       7.239  28.677  56.868  1.00  0.00    -0.332 N 
HETATM    4  C   UNL     1       8.461  28.962  56.295  1.00  0.00     0.278 C 
HETATM    5  O   UNL     1       8.924  28.396  55.320  1.00  0.00    -0.265 OA
HETATM    6  C   UNL     1       9.096  30.011  57.113  1.00  0.00     0.146 C 
ENDROOT
BRANCH   1   7
HETATM    7  C   UNL     1       8.561  31.431  59.018  1.00  0.00     0.193 C 
HETATM    8  O   UNL     1       9.433  32.243  58.712  1.00  0.00    -0.287 OA
BRANCH   7   9
HETATM    9  C   UNL     1       7.857  31.575  60.310  1.00  0.00     0.015 A 
HETATM   10  C   UNL     1       8.258  30.917  61.477  1.00  0.00     0.018 A 
HETATM   11  C   UNL     1       7.562  31.123  62.678  1.00  0.00     0.038 A 
HETATM   12  C   UNL     1       6.498  32.024  62.731  1.00  0.00     0.069 A 
HETATM   13  C   UNL     1       6.119  32.695  61.566  1.00  0.00     0.038 A 
HETATM   14  C   UNL     1       6.793  32.479  60.362  1.00  0.00     0.018 A 
BRANCH  12  15
HETATM   15  O   UNL     1       5.760  32.360  63.825  1.00  0.00    -0.347 OA
BRANCH  15  16
HETATM   16  C   UNL     1       5.858  33.668  64.395  1.00  0.00     0.120 C 
HETATM   17  C   UNL     1       7.189  33.781  65.130  1.00  0.00     0.040 C 
HETATM   18  C   UNL     1       4.693  33.820  65.370  1.00  0.00     0.040 C 
ENDBRANCH  15  16
ENDBRANCH  12  15
ENDBRANCH   7   9
ENDBRANCH   1   7
BRANCH   2  19
HETATM   19  C   UNL     1       5.713  30.499  57.548  1.00  0.00    -0.028 A 
HETATM   20  C   UNL     1       5.777  31.303  56.397  1.00  0.00     0.045 A 
HETATM   21  C   UNL     1       4.691  32.119  56.037  1.00  0.00     0.103 A 
HETATM   22  C   UNL     1       3.527  32.139  56.809  1.00  0.00     0.036 A 
HETATM   23  C   UNL     1       3.458  31.346  57.954  1.00  0.00     0.003 A 
HETATM   24  C   UNL     1       4.542  30.543  58.326  1.00  0.00     0.010 A 
BRANCH  21  25
HETATM   25  N   UNL     1       4.804  32.986  54.857  1.00  0.00    -0.116 N 
HETATM   26  O   UNL     1       4.416  32.516  53.777  1.00  0.00    -0.532 OA
HETATM   27  O   UNL     1       5.310  34.103  55.006  1.00  0.00    -0.532 OA
ENDBRANCH  21  25
ENDBRANCH   2  19
BRANCH   6  28
HETATM   28  O   UNL     1      10.359  30.473  56.891  1.00  0.00    -0.355 OA
HETATM   29  H   UNL     1      10.329  31.049  56.090  1.00  0.00     0.218 HD
ENDBRANCH   6  28
BRANCH   3  30
HETATM   30  C   UNL     1       6.310  27.684  56.343  1.00  0.00     0.155 C 
BRANCH  30  31
HETATM   31  C   UNL     1       6.640  26.232  56.794  1.00  0.00     0.254 C 
BRANCH  31  32
HETATM   32  N   UNL     1       7.879  25.644  56.101  1.00  0.00    -0.066 N 
HETATM   33  H   UNL     1       8.514  26.450  55.973  1.00  0.00     0.280 HD
HETATM   34  C   UNL     1       7.582  25.124  54.687  1.00  0.00     0.262 C 
HETATM   35  C   UNL     1       6.948  23.711  54.697  1.00  0.00     0.260 C 
HETATM   36  N   UNL     1       7.789  22.744  55.488  1.00  0.00    -0.072 N 
HETATM   37  H   UNL     1       8.676  22.528  55.006  1.00  0.00     0.277 HD
HETATM   38  H   UNL     1       7.299  21.833  55.532  1.00  0.00     0.277 HD
HETATM   39  C   UNL     1       8.043  23.201  56.907  1.00  0.00     0.260 C 
HETATM   40  C   UNL     1       8.673  24.617  56.930  1.00  0.00     0.262 C 
ENDBRANCH  31  32
ENDBRANCH  30  31
ENDBRANCH   3  30
TORSDOF 10
ENDMDL
