MODEL 1
REMARK VINA RESULT:      -9.5      0.000      0.000
REMARK  4 active torsions:
REMARK  status: ('A' for Active; 'I' for Inactive)
REMARK    1  A    between atoms: C_4  and  C_5 
REMARK    2  A    between atoms: C_8  and  C_9 
REMARK    3  A    between atoms: C_9  and  N_10 
REMARK       I    between atoms: N_10  and  C_11 
REMARK       I    between atoms: C_11  and  N_12 
REMARK    4  A    between atoms: N_12  and  C_13 
ROOT
HETATM    1  C   UNL     1       8.057  29.339  56.585  1.00  0.00     0.213 C 
ENDROOT
BRANCH   1   2
HETATM    2  C   UNL     1       7.966  27.880  56.818  1.00  0.00     0.190 A 
HETATM    3  O   UNL     1       7.938  27.466  58.115  1.00  0.00    -0.194 OA
HETATM    4  N   UNL     1       7.933  26.074  58.087  1.00  0.00    -0.106 NA
HETATM    5  C   UNL     1       7.965  25.776  56.776  1.00  0.00     0.189 A 
HETATM    6  N   UNL     1       7.956  26.887  55.956  1.00  0.00    -0.202 NA
BRANCH   5   7
HETATM    7  C   UNL     1       8.040  24.417  56.250  1.00  0.00     0.015 A 
HETATM    8  C   UNL     1       7.860  24.176  54.878  1.00  0.00     0.022 A 
HETATM    9  C   UNL     1       7.951  22.878  54.352  1.00  0.00    -0.061 A 
HETATM   10  C   UNL     1       7.780  22.629  52.882  1.00  0.00     0.048 C 
HETATM   11  C   UNL     1       8.241  21.814  55.212  1.00  0.00     0.007 A 
HETATM   12  C   UNL     1       8.422  22.037  56.575  1.00  0.00     0.002 A 
HETATM   13  C   UNL     1       8.320  23.331  57.092  1.00  0.00     0.015 A 
ENDBRANCH   5   7
ENDBRANCH   1   2
BRANCH   1  14
HETATM   14  N   UNL     1       8.341  30.045  57.819  1.00  0.00    -0.335 N 
HETATM   15  C   UNL     1       9.572  30.602  57.971  1.00  0.00     0.321 C 
HETATM   16  N   UNL     1       9.808  31.340  59.087  1.00  0.00    -0.309 N 
HETATM   17  O   UNL     1      10.452  30.503  57.117  1.00  0.00    -0.247 OA
HETATM   18  H   UNL     1      10.675  31.856  58.997  1.00  0.00     0.170 HD
HETATM   19  H   UNL     1       7.591  30.608  58.199  1.00  0.00     0.164 HD
BRANCH  16  20
HETATM   20  C   UNL     1       9.152  31.445  60.326  1.00  0.00     0.036 A 
HETATM   21  C   UNL     1       9.319  30.558  61.390  1.00  0.00     0.029 A 
HETATM   22  C   UNL     1       8.641  30.764  62.597  1.00  0.00     0.002 A 
HETATM   23  C   UNL     1       7.802  31.865  62.754  1.00  0.00     0.000 A 
HETATM   24  C   UNL     1       7.647  32.769  61.708  1.00  0.00     0.002 A 
HETATM   25  C   UNL     1       8.324  32.563  60.503  1.00  0.00     0.029 A 
ENDBRANCH  16  20
ENDBRANCH   1  14
TORSDOF 4
ENDMDL
MODEL 2
REMARK VINA RESULT:      -9.4      2.757      4.064
REMARK  4 active torsions:
REMARK  status: ('A' for Active; 'I' for Inactive)
REMARK    1  A    between atoms: C_4  and  C_5 
REMARK    2  A    between atoms: C_8  and  C_9 
REMARK    3  A    between atoms: C_9  and  N_10 
REMARK       I    between atoms: N_10  and  C_11 
REMARK       I    between atoms: C_11  and  N_12 
REMARK    4  A    between atoms: N_12  and  C_13 
ROOT
HETATM    1  C   UNL     1       5.677  28.015  54.657  1.00  0.00     0.213 C 
ENDROOT
BRANCH   1   2
HETATM    2  C   UNL     1       5.878  26.609  54.237  1.00  0.00     0.190 A 
HETATM    3  O   UNL     1       4.903  26.054  53.464  1.00  0.00    -0.194 OA
HETATM    4  N   UNL     1       5.265  24.725  53.264  1.00  0.00    -0.106 NA
HETATM    5  C   UNL     1       6.422  24.599  53.939  1.00  0.00     0.189 A 
HETATM    6  N   UNL     1       6.846  25.771  54.534  1.00  0.00    -0.202 NA
BRANCH   5   7
HETATM    7  C   UNL     1       7.154  23.343  54.075  1.00  0.00     0.015 A 
HETATM    8  C   UNL     1       7.409  22.804  55.347  1.00  0.00     0.022 A 
HETATM    9  C   UNL     1       8.092  21.588  55.495  1.00  0.00    -0.061 A 
HETATM   10  C   UNL     1       8.341  21.005  56.855  1.00  0.00     0.048 C 
HETATM   11  C   UNL     1       8.511  20.899  54.352  1.00  0.00     0.007 A 
HETATM   12  C   UNL     1       8.266  21.421  53.083  1.00  0.00     0.002 A 
HETATM   13  C   UNL     1       7.594  22.638  52.945  1.00  0.00     0.015 A 
ENDBRANCH   5   7
ENDBRANCH   1   2
BRANCH   1  14
HETATM   14  N   UNL     1       6.681  28.416  55.623  1.00  0.00    -0.335 N 
HETATM   15  C   UNL     1       6.353  28.378  56.942  1.00  0.00     0.321 C 
HETATM   16  N   UNL     1       7.320  28.666  57.851  1.00  0.00    -0.309 N 
HETATM   17  O   UNL     1       5.236  28.045  57.335  1.00  0.00    -0.247 OA
HETATM   18  H   UNL     1       7.018  28.417  58.785  1.00  0.00     0.170 HD
HETATM   19  H   UNL     1       7.631  28.126  55.432  1.00  0.00     0.164 HD
BRANCH  16  20
HETATM   20  C   UNL     1       8.571  29.302  57.755  1.00  0.00     0.036 A 
HETATM   21  C   UNL     1       9.641  28.835  56.990  1.00  0.00     0.029 A 
HETATM   22  C   UNL     1      10.840  29.556  56.937  1.00  0.00     0.002 A 
HETATM   23  C   UNL     1      10.973  30.753  57.636  1.00  0.00     0.000 A 
HETATM   24  C   UNL     1       9.905  31.239  58.383  1.00  0.00     0.002 A 
HETATM   25  C   UNL     1       8.708  30.520  58.436  1.00  0.00     0.029 A 
ENDBRANCH  16  20
ENDBRANCH   1  14
TORSDOF 4
ENDMDL
MODEL 3
REMARK VINA RESULT:      -9.2      6.130      9.061
REMARK  4 active torsions:
REMARK  status: ('A' for Active; 'I' for Inactive)
REMARK    1  A    between atoms: C_4  and  C_5 
REMARK    2  A    between atoms: C_8  and  C_9 
REMARK    3  A    between atoms: C_9  and  N_10 
REMARK       I    between atoms: N_10  and  C_11 
REMARK       I    between atoms: C_11  and  N_12 
REMARK    4  A    between atoms: N_12  and  C_13 
ROOT
HETATM    1  C   UNL     1       4.491  27.257  53.495  1.00  0.00     0.213 C 
ENDROOT
BRANCH   1   2
HETATM    2  C   UNL     1       5.542  26.279  53.858  1.00  0.00     0.190 A 
HETATM    3  O   UNL     1       6.711  26.785  54.339  1.00  0.00    -0.194 OA
HETATM    4  N   UNL     1       7.563  25.700  54.532  1.00  0.00    -0.106 NA
HETATM    5  C   UNL     1       6.830  24.641  54.144  1.00  0.00     0.189 A 
HETATM    6  N   UNL     1       5.550  24.969  53.745  1.00  0.00    -0.202 NA
BRANCH   5   7
HETATM    7  C   UNL     1       7.335  23.271  54.105  1.00  0.00     0.015 A 
HETATM    8  C   UNL     1       7.480  22.535  55.292  1.00  0.00     0.022 A 
HETATM    9  C   UNL     1       7.943  21.210  55.271  1.00  0.00    -0.061 A 
HETATM   10  C   UNL     1       8.074  20.420  56.540  1.00  0.00     0.048 C 
HETATM   11  C   UNL     1       8.248  20.615  54.043  1.00  0.00     0.007 A 
HETATM   12  C   UNL     1       8.110  21.334  52.857  1.00  0.00     0.002 A 
HETATM   13  C   UNL     1       7.658  22.655  52.887  1.00  0.00     0.015 A 
ENDBRANCH   5   7
ENDBRANCH   1   2
BRANCH   1  14
HETATM   14  N   UNL     1       4.258  27.262  52.064  1.00  0.00    -0.335 N 
HETATM   15  C   UNL     1       4.921  28.180  51.310  1.00  0.00     0.321 C 
HETATM   16  N   UNL     1       4.774  28.125  49.961  1.00  0.00    -0.309 N 
HETATM   17  O   UNL     1       5.679  29.014  51.800  1.00  0.00    -0.247 OA
HETATM   18  H   UNL     1       5.455  28.719  49.503  1.00  0.00     0.170 HD
HETATM   19  H   UNL     1       4.170  26.358  51.619  1.00  0.00     0.164 HD
BRANCH  16  20
HETATM   20  C   UNL     1       3.835  27.500  49.120  1.00  0.00     0.036 A 
HETATM   21  C   UNL     1       2.546  27.975  48.879  1.00  0.00     0.029 A 
HETATM   22  C   UNL     1       1.693  27.295  48.001  1.00  0.00     0.002 A 
HETATM   23  C   UNL     1       2.128  26.144  47.349  1.00  0.00     0.000 A 
HETATM   24  C   UNL     1       3.419  25.674  47.564  1.00  0.00     0.002 A 
HETATM   25  C   UNL     1       4.270  26.353  48.440  1.00  0.00     0.029 A 
ENDBRANCH  16  20
ENDBRANCH   1  14
TORSDOF 4
ENDMDL
MODEL 4
REMARK VINA RESULT:      -8.9      1.761      2.425
REMARK  4 active torsions:
REMARK  status: ('A' for Active; 'I' for Inactive)
REMARK    1  A    between atoms: C_4  and  C_5 
REMARK    2  A    between atoms: C_8  and  C_9 
REMARK    3  A    between atoms: C_9  and  N_10 
REMARK       I    between atoms: N_10  and  C_11 
REMARK       I    between atoms: C_11  and  N_12 
REMARK    4  A    between atoms: N_12  and  C_13 
ROOT
HETATM    1  C   UNL     1       5.701  29.035  57.227  1.00  0.00     0.213 C 
ENDROOT
BRANCH   1   2
HETATM    2  C   UNL     1       6.485  27.781  57.153  1.00  0.00     0.190 A 
HETATM    3  O   UNL     1       7.545  27.669  58.000  1.00  0.00    -0.194 OA
HETATM    4  N   UNL     1       8.168  26.460  57.698  1.00  0.00    -0.106 NA
HETATM    5  C   UNL     1       7.429  25.958  56.693  1.00  0.00     0.189 A 
HETATM    6  N   UNL     1       6.350  26.749  56.350  1.00  0.00    -0.202 NA
BRANCH   5   7
HETATM    7  C   UNL     1       7.743  24.716  55.992  1.00  0.00     0.015 A 
HETATM    8  C   UNL     1       7.987  23.536  56.714  1.00  0.00     0.022 A 
HETATM    9  C   UNL     1       8.268  22.329  56.057  1.00  0.00    -0.061 A 
HETATM   10  C   UNL     1       8.506  21.067  56.833  1.00  0.00     0.048 C 
HETATM   11  C   UNL     1       8.289  22.304  54.659  1.00  0.00     0.007 A 
HETATM   12  C   UNL     1       8.049  23.467  53.928  1.00  0.00     0.002 A 
HETATM   13  C   UNL     1       7.780  24.667  54.591  1.00  0.00     0.015 A 
ENDBRANCH   5   7
ENDBRANCH   1   2
BRANCH   1  14
HETATM   14  N   UNL     1       6.283  29.954  58.185  1.00  0.00    -0.335 N 
HETATM   15  C   UNL     1       6.026  31.282  58.038  1.00  0.00     0.321 C 
HETATM   16  N   UNL     1       6.495  32.133  58.987  1.00  0.00    -0.309 N 
HETATM   17  O   UNL     1       5.346  31.724  57.114  1.00  0.00    -0.247 OA
HETATM   18  H   UNL     1       6.081  33.052  58.879  1.00  0.00     0.170 HD
HETATM   19  H   UNL     1       6.302  29.649  59.148  1.00  0.00     0.164 HD
BRANCH  16  20
HETATM   20  C   UNL     1       7.474  32.011  59.989  1.00  0.00     0.036 A 
HETATM   21  C   UNL     1       7.202  31.778  61.338  1.00  0.00     0.029 A 
HETATM   22  C   UNL     1       8.249  31.643  62.258  1.00  0.00     0.002 A 
HETATM   23  C   UNL     1       9.573  31.727  61.834  1.00  0.00     0.000 A 
HETATM   24  C   UNL     1       9.855  31.936  60.488  1.00  0.00     0.002 A 
HETATM   25  C   UNL     1       8.810  32.070  59.570  1.00  0.00     0.029 A 
ENDBRANCH  16  20
ENDBRANCH   1  14
TORSDOF 4
ENDMDL
MODEL 5
REMARK VINA RESULT:      -8.8      2.014      8.857
REMARK  4 active torsions:
REMARK  status: ('A' for Active; 'I' for Inactive)
REMARK    1  A    between atoms: C_4  and  C_5 
REMARK    2  A    between atoms: C_8  and  C_9 
REMARK    3  A    between atoms: C_9  and  N_10 
REMARK       I    between atoms: N_10  and  C_11 
REMARK       I    between atoms: C_11  and  N_12 
REMARK    4  A    between atoms: N_12  and  C_13 
ROOT
HETATM    1  C   UNL     1       7.549  27.852  54.339  1.00  0.00     0.213 C 
ENDROOT
BRANCH   1   2
HETATM    2  C   UNL     1       7.730  28.311  55.735  1.00  0.00     0.190 A 
HETATM    3  O   UNL     1       8.012  27.355  56.663  1.00  0.00    -0.194 OA
HETATM    4  N   UNL     1       8.059  28.001  57.896  1.00  0.00    -0.106 NA
HETATM    5  C   UNL     1       7.795  29.286  57.598  1.00  0.00     0.189 A 
HETATM    6  N   UNL     1       7.614  29.516  56.248  1.00  0.00    -0.202 NA
BRANCH   5   7
HETATM    7  C   UNL     1       7.668  30.345  58.595  1.00  0.00     0.015 A 
HETATM    8  C   UNL     1       8.637  30.490  59.602  1.00  0.00     0.022 A 
HETATM    9  C   UNL     1       8.543  31.515  60.556  1.00  0.00    -0.061 A 
HETATM   10  C   UNL     1       9.592  31.679  61.615  1.00  0.00     0.048 C 
HETATM   11  C   UNL     1       7.473  32.413  60.487  1.00  0.00     0.007 A 
HETATM   12  C   UNL     1       6.504  32.281  59.494  1.00  0.00     0.002 A 
HETATM   13  C   UNL     1       6.600  31.252  58.555  1.00  0.00     0.015 A 
ENDBRANCH   5   7
ENDBRANCH   1   2
BRANCH   1  14
HETATM   14  N   UNL     1       7.465  26.406  54.275  1.00  0.00    -0.335 N 
HETATM   15  C   UNL     1       6.249  25.843  54.047  1.00  0.00     0.321 C 
HETATM   16  N   UNL     1       6.185  24.495  53.896  1.00  0.00    -0.309 N 
HETATM   17  O   UNL     1       5.224  26.512  53.924  1.00  0.00    -0.247 OA
HETATM   18  H   UNL     1       5.278  24.217  53.542  1.00  0.00     0.170 HD
HETATM   19  H   UNL     1       8.226  25.931  53.807  1.00  0.00     0.164 HD
BRANCH  16  20
HETATM   20  C   UNL     1       7.071  23.449  54.213  1.00  0.00     0.036 A 
HETATM   21  C   UNL     1       7.387  23.043  55.510  1.00  0.00     0.029 A 
HETATM   22  C   UNL     1       8.260  21.970  55.723  1.00  0.00     0.002 A 
HETATM   23  C   UNL     1       8.813  21.288  54.642  1.00  0.00     0.000 A 
HETATM   24  C   UNL     1       8.487  21.669  53.345  1.00  0.00     0.002 A 
HETATM   25  C   UNL     1       7.615  22.740  53.133  1.00  0.00     0.029 A 
ENDBRANCH  16  20
ENDBRANCH   1  14
TORSDOF 4
ENDMDL
MODEL 6
REMARK VINA RESULT:      -8.8      2.524      8.764
REMARK  4 active torsions:
REMARK  status: ('A' for Active; 'I' for Inactive)
REMARK    1  A    between atoms: C_4  and  C_5 
REMARK    2  A    between atoms: C_8  and  C_9 
REMARK    3  A    between atoms: C_9  and  N_10 
REMARK       I    between atoms: N_10  and  C_11 
REMARK       I    between atoms: C_11  and  N_12 
REMARK    4  A    between atoms: N_12  and  C_13 
ROOT
HETATM    1  C   UNL     1       5.610  26.173  54.571  1.00  0.00     0.213 C 
ENDROOT
BRANCH   1   2
HETATM    2  C   UNL     1       6.196  27.069  55.595  1.00  0.00     0.190 A 
HETATM    3  O   UNL     1       5.396  27.406  56.645  1.00  0.00    -0.194 OA
HETATM    4  N   UNL     1       6.122  28.305  57.422  1.00  0.00    -0.106 NA
HETATM    5  C   UNL     1       7.290  28.431  56.767  1.00  0.00     0.189 A 
HETATM    6  N   UNL     1       7.377  27.646  55.634  1.00  0.00    -0.202 NA
BRANCH   5   7
HETATM    7  C   UNL     1       8.361  29.335  57.175  1.00  0.00     0.015 A 
HETATM    8  C   UNL     1       8.167  30.227  58.242  1.00  0.00     0.022 A 
HETATM    9  C   UNL     1       9.192  31.088  58.662  1.00  0.00    -0.061 A 
HETATM   10  C   UNL     1       8.988  32.023  59.818  1.00  0.00     0.048 C 
HETATM   11  C   UNL     1      10.430  31.041  58.013  1.00  0.00     0.007 A 
HETATM   12  C   UNL     1      10.637  30.161  56.952  1.00  0.00     0.002 A 
HETATM   13  C   UNL     1       9.608  29.314  56.534  1.00  0.00     0.015 A 
ENDBRANCH   5   7
ENDBRANCH   1   2
BRANCH   1  14
HETATM   14  N   UNL     1       6.477  25.040  54.317  1.00  0.00    -0.335 N 
HETATM   15  C   UNL     1       7.241  25.056  53.192  1.00  0.00     0.321 C 
HETATM   16  N   UNL     1       8.120  24.038  53.000  1.00  0.00    -0.309 N 
HETATM   17  O   UNL     1       7.199  25.977  52.379  1.00  0.00    -0.247 OA
HETATM   18  H   UNL     1       8.760  24.256  52.245  1.00  0.00     0.170 HD
HETATM   19  H   UNL     1       6.946  24.642  55.120  1.00  0.00     0.164 HD
BRANCH  16  20
HETATM   20  C   UNL     1       8.245  22.756  53.565  1.00  0.00     0.036 A 
HETATM   21  C   UNL     1       7.866  21.571  52.933  1.00  0.00     0.029 A 
HETATM   22  C   UNL     1       8.057  20.338  53.568  1.00  0.00     0.002 A 
HETATM   23  C   UNL     1       8.639  20.280  54.832  1.00  0.00     0.000 A 
HETATM   24  C   UNL     1       9.042  21.454  55.461  1.00  0.00     0.002 A 
HETATM   25  C   UNL     1       8.852  22.684  54.827  1.00  0.00     0.029 A 
ENDBRANCH  16  20
ENDBRANCH   1  14
TORSDOF 4
ENDMDL
MODEL 7
REMARK VINA RESULT:      -8.6      5.525      8.849
REMARK  4 active torsions:
REMARK  status: ('A' for Active; 'I' for Inactive)
REMARK    1  A    between atoms: C_4  and  C_5 
REMARK    2  A    between atoms: C_8  and  C_9 
REMARK    3  A    between atoms: C_9  and  N_10 
REMARK       I    between atoms: N_10  and  C_11 
REMARK       I    between atoms: C_11  and  N_12 
REMARK    4  A    between atoms: N_12  and  C_13 
ROOT
HETATM    1  C   UNL     1       5.480  26.281  54.946  1.00  0.00     0.213 C 
ENDROOT
BRANCH   1   2
HETATM    2  C   UNL     1       5.549  26.892  53.598  1.00  0.00     0.190 A 
HETATM    3  O   UNL     1       5.964  28.187  53.532  1.00  0.00    -0.194 OA
HETATM    4  N   UNL     1       5.874  28.564  52.194  1.00  0.00    -0.106 NA
HETATM    5  C   UNL     1       5.408  27.463  51.578  1.00  0.00     0.189 A 
HETATM    6  N   UNL     1       5.223  26.390  52.427  1.00  0.00    -0.202 NA
BRANCH   5   7
HETATM    7  C   UNL     1       5.084  27.399  50.156  1.00  0.00     0.015 A 
HETATM    8  C   UNL     1       4.344  26.321  49.644  1.00  0.00     0.022 A 
HETATM    9  C   UNL     1       4.005  26.255  48.284  1.00  0.00    -0.061 A 
HETATM   10  C   UNL     1       3.195  25.112  47.748  1.00  0.00     0.048 C 
HETATM   11  C   UNL     1       4.403  27.291  47.433  1.00  0.00     0.007 A 
HETATM   12  C   UNL     1       5.138  28.367  47.926  1.00  0.00     0.002 A 
HETATM   13  C   UNL     1       5.479  28.420  49.279  1.00  0.00     0.015 A 
ENDBRANCH   5   7
ENDBRANCH   1   2
BRANCH   1  14
HETATM   14  N   UNL     1       6.317  25.100  55.024  1.00  0.00    -0.335 N 
HETATM   15  C   UNL     1       7.534  25.216  55.619  1.00  0.00     0.321 C 
HETATM   16  N   UNL     1       8.280  24.091  55.774  1.00  0.00    -0.309 N 
HETATM   17  O   UNL     1       7.955  26.283  56.061  1.00  0.00    -0.247 OA
HETATM   18  H   UNL     1       9.063  24.263  56.393  1.00  0.00     0.170 HD
HETATM   19  H   UNL     1       5.847  24.228  55.226  1.00  0.00     0.164 HD
BRANCH  16  20
HETATM   20  C   UNL     1       8.225  22.813  55.189  1.00  0.00     0.036 A 
HETATM   21  C   UNL     1       7.993  21.629  55.891  1.00  0.00     0.029 A 
HETATM   22  C   UNL     1       7.928  20.405  55.213  1.00  0.00     0.002 A 
HETATM   23  C   UNL     1       8.083  20.358  53.830  1.00  0.00     0.000 A 
HETATM   24  C   UNL     1       8.292  21.535  53.118  1.00  0.00     0.002 A 
HETATM   25  C   UNL     1       8.355  22.756  53.794  1.00  0.00     0.029 A 
ENDBRANCH  16  20
ENDBRANCH   1  14
TORSDOF 4
ENDMDL
MODEL 8
REMARK VINA RESULT:      -8.6      1.778      8.781
REMARK  4 active torsions:
REMARK  status: ('A' for Active; 'I' for Inactive)
REMARK    1  A    between atoms: C_4  and  C_5 
REMARK    2  A    between atoms: C_8  and  C_9 
REMARK    3  A    between atoms: C_9  and  N_10 
REMARK       I    between atoms: N_10  and  C_11 
REMARK       I    between atoms: C_11  and  N_12 
REMARK    4  A    between atoms: N_12  and  C_13 
ROOT
HETATM    1  C   UNL     1       6.225  29.130  55.557  1.00  0.00     0.213 C 
ENDROOT
BRANCH   1   2
HETATM    2  C   UNL     1       7.030  29.417  56.766  1.00  0.00     0.190 A 
HETATM    3  O   UNL     1       8.018  28.530  57.070  1.00  0.00    -0.194 OA
HETATM    4  N   UNL     1       8.578  28.957  58.271  1.00  0.00    -0.106 NA
HETATM    5  C   UNL     1       7.873  30.059  58.583  1.00  0.00     0.189 A 
HETATM    6  N   UNL     1       6.917  30.390  57.644  1.00  0.00    -0.202 NA
BRANCH   5   7
HETATM    7  C   UNL     1       8.059  30.825  59.812  1.00  0.00     0.015 A 
HETATM    8  C   UNL     1       7.127  31.808  60.184  1.00  0.00     0.022 A 
HETATM    9  C   UNL     1       7.279  32.539  61.372  1.00  0.00    -0.061 A 
HETATM   10  C   UNL     1       6.268  33.572  61.775  1.00  0.00     0.048 C 
HETATM   11  C   UNL     1       8.370  32.268  62.203  1.00  0.00     0.007 A 
HETATM   12  C   UNL     1       9.304  31.296  61.847  1.00  0.00     0.002 A 
HETATM   13  C   UNL     1       9.151  30.580  60.658  1.00  0.00     0.015 A 
ENDBRANCH   5   7
ENDBRANCH   1   2
BRANCH   1  14
HETATM   14  N   UNL     1       6.265  27.719  55.229  1.00  0.00    -0.335 N 
HETATM   15  C   UNL     1       5.299  26.912  55.746  1.00  0.00     0.321 C 
HETATM   16  N   UNL     1       5.284  25.608  55.366  1.00  0.00    -0.309 N 
HETATM   17  O   UNL     1       4.420  27.332  56.495  1.00  0.00    -0.247 OA
HETATM   18  H   UNL     1       4.421  25.163  55.653  1.00  0.00     0.170 HD
HETATM   19  H   UNL     1       6.527  27.484  54.281  1.00  0.00     0.164 HD
BRANCH  16  20
HETATM   20  C   UNL     1       6.238  24.772  54.758  1.00  0.00     0.036 A 
HETATM   21  C   UNL     1       6.398  24.624  53.380  1.00  0.00     0.029 A 
HETATM   22  C   UNL     1       7.398  23.787  52.870  1.00  0.00     0.002 A 
HETATM   23  C   UNL     1       8.252  23.104  53.733  1.00  0.00     0.000 A 
HETATM   24  C   UNL     1       8.115  23.263  55.107  1.00  0.00     0.002 A 
HETATM   25  C   UNL     1       7.118  24.098  55.617  1.00  0.00     0.029 A 
ENDBRANCH  16  20
ENDBRANCH   1  14
TORSDOF 4
ENDMDL
MODEL 9
REMARK VINA RESULT:      -8.4      3.111      4.207
REMARK  4 active torsions:
REMARK  status: ('A' for Active; 'I' for Inactive)
REMARK    1  A    between atoms: C_4  and  C_5 
REMARK    2  A    between atoms: C_8  and  C_9 
REMARK    3  A    between atoms: C_9  and  N_10 
REMARK       I    between atoms: N_10  and  C_11 
REMARK       I    between atoms: C_11  and  N_12 
REMARK    4  A    between atoms: N_12  and  C_13 
ROOT
HETATM    1  C   UNL     1       6.245  28.600  53.194  1.00  0.00     0.213 C 
ENDROOT
BRANCH   1   2
HETATM    2  C   UNL     1       6.614  27.175  53.033  1.00  0.00     0.190 A 
HETATM    3  O   UNL     1       6.150  26.542  51.920  1.00  0.00    -0.194 OA
HETATM    4  N   UNL     1       6.550  25.212  52.024  1.00  0.00    -0.106 NA
HETATM    5  C   UNL     1       7.214  25.164  53.193  1.00  0.00     0.189 A 
HETATM    6  N   UNL     1       7.296  26.385  53.833  1.00  0.00    -0.202 NA
BRANCH   5   7
HETATM    7  C   UNL     1       7.768  23.941  53.766  1.00  0.00     0.015 A 
HETATM    8  C   UNL     1       7.802  22.757  53.012  1.00  0.00     0.022 A 
HETATM    9  C   UNL     1       8.351  21.578  53.539  1.00  0.00    -0.061 A 
HETATM   10  C   UNL     1       8.405  20.321  52.721  1.00  0.00     0.048 C 
HETATM   11  C   UNL     1       8.884  21.594  54.832  1.00  0.00     0.007 A 
HETATM   12  C   UNL     1       8.857  22.762  55.592  1.00  0.00     0.002 A 
HETATM   13  C   UNL     1       8.300  23.928  55.063  1.00  0.00     0.015 A 
ENDBRANCH   5   7
ENDBRANCH   1   2
BRANCH   1  14
HETATM   14  N   UNL     1       6.244  28.980  54.593  1.00  0.00    -0.335 N 
HETATM   15  C   UNL     1       5.090  28.830  55.298  1.00  0.00     0.321 C 
HETATM   16  N   UNL     1       5.113  29.101  56.628  1.00  0.00    -0.309 N 
HETATM   17  O   UNL     1       4.053  28.414  54.785  1.00  0.00    -0.247 OA
HETATM   18  H   UNL     1       4.266  28.770  57.075  1.00  0.00     0.170 HD
HETATM   19  H   UNL     1       7.075  28.754  55.122  1.00  0.00     0.164 HD
BRANCH  16  20
HETATM   20  C   UNL     1       6.011  29.804  57.451  1.00  0.00     0.036 A 
HETATM   21  C   UNL     1       5.797  31.096  57.935  1.00  0.00     0.029 A 
HETATM   22  C   UNL     1       6.740  31.703  58.774  1.00  0.00     0.002 A 
HETATM   23  C   UNL     1       7.895  31.019  59.144  1.00  0.00     0.000 A 
HETATM   24  C   UNL     1       8.107  29.723  58.686  1.00  0.00     0.002 A 
HETATM   25  C   UNL     1       7.166  29.117  57.850  1.00  0.00     0.029 A 
ENDBRANCH  16  20
ENDBRANCH   1  14
TORSDOF 4
ENDMDL
MODEL 10
REMARK VINA RESULT:      -8.3      4.640      5.652
REMARK  4 active torsions:
REMARK  status: ('A' for Active; 'I' for Inactive)
REMARK    1  A    between atoms: C_4  and  C_5 
REMARK    2  A    between atoms: C_8  and  C_9 
REMARK    3  A    between atoms: C_9  and  N_10 
REMARK       I    between atoms: N_10  and  C_11 
REMARK       I    between atoms: C_11  and  N_12 
REMARK    4  A    between atoms: N_12  and  C_13 
ROOT
HETATM    1  C   UNL     1       4.877  26.404  52.141  1.00  0.00     0.213 C 
ENDROOT
BRANCH   1   2
HETATM    2  C   UNL     1       5.983  25.476  52.471  1.00  0.00     0.190 A 
HETATM    3  O   UNL     1       7.194  25.738  51.906  1.00  0.00    -0.194 OA
HETATM    4  N   UNL     1       8.043  24.703  52.291  1.00  0.00    -0.106 NA
HETATM    5  C   UNL     1       7.264  23.910  53.048  1.00  0.00     0.189 A 
HETATM    6  N   UNL     1       5.977  24.384  53.204  1.00  0.00    -0.202 NA
BRANCH   5   7
HETATM    7  C   UNL     1       7.707  22.645  53.627  1.00  0.00     0.015 A 
HETATM    8  C   UNL     1       7.788  22.492  55.021  1.00  0.00     0.022 A 
HETATM    9  C   UNL     1       8.192  21.277  55.595  1.00  0.00    -0.061 A 
HETATM   10  C   UNL     1       8.254  21.113  57.085  1.00  0.00     0.048 C 
HETATM   11  C   UNL     1       8.501  20.199  54.759  1.00  0.00     0.007 A 
HETATM   12  C   UNL     1       8.426  20.336  53.374  1.00  0.00     0.002 A 
HETATM   13  C   UNL     1       8.034  21.552  52.811  1.00  0.00     0.015 A 
ENDBRANCH   5   7
ENDBRANCH   1   2
BRANCH   1  14
HETATM   14  N   UNL     1       4.811  27.493  53.095  1.00  0.00    -0.335 N 
HETATM   15  C   UNL     1       5.254  28.717  52.703  1.00  0.00     0.321 C 
HETATM   16  N   UNL     1       5.108  29.757  53.565  1.00  0.00    -0.309 N 
HETATM   17  O   UNL     1       5.729  28.922  51.588  1.00  0.00    -0.247 OA
HETATM   18  H   UNL     1       5.288  30.637  53.098  1.00  0.00     0.170 HD
HETATM   19  H   UNL     1       3.989  27.527  53.683  1.00  0.00     0.164 HD
BRANCH  16  20
HETATM   20  C   UNL     1       4.855  29.832  54.947  1.00  0.00     0.036 A 
HETATM   21  C   UNL     1       5.743  29.414  55.939  1.00  0.00     0.029 A 
HETATM   22  C   UNL     1       5.411  29.557  57.292  1.00  0.00     0.002 A 
HETATM   23  C   UNL     1       4.197  30.130  57.661  1.00  0.00     0.000 A 
HETATM   24  C   UNL     1       3.315  30.571  56.681  1.00  0.00     0.002 A 
HETATM   25  C   UNL     1       3.646  30.429  55.331  1.00  0.00     0.029 A 
ENDBRANCH  16  20
ENDBRANCH   1  14
TORSDOF 4
ENDMDL
