MODEL 1
REMARK VINA RESULT:     -10.6      0.000      0.000
REMARK  6 active torsions:
REMARK  status: ('A' for Active; 'I' for Inactive)
REMARK    1  A    between atoms: C_9  and  O_10 
REMARK    2  A    between atoms: O_10  and  C_11 
REMARK    3  A    between atoms: C_11  and  C_12 
REMARK       I    between atoms: C_12  and  N_13 
REMARK    4  A    between atoms: N_13  and  C_14 
REMARK    5  A    between atoms: N_15  and  C_16 
REMARK    6  A    between atoms: C_27  and  C_28 
ROOT
HETATM    1  C   UNL     1       5.921  29.170  56.911  1.00  0.00     0.152 A 
HETATM    2  N   UNL     1       5.406  29.459  55.654  1.00  0.00    -0.044 N 
HETATM    3  N   UNL     1       4.959  30.751  55.558  1.00  0.00    -0.150 NA
HETATM    4  C   UNL     1       5.204  31.277  56.764  1.00  0.00     0.099 A 
HETATM    5  C   UNL     1       5.770  30.329  57.641  1.00  0.00     0.086 A 
ENDROOT
BRANCH   1   6
HETATM    6  N   UNL     1       6.485  27.944  57.247  1.00  0.00    -0.309 N 
HETATM    7  C   UNL     1       7.852  27.766  57.372  1.00  0.00     0.247 C 
HETATM    8  O   UNL     1       8.696  28.662  57.345  1.00  0.00    -0.271 OA
HETATM    9  H   UNL     1       5.867  27.142  57.396  1.00  0.00     0.170 HD
BRANCH   7  10
HETATM   10  C   UNL     1       8.294  26.305  57.420  1.00  0.00     0.278 C 
BRANCH  10  11
HETATM   11  O   UNL     1       7.275  25.365  57.112  1.00  0.00    -0.342 OA
BRANCH  11  12
HETATM   12  C   UNL     1       7.530  24.588  56.007  1.00  0.00     0.070 A 
HETATM   13  C   UNL     1       7.711  25.069  54.708  1.00  0.00     0.037 A 
HETATM   14  C   UNL     1       7.982  24.188  53.657  1.00  0.00     0.015 A 
HETATM   15  C   UNL     1       8.075  22.809  53.884  1.00  0.00    -0.026 A 
HETATM   16  C   UNL     1       8.361  21.919  52.836  1.00  0.00     0.012 A 
HETATM   17  C   UNL     1       7.880  22.311  55.192  1.00  0.00    -0.023 A 
HETATM   18  C   UNL     1       8.455  20.547  53.073  1.00  0.00     0.001 A 
HETATM   19  C   UNL     1       8.263  20.052  54.359  1.00  0.00     0.001 A 
HETATM   20  C   UNL     1       7.976  20.926  55.411  1.00  0.00     0.012 A 
HETATM   21  C   UNL     1       7.601  23.211  56.238  1.00  0.00     0.049 A 
ENDBRANCH  11  12
ENDBRANCH  10  11
ENDBRANCH   7  10
ENDBRANCH   1   6
BRANCH   2  22
HETATM   22  C   UNL     1       5.317  28.626  54.523  1.00  0.00     0.732 A 
HETATM   23  N   UNL     1       4.962  27.375  54.570  1.00  0.00    -0.067 NA
HETATM   24  C   UNL     1       4.947  26.758  53.348  1.00  0.00     0.065 A 
HETATM   25  C   UNL     1       5.249  27.322  52.178  1.00  0.00     0.036 A 
HETATM   26  C   UNL     1       4.572  25.325  53.170  1.00  0.00     0.061 C 
HETATM   27  C   UNL     1       5.139  26.401  51.025  1.00  0.00     0.047 C 
HETATM   28  C   UNL     1       5.646  28.728  52.142  1.00  0.00     0.268 A 
HETATM   29  C   UNL     1       5.023  25.042  51.728  1.00  0.00     0.011 C 
HETATM   30  O   UNL     1       5.936  29.309  51.107  1.00  0.00    -0.267 OA
HETATM   31  N   UNL     1       5.655  29.313  53.376  1.00  0.00    -0.152 N 
HETATM   32  H   UNL     1       5.920  30.290  53.453  1.00  0.00     0.188 HD
ENDBRANCH   2  22
BRANCH   4  33
HETATM   33  C   UNL     1       4.916  32.716  57.078  1.00  0.00     0.035 A 
HETATM   34  S   UNL     1       4.827  33.959  55.906  1.00  0.00    -0.100 SA
HETATM   35  C   UNL     1       4.449  35.137  57.088  1.00  0.00     0.050 A 
HETATM   36  C   UNL     1       4.399  34.598  58.354  1.00  0.00     0.008 A 
HETATM   37  C   UNL     1       4.672  33.197  58.349  1.00  0.00     0.022 A 
ENDBRANCH   4  33
TORSDOF 6
ENDMDL
MODEL 2
REMARK VINA RESULT:     -10.3      3.203      8.315
REMARK  6 active torsions:
REMARK  status: ('A' for Active; 'I' for Inactive)
REMARK    1  A    between atoms: C_9  and  O_10 
REMARK    2  A    between atoms: O_10  and  C_11 
REMARK    3  A    between atoms: C_11  and  C_12 
REMARK       I    between atoms: C_12  and  N_13 
REMARK    4  A    between atoms: N_13  and  C_14 
REMARK    5  A    between atoms: N_15  and  C_16 
REMARK    6  A    between atoms: C_27  and  C_28 
ROOT
HETATM    1  C   UNL     1       6.901  26.464  53.966  1.00  0.00     0.152 A 
HETATM    2  N   UNL     1       6.779  25.184  53.442  1.00  0.00    -0.044 N 
HETATM    3  N   UNL     1       6.166  25.179  52.216  1.00  0.00    -0.150 NA
HETATM    4  C   UNL     1       5.910  26.468  51.968  1.00  0.00     0.099 A 
HETATM    5  C   UNL     1       6.319  27.296  53.034  1.00  0.00     0.086 A 
ENDROOT
BRANCH   1   6
HETATM    6  N   UNL     1       7.532  26.743  55.174  1.00  0.00    -0.309 N 
HETATM    7  C   UNL     1       6.840  27.194  56.284  1.00  0.00     0.247 C 
HETATM    8  O   UNL     1       5.616  27.264  56.385  1.00  0.00    -0.271 OA
HETATM    9  H   UNL     1       8.547  26.620  55.239  1.00  0.00     0.170 HD
BRANCH   7  10
HETATM   10  C   UNL     1       7.729  27.751  57.395  1.00  0.00     0.278 C 
BRANCH  10  11
HETATM   11  O   UNL     1       8.218  29.064  57.163  1.00  0.00    -0.342 OA
BRANCH  11  12
HETATM   12  C   UNL     1       7.793  30.001  58.076  1.00  0.00     0.070 A 
HETATM   13  C   UNL     1       6.697  30.850  57.907  1.00  0.00     0.037 A 
HETATM   14  C   UNL     1       6.343  31.758  58.910  1.00  0.00     0.015 A 
HETATM   15  C   UNL     1       7.079  31.836  60.098  1.00  0.00    -0.026 A 
HETATM   16  C   UNL     1       6.722  32.735  61.115  1.00  0.00     0.012 A 
HETATM   17  C   UNL     1       8.198  30.990  60.272  1.00  0.00    -0.023 A 
HETATM   18  C   UNL     1       7.459  32.802  62.298  1.00  0.00     0.001 A 
HETATM   19  C   UNL     1       8.562  31.972  62.474  1.00  0.00     0.001 A 
HETATM   20  C   UNL     1       8.931  31.074  61.469  1.00  0.00     0.012 A 
HETATM   21  C   UNL     1       8.545  30.087  59.250  1.00  0.00     0.049 A 
ENDBRANCH  11  12
ENDBRANCH  10  11
ENDBRANCH   7  10
ENDBRANCH   1   6
BRANCH   2  22
HETATM   22  C   UNL     1       7.210  23.960  53.988  1.00  0.00     0.732 A 
HETATM   23  N   UNL     1       7.407  23.763  55.259  1.00  0.00    -0.067 NA
HETATM   24  C   UNL     1       7.827  22.497  55.564  1.00  0.00     0.065 A 
HETATM   25  C   UNL     1       8.031  21.505  54.696  1.00  0.00     0.036 A 
HETATM   26  C   UNL     1       8.115  22.054  56.960  1.00  0.00     0.061 C 
HETATM   27  C   UNL     1       8.484  20.245  55.325  1.00  0.00     0.047 C 
HETATM   28  C   UNL     1       7.806  21.743  53.272  1.00  0.00     0.268 A 
HETATM   29  C   UNL     1       8.846  20.720  56.739  1.00  0.00     0.011 C 
HETATM   30  O   UNL     1       7.973  20.881  52.422  1.00  0.00    -0.267 OA
HETATM   31  N   UNL     1       7.392  23.015  53.001  1.00  0.00    -0.152 N 
HETATM   32  H   UNL     1       7.211  23.276  52.037  1.00  0.00     0.188 HD
ENDBRANCH   2  22
BRANCH   4  33
HETATM   33  C   UNL     1       5.287  26.923  50.680  1.00  0.00     0.035 A 
HETATM   34  S   UNL     1       5.304  28.539  50.118  1.00  0.00    -0.100 SA
HETATM   35  C   UNL     1       4.470  28.119  48.685  1.00  0.00     0.050 A 
HETATM   36  C   UNL     1       4.175  26.776  48.636  1.00  0.00     0.008 A 
HETATM   37  C   UNL     1       4.646  26.083  49.792  1.00  0.00     0.022 A 
ENDBRANCH   4  33
TORSDOF 6
ENDMDL
MODEL 3
REMARK VINA RESULT:     -10.2      3.282      7.501
REMARK  6 active torsions:
REMARK  status: ('A' for Active; 'I' for Inactive)
REMARK    1  A    between atoms: C_9  and  O_10 
REMARK    2  A    between atoms: O_10  and  C_11 
REMARK    3  A    between atoms: C_11  and  C_12 
REMARK       I    between atoms: C_12  and  N_13 
REMARK    4  A    between atoms: N_13  and  C_14 
REMARK    5  A    between atoms: N_15  and  C_16 
REMARK    6  A    between atoms: C_27  and  C_28 
ROOT
HETATM    1  C   UNL     1       7.048  27.051  54.084  1.00  0.00     0.152 A 
HETATM    2  N   UNL     1       7.525  26.169  55.044  1.00  0.00    -0.044 N 
HETATM    3  N   UNL     1       7.816  26.793  56.228  1.00  0.00    -0.150 NA
HETATM    4  C   UNL     1       7.511  28.078  56.009  1.00  0.00     0.099 A 
HETATM    5  C   UNL     1       7.061  28.289  54.690  1.00  0.00     0.086 A 
ENDROOT
BRANCH   1   6
HETATM    6  N   UNL     1       6.634  26.658  52.816  1.00  0.00    -0.309 N 
HETATM    7  C   UNL     1       5.297  26.541  52.476  1.00  0.00     0.247 C 
HETATM    8  O   UNL     1       4.347  26.895  53.175  1.00  0.00    -0.271 OA
HETATM    9  H   UNL     1       7.343  26.435  52.112  1.00  0.00     0.170 HD
BRANCH   7  10
HETATM   10  C   UNL     1       5.043  25.794  51.169  1.00  0.00     0.278 C 
BRANCH  10  11
HETATM   11  O   UNL     1       5.293  26.550  49.993  1.00  0.00    -0.342 OA
BRANCH  11  12
HETATM   12  C   UNL     1       4.223  26.641  49.134  1.00  0.00     0.070 A 
HETATM   13  C   UNL     1       3.750  25.606  48.324  1.00  0.00     0.037 A 
HETATM   14  C   UNL     1       2.640  25.804  47.498  1.00  0.00     0.015 A 
HETATM   15  C   UNL     1       1.984  27.041  47.462  1.00  0.00    -0.026 A 
HETATM   16  C   UNL     1       0.861  27.243  46.644  1.00  0.00     0.012 A 
HETATM   17  C   UNL     1       2.464  28.099  48.267  1.00  0.00    -0.023 A 
HETATM   18  C   UNL     1       0.213  28.478  46.619  1.00  0.00     0.001 A 
HETATM   19  C   UNL     1       0.681  29.523  47.409  1.00  0.00     0.001 A 
HETATM   20  C   UNL     1       1.799  29.337  48.226  1.00  0.00     0.012 A 
HETATM   21  C   UNL     1       3.587  27.885  49.088  1.00  0.00     0.049 A 
ENDBRANCH  11  12
ENDBRANCH  10  11
ENDBRANCH   7  10
ENDBRANCH   1   6
BRANCH   2  22
HETATM   22  C   UNL     1       7.712  24.777  54.949  1.00  0.00     0.732 A 
HETATM   23  N   UNL     1       7.699  24.118  53.827  1.00  0.00    -0.067 NA
HETATM   24  C   UNL     1       7.900  22.773  53.972  1.00  0.00     0.065 A 
HETATM   25  C   UNL     1       8.102  22.127  55.122  1.00  0.00     0.036 A 
HETATM   26  C   UNL     1       7.923  21.828  52.818  1.00  0.00     0.061 C 
HETATM   27  C   UNL     1       8.291  20.668  54.963  1.00  0.00     0.047 C 
HETATM   28  C   UNL     1       8.112  22.881  56.374  1.00  0.00     0.268 A 
HETATM   29  C   UNL     1       7.844  20.458  53.510  1.00  0.00     0.011 C 
HETATM   30  O   UNL     1       8.290  22.355  57.462  1.00  0.00    -0.267 OA
HETATM   31  N   UNL     1       7.905  24.219  56.194  1.00  0.00    -0.152 N 
HETATM   32  H   UNL     1       7.894  24.825  57.008  1.00  0.00     0.188 HD
ENDBRANCH   2  22
BRANCH   4  33
HETATM   33  C   UNL     1       7.625  29.118  57.085  1.00  0.00     0.035 A 
HETATM   34  S   UNL     1       6.344  30.135  57.583  1.00  0.00    -0.100 SA
HETATM   35  C   UNL     1       7.315  30.887  58.774  1.00  0.00     0.050 A 
HETATM   36  C   UNL     1       8.595  30.381  58.789  1.00  0.00     0.008 A 
HETATM   37  C   UNL     1       8.776  29.359  57.809  1.00  0.00     0.022 A 
ENDBRANCH   4  33
TORSDOF 6
ENDMDL
MODEL 4
REMARK VINA RESULT:     -10.1      2.733      6.189
REMARK  6 active torsions:
REMARK  status: ('A' for Active; 'I' for Inactive)
REMARK    1  A    between atoms: C_9  and  O_10 
REMARK    2  A    between atoms: O_10  and  C_11 
REMARK    3  A    between atoms: C_11  and  C_12 
REMARK       I    between atoms: C_12  and  N_13 
REMARK    4  A    between atoms: N_13  and  C_14 
REMARK    5  A    between atoms: N_15  and  C_16 
REMARK    6  A    between atoms: C_27  and  C_28 
ROOT
HETATM    1  C   UNL     1       6.686  29.397  56.336  1.00  0.00     0.152 A 
HETATM    2  N   UNL     1       7.416  28.360  56.903  1.00  0.00    -0.044 N 
HETATM    3  N   UNL     1       7.983  28.714  58.099  1.00  0.00    -0.150 NA
HETATM    4  C   UNL     1       7.597  29.982  58.287  1.00  0.00     0.099 A 
HETATM    5  C   UNL     1       6.819  30.455  57.210  1.00  0.00     0.086 A 
ENDROOT
BRANCH   1   6
HETATM    6  N   UNL     1       5.972  29.275  55.149  1.00  0.00    -0.309 N 
HETATM    7  C   UNL     1       4.632  28.928  55.121  1.00  0.00     0.247 C 
HETATM    8  O   UNL     1       3.898  28.830  56.105  1.00  0.00    -0.271 OA
HETATM    9  H   UNL     1       6.459  29.437  54.263  1.00  0.00     0.170 HD
BRANCH   7  10
HETATM   10  C   UNL     1       4.115  28.529  53.742  1.00  0.00     0.278 C 
BRANCH  10  11
HETATM   11  O   UNL     1       5.038  28.723  52.680  1.00  0.00    -0.342 OA
BRANCH  11  12
HETATM   12  C   UNL     1       4.769  27.991  51.547  1.00  0.00     0.070 A 
HETATM   13  C   UNL     1       5.320  26.745  51.243  1.00  0.00     0.037 A 
HETATM   14  C   UNL     1       4.962  26.080  50.067  1.00  0.00     0.015 A 
HETATM   15  C   UNL     1       4.050  26.650  49.170  1.00  0.00    -0.026 A 
HETATM   16  C   UNL     1       3.675  25.982  47.993  1.00  0.00     0.012 A 
HETATM   17  C   UNL     1       3.497  27.918  49.463  1.00  0.00    -0.023 A 
HETATM   18  C   UNL     1       2.762  26.557  47.109  1.00  0.00     0.001 A 
HETATM   19  C   UNL     1       2.216  27.805  47.392  1.00  0.00     0.001 A 
HETATM   20  C   UNL     1       2.580  28.482  48.559  1.00  0.00     0.012 A 
HETATM   21  C   UNL     1       3.873  28.577  50.648  1.00  0.00     0.049 A 
ENDBRANCH  11  12
ENDBRANCH  10  11
ENDBRANCH   7  10
ENDBRANCH   1   6
BRANCH   2  22
HETATM   22  C   UNL     1       7.611  27.051  56.422  1.00  0.00     0.732 A 
HETATM   23  N   UNL     1       7.267  26.658  55.231  1.00  0.00    -0.067 NA
HETATM   24  C   UNL     1       7.550  25.342  54.980  1.00  0.00     0.065 A 
HETATM   25  C   UNL     1       8.125  24.486  55.825  1.00  0.00     0.036 A 
HETATM   26  C   UNL     1       7.239  24.682  53.678  1.00  0.00     0.061 C 
HETATM   27  C   UNL     1       8.304  23.127  55.268  1.00  0.00     0.047 C 
HETATM   28  C   UNL     1       8.504  24.944  57.160  1.00  0.00     0.268 A 
HETATM   29  C   UNL     1       7.429  23.193  54.010  1.00  0.00     0.011 C 
HETATM   30  O   UNL     1       9.034  24.214  57.985  1.00  0.00    -0.267 OA
HETATM   31  N   UNL     1       8.206  26.258  57.380  1.00  0.00    -0.152 N 
HETATM   32  H   UNL     1       8.431  26.666  58.282  1.00  0.00     0.188 HD
ENDBRANCH   2  22
BRANCH   4  33
HETATM   33  C   UNL     1       7.954  30.748  59.527  1.00  0.00     0.035 A 
HETATM   34  S   UNL     1       7.000  32.001  60.194  1.00  0.00    -0.100 SA
HETATM   35  C   UNL     1       8.086  32.223  61.498  1.00  0.00     0.050 A 
HETATM   36  C   UNL     1       9.160  31.366  61.424  1.00  0.00     0.008 A 
HETATM   37  C   UNL     1       9.085  30.513  60.282  1.00  0.00     0.022 A 
ENDBRANCH   4  33
TORSDOF 6
ENDMDL
MODEL 5
REMARK VINA RESULT:     -10.1      3.606      9.062
REMARK  6 active torsions:
REMARK  status: ('A' for Active; 'I' for Inactive)
REMARK    1  A    between atoms: C_9  and  O_10 
REMARK    2  A    between atoms: O_10  and  C_11 
REMARK    3  A    between atoms: C_11  and  C_12 
REMARK       I    between atoms: C_12  and  N_13 
REMARK    4  A    between atoms: N_13  and  C_14 
REMARK    5  A    between atoms: N_15  and  C_16 
REMARK    6  A    between atoms: C_27  and  C_28 
ROOT
HETATM    1  C   UNL     1       7.746  27.441  57.058  1.00  0.00     0.152 A 
HETATM    2  N   UNL     1       6.698  27.423  56.147  1.00  0.00    -0.044 N 
HETATM    3  N   UNL     1       6.586  26.219  55.504  1.00  0.00    -0.150 NA
HETATM    4  C   UNL     1       7.569  25.473  56.022  1.00  0.00     0.099 A 
HETATM    5  C   UNL     1       8.330  26.195  56.963  1.00  0.00     0.086 A 
ENDROOT
BRANCH   1   6
HETATM    6  N   UNL     1       8.038  28.528  57.874  1.00  0.00    -0.309 N 
HETATM    7  C   UNL     1       8.979  29.483  57.528  1.00  0.00     0.247 C 
HETATM    8  O   UNL     1       9.547  29.566  56.440  1.00  0.00    -0.271 OA
HETATM    9  H   UNL     1       7.546  28.620  58.767  1.00  0.00     0.170 HD
BRANCH   7  10
HETATM   10  C   UNL     1       9.392  30.402  58.676  1.00  0.00     0.278 C 
BRANCH  10  11
HETATM   11  O   UNL     1       8.808  30.086  59.931  1.00  0.00    -0.342 OA
BRANCH  11  12
HETATM   12  C   UNL     1       8.077  31.106  60.494  1.00  0.00     0.070 A 
HETATM   13  C   UNL     1       7.091  31.847  59.839  1.00  0.00     0.037 A 
HETATM   14  C   UNL     1       6.397  32.855  60.515  1.00  0.00     0.015 A 
HETATM   15  C   UNL     1       6.677  33.144  61.856  1.00  0.00    -0.026 A 
HETATM   16  C   UNL     1       5.975  34.145  62.545  1.00  0.00     0.012 A 
HETATM   17  C   UNL     1       7.683  32.409  62.523  1.00  0.00    -0.023 A 
HETATM   18  C   UNL     1       6.259  34.422  63.883  1.00  0.00     0.001 A 
HETATM   19  C   UNL     1       7.248  33.701  64.544  1.00  0.00     0.001 A 
HETATM   20  C   UNL     1       7.957  32.703  63.870  1.00  0.00     0.012 A 
HETATM   21  C   UNL     1       8.378  31.402  61.827  1.00  0.00     0.049 A 
ENDBRANCH  11  12
ENDBRANCH  10  11
ENDBRANCH   7  10
ENDBRANCH   1   6
BRANCH   2  22
HETATM   22  C   UNL     1       5.774  28.441  55.844  1.00  0.00     0.732 A 
HETATM   23  N   UNL     1       5.644  29.533  56.540  1.00  0.00    -0.067 NA
HETATM   24  C   UNL     1       4.682  30.382  56.063  1.00  0.00     0.065 A 
HETATM   25  C   UNL     1       3.916  30.179  54.990  1.00  0.00     0.036 A 
HETATM   26  C   UNL     1       4.364  31.689  56.708  1.00  0.00     0.061 C 
HETATM   27  C   UNL     1       2.964  31.279  54.720  1.00  0.00     0.047 C 
HETATM   28  C   UNL     1       4.074  28.947  54.220  1.00  0.00     0.268 A 
HETATM   29  C   UNL     1       3.044  32.082  56.025  1.00  0.00     0.011 C 
HETATM   30  O   UNL     1       3.406  28.696  53.228  1.00  0.00    -0.267 OA
HETATM   31  N   UNL     1       5.038  28.122  54.724  1.00  0.00    -0.152 N 
HETATM   32  H   UNL     1       5.219  27.239  54.255  1.00  0.00     0.188 HD
ENDBRANCH   2  22
BRANCH   4  33
HETATM   33  C   UNL     1       7.770  24.038  55.632  1.00  0.00     0.035 A 
HETATM   34  S   UNL     1       8.340  22.821  56.691  1.00  0.00    -0.100 SA
HETATM   35  C   UNL     1       8.212  21.617  55.483  1.00  0.00     0.050 A 
HETATM   36  C   UNL     1       7.753  22.130  54.291  1.00  0.00     0.008 A 
HETATM   37  C   UNL     1       7.499  23.532  54.376  1.00  0.00     0.022 A 
ENDBRANCH   4  33
TORSDOF 6
ENDMDL
MODEL 6
REMARK VINA RESULT:     -10.1      3.384      8.491
REMARK  6 active torsions:
REMARK  status: ('A' for Active; 'I' for Inactive)
REMARK    1  A    between atoms: C_9  and  O_10 
REMARK    2  A    between atoms: O_10  and  C_11 
REMARK    3  A    between atoms: C_11  and  C_12 
REMARK       I    between atoms: C_12  and  N_13 
REMARK    4  A    between atoms: N_13  and  C_14 
REMARK    5  A    between atoms: N_15  and  C_16 
REMARK    6  A    between atoms: C_27  and  C_28 
ROOT
HETATM    1  C   UNL     1       6.184  25.904  54.539  1.00  0.00     0.152 A 
HETATM    2  N   UNL     1       6.192  25.710  53.164  1.00  0.00    -0.044 N 
HETATM    3  N   UNL     1       6.709  24.491  52.812  1.00  0.00    -0.150 NA
HETATM    4  C   UNL     1       7.021  23.913  53.978  1.00  0.00     0.099 A 
HETATM    5  C   UNL     1       6.742  24.761  55.070  1.00  0.00     0.086 A 
ENDROOT
BRANCH   1   6
HETATM    6  N   UNL     1       5.663  27.038  55.153  1.00  0.00    -0.309 N 
HETATM    7  C   UNL     1       6.468  27.988  55.759  1.00  0.00     0.247 C 
HETATM    8  O   UNL     1       7.697  28.022  55.709  1.00  0.00    -0.271 OA
HETATM    9  H   UNL     1       4.648  27.169  55.165  1.00  0.00     0.170 HD
BRANCH   7  10
HETATM   10  C   UNL     1       5.714  28.973  56.649  1.00  0.00     0.278 C 
BRANCH  10  11
HETATM   11  O   UNL     1       6.149  30.321  56.547  1.00  0.00    -0.342 OA
BRANCH  11  12
HETATM   12  C   UNL     1       6.409  30.931  57.752  1.00  0.00     0.070 A 
HETATM   13  C   UNL     1       5.638  31.944  58.325  1.00  0.00     0.037 A 
HETATM   14  C   UNL     1       5.987  32.483  59.567  1.00  0.00     0.015 A 
HETATM   15  C   UNL     1       7.115  32.023  60.257  1.00  0.00    -0.026 A 
HETATM   16  C   UNL     1       7.464  32.550  61.511  1.00  0.00     0.012 A 
HETATM   17  C   UNL     1       7.910  31.008  59.678  1.00  0.00    -0.023 A 
HETATM   18  C   UNL     1       8.587  32.081  62.192  1.00  0.00     0.001 A 
HETATM   19  C   UNL     1       9.373  31.083  61.627  1.00  0.00     0.001 A 
HETATM   20  C   UNL     1       9.040  30.550  60.379  1.00  0.00     0.012 A 
HETATM   21  C   UNL     1       7.549  30.480  58.424  1.00  0.00     0.049 A 
ENDBRANCH  11  12
ENDBRANCH  10  11
ENDBRANCH   7  10
ENDBRANCH   1   6
BRANCH   2  22
HETATM   22  C   UNL     1       5.733  26.570  52.148  1.00  0.00     0.732 A 
HETATM   23  N   UNL     1       5.875  27.863  52.174  1.00  0.00    -0.067 NA
HETATM   24  C   UNL     1       5.350  28.499  51.081  1.00  0.00     0.065 A 
HETATM   25  C   UNL     1       4.742  27.915  50.048  1.00  0.00     0.036 A 
HETATM   26  C   UNL     1       5.400  29.979  50.905  1.00  0.00     0.061 C 
HETATM   27  C   UNL     1       4.280  28.865  49.012  1.00  0.00     0.047 C 
HETATM   28  C   UNL     1       4.591  26.461  50.034  1.00  0.00     0.268 A 
HETATM   29  C   UNL     1       4.421  30.207  49.742  1.00  0.00     0.011 C 
HETATM   30  O   UNL     1       4.045  25.860  49.121  1.00  0.00    -0.267 OA
HETATM   31  N   UNL     1       5.120  25.858  51.139  1.00  0.00    -0.152 N 
HETATM   32  H   UNL     1       5.061  24.848  51.220  1.00  0.00     0.188 HD
ENDBRANCH   2  22
BRANCH   4  33
HETATM   33  C   UNL     1       7.570  22.519  54.054  1.00  0.00     0.035 A 
HETATM   34  S   UNL     1       7.857  21.674  55.513  1.00  0.00    -0.100 SA
HETATM   35  C   UNL     1       8.392  20.280  54.679  1.00  0.00     0.050 A 
HETATM   36  C   UNL     1       8.362  20.454  53.314  1.00  0.00     0.008 A 
HETATM   37  C   UNL     1       7.889  21.751  52.952  1.00  0.00     0.022 A 
ENDBRANCH   4  33
TORSDOF 6
ENDMDL
MODEL 7
REMARK VINA RESULT:     -10.0      2.949      5.554
REMARK  6 active torsions:
REMARK  status: ('A' for Active; 'I' for Inactive)
REMARK    1  A    between atoms: C_9  and  O_10 
REMARK    2  A    between atoms: O_10  and  C_11 
REMARK    3  A    between atoms: C_11  and  C_12 
REMARK       I    between atoms: C_12  and  N_13 
REMARK    4  A    between atoms: N_13  and  C_14 
REMARK    5  A    between atoms: N_15  and  C_16 
REMARK    6  A    between atoms: C_27  and  C_28 
ROOT
HETATM    1  C   UNL     1       5.702  30.078  56.487  1.00  0.00     0.152 A 
HETATM    2  N   UNL     1       5.757  31.274  57.191  1.00  0.00    -0.044 N 
HETATM    3  N   UNL     1       5.024  32.266  56.594  1.00  0.00    -0.150 NA
HETATM    4  C   UNL     1       4.499  31.683  55.509  1.00  0.00     0.099 A 
HETATM    5  C   UNL     1       4.915  30.342  55.386  1.00  0.00     0.086 A 
ENDROOT
BRANCH   1   6
HETATM    6  N   UNL     1       6.318  28.906  56.911  1.00  0.00    -0.309 N 
HETATM    7  C   UNL     1       7.420  28.373  56.265  1.00  0.00     0.247 C 
HETATM    8  O   UNL     1       8.054  28.919  55.363  1.00  0.00    -0.271 OA
HETATM    9  H   UNL     1       5.936  28.415  57.724  1.00  0.00     0.170 HD
BRANCH   7  10
HETATM   10  C   UNL     1       7.750  26.937  56.667  1.00  0.00     0.278 C 
BRANCH  10  11
HETATM   11  O   UNL     1       6.727  25.992  56.387  1.00  0.00    -0.342 OA
BRANCH  11  12
HETATM   12  C   UNL     1       7.066  25.045  55.450  1.00  0.00     0.070 A 
HETATM   13  C   UNL     1       7.270  25.294  54.091  1.00  0.00     0.037 A 
HETATM   14  C   UNL     1       7.628  24.255  53.226  1.00  0.00     0.015 A 
HETATM   15  C   UNL     1       7.785  22.948  53.702  1.00  0.00    -0.026 A 
HETATM   16  C   UNL     1       8.157  21.902  52.843  1.00  0.00     0.012 A 
HETATM   17  C   UNL     1       7.566  22.683  55.073  1.00  0.00    -0.023 A 
HETATM   18  C   UNL     1       8.315  20.604  53.328  1.00  0.00     0.001 A 
HETATM   19  C   UNL     1       8.101  20.338  54.677  1.00  0.00     0.001 A 
HETATM   20  C   UNL     1       7.728  21.368  55.544  1.00  0.00     0.012 A 
HETATM   21  C   UNL     1       7.200  23.739  55.929  1.00  0.00     0.049 A 
ENDBRANCH  11  12
ENDBRANCH  10  11
ENDBRANCH   7  10
ENDBRANCH   1   6
BRANCH   2  22
HETATM   22  C   UNL     1       6.426  31.559  58.396  1.00  0.00     0.732 A 
HETATM   23  N   UNL     1       7.719  31.521  58.533  1.00  0.00    -0.067 NA
HETATM   24  C   UNL     1       8.151  31.833  59.794  1.00  0.00     0.065 A 
HETATM   25  C   UNL     1       7.380  32.159  60.832  1.00  0.00     0.036 A 
HETATM   26  C   UNL     1       9.594  31.850  60.174  1.00  0.00     0.061 C 
HETATM   27  C   UNL     1       8.136  32.447  62.071  1.00  0.00     0.047 C 
HETATM   28  C   UNL     1       5.929  32.196  60.662  1.00  0.00     0.268 A 
HETATM   29  C   UNL     1       9.530  31.921  61.709  1.00  0.00     0.011 C 
HETATM   30  O   UNL     1       5.162  32.485  61.568  1.00  0.00    -0.267 OA
HETATM   31  N   UNL     1       5.531  31.877  59.395  1.00  0.00    -0.152 N 
HETATM   32  H   UNL     1       4.538  31.874  59.181  1.00  0.00     0.188 HD
ENDBRANCH   2  22
BRANCH   4  33
HETATM   33  C   UNL     1       3.565  32.412  54.588  1.00  0.00     0.035 A 
HETATM   34  S   UNL     1       1.987  32.915  55.015  1.00  0.00    -0.100 SA
HETATM   35  C   UNL     1       1.729  33.631  53.483  1.00  0.00     0.050 A 
HETATM   36  C   UNL     1       2.819  33.483  52.656  1.00  0.00     0.008 A 
HETATM   37  C   UNL     1       3.881  32.775  53.294  1.00  0.00     0.022 A 
ENDBRANCH   4  33
TORSDOF 6
ENDMDL
MODEL 8
REMARK VINA RESULT:      -9.9      3.193      8.307
REMARK  6 active torsions:
REMARK  status: ('A' for Active; 'I' for Inactive)
REMARK    1  A    between atoms: C_9  and  O_10 
REMARK    2  A    between atoms: O_10  and  C_11 
REMARK    3  A    between atoms: C_11  and  C_12 
REMARK       I    between atoms: C_12  and  N_13 
REMARK    4  A    between atoms: N_13  and  C_14 
REMARK    5  A    between atoms: N_15  and  C_16 
REMARK    6  A    between atoms: C_27  and  C_28 
ROOT
HETATM    1  C   UNL     1       6.360  27.327  52.688  1.00  0.00     0.152 A 
HETATM    2  N   UNL     1       6.166  25.970  52.467  1.00  0.00    -0.044 N 
HETATM    3  N   UNL     1       5.443  25.725  51.329  1.00  0.00    -0.150 NA
HETATM    4  C   UNL     1       5.190  26.940  50.829  1.00  0.00     0.099 A 
HETATM    5  C   UNL     1       5.711  27.961  51.650  1.00  0.00     0.086 A 
ENDROOT
BRANCH   1   6
HETATM    6  N   UNL     1       7.105  27.835  53.747  1.00  0.00    -0.309 N 
HETATM    7  C   UNL     1       6.518  28.286  54.916  1.00  0.00     0.247 C 
HETATM    8  O   UNL     1       5.329  28.167  55.212  1.00  0.00    -0.271 OA
HETATM    9  H   UNL     1       8.123  27.886  53.653  1.00  0.00     0.170 HD
BRANCH   7  10
HETATM   10  C   UNL     1       7.449  29.097  55.815  1.00  0.00     0.278 C 
BRANCH  10  11
HETATM   11  O   UNL     1       6.796  30.040  56.652  1.00  0.00    -0.342 OA
BRANCH  11  12
HETATM   12  C   UNL     1       7.486  30.362  57.797  1.00  0.00     0.070 A 
HETATM   13  C   UNL     1       8.794  29.969  58.086  1.00  0.00     0.037 A 
HETATM   14  C   UNL     1       9.408  30.368  59.277  1.00  0.00     0.015 A 
HETATM   15  C   UNL     1       8.724  31.165  60.204  1.00  0.00    -0.026 A 
HETATM   16  C   UNL     1       9.337  31.581  61.396  1.00  0.00     0.012 A 
HETATM   17  C   UNL     1       7.394  31.557  59.926  1.00  0.00    -0.023 A 
HETATM   18  C   UNL     1       8.648  32.379  62.310  1.00  0.00     0.001 A 
HETATM   19  C   UNL     1       7.339  32.767  62.042  1.00  0.00     0.001 A 
HETATM   20  C   UNL     1       6.715  32.358  60.860  1.00  0.00     0.012 A 
HETATM   21  C   UNL     1       6.789  31.141  58.725  1.00  0.00     0.049 A 
ENDBRANCH  11  12
ENDBRANCH  10  11
ENDBRANCH   7  10
ENDBRANCH   1   6
BRANCH   2  22
HETATM   22  C   UNL     1       6.622  24.877  53.228  1.00  0.00     0.732 A 
HETATM   23  N   UNL     1       7.156  23.808  52.713  1.00  0.00    -0.067 NA
HETATM   24  C   UNL     1       7.524  22.872  53.642  1.00  0.00     0.065 A 
HETATM   25  C   UNL     1       7.385  22.978  54.964  1.00  0.00     0.036 A 
HETATM   26  C   UNL     1       8.154  21.571  53.273  1.00  0.00     0.061 C 
HETATM   27  C   UNL     1       7.880  21.801  55.712  1.00  0.00     0.047 C 
HETATM   28  C   UNL     1       6.783  24.185  55.526  1.00  0.00     0.268 A 
HETATM   29  C   UNL     1       8.065  20.776  54.586  1.00  0.00     0.011 C 
HETATM   30  O   UNL     1       6.624  24.349  56.726  1.00  0.00    -0.267 OA
HETATM   31  N   UNL     1       6.423  25.096  54.574  1.00  0.00    -0.152 N 
HETATM   32  H   UNL     1       5.994  25.967  54.869  1.00  0.00     0.188 HD
ENDBRANCH   2  22
BRANCH   4  33
HETATM   33  C   UNL     1       4.460  27.131  49.531  1.00  0.00     0.035 A 
HETATM   34  S   UNL     1       4.261  28.639  48.749  1.00  0.00    -0.100 SA
HETATM   35  C   UNL     1       3.418  27.926  47.443  1.00  0.00     0.050 A 
HETATM   36  C   UNL     1       3.280  26.565  47.601  1.00  0.00     0.008 A 
HETATM   37  C   UNL     1       3.881  26.105  48.811  1.00  0.00     0.022 A 
ENDBRANCH   4  33
TORSDOF 6
ENDMDL
MODEL 9
REMARK VINA RESULT:      -9.7      3.148      4.309
REMARK  6 active torsions:
REMARK  status: ('A' for Active; 'I' for Inactive)
REMARK    1  A    between atoms: C_9  and  O_10 
REMARK    2  A    between atoms: O_10  and  C_11 
REMARK    3  A    between atoms: C_11  and  C_12 
REMARK       I    between atoms: C_12  and  N_13 
REMARK    4  A    between atoms: N_13  and  C_14 
REMARK    5  A    between atoms: N_15  and  C_16 
REMARK    6  A    between atoms: C_27  and  C_28 
ROOT
HETATM    1  C   UNL     1       6.953  30.069  57.234  1.00  0.00     0.152 A 
HETATM    2  N   UNL     1       6.003  31.073  57.372  1.00  0.00    -0.044 N 
HETATM    3  N   UNL     1       6.112  31.734  58.567  1.00  0.00    -0.150 NA
HETATM    4  C   UNL     1       7.145  31.143  59.180  1.00  0.00     0.099 A 
HETATM    5  C   UNL     1       7.676  30.090  58.408  1.00  0.00     0.086 A 
ENDROOT
BRANCH   1   6
HETATM    6  N   UNL     1       7.085  29.287  56.092  1.00  0.00    -0.309 N 
HETATM    7  C   UNL     1       6.958  27.909  56.118  1.00  0.00     0.247 C 
HETATM    8  O   UNL     1       6.586  27.243  57.084  1.00  0.00    -0.271 OA
HETATM    9  H   UNL     1       7.294  29.747  55.202  1.00  0.00     0.170 HD
BRANCH   7  10
HETATM   10  C   UNL     1       7.453  27.208  54.855  1.00  0.00     0.278 C 
BRANCH  10  11
HETATM   11  O   UNL     1       6.488  26.387  54.214  1.00  0.00    -0.342 OA
BRANCH  11  12
HETATM   12  C   UNL     1       6.937  25.129  53.884  1.00  0.00     0.070 A 
HETATM   13  C   UNL     1       7.335  24.725  52.609  1.00  0.00     0.037 A 
HETATM   14  C   UNL     1       7.792  23.421  52.389  1.00  0.00     0.015 A 
HETATM   15  C   UNL     1       7.854  22.497  53.439  1.00  0.00    -0.026 A 
HETATM   16  C   UNL     1       8.324  21.191  53.229  1.00  0.00     0.012 A 
HETATM   17  C   UNL     1       7.440  22.893  54.731  1.00  0.00    -0.023 A 
HETATM   18  C   UNL     1       8.386  20.279  54.283  1.00  0.00     0.001 A 
HETATM   19  C   UNL     1       7.979  20.664  55.557  1.00  0.00     0.001 A 
HETATM   20  C   UNL     1       7.508  21.960  55.780  1.00  0.00     0.012 A 
HETATM   21  C   UNL     1       6.977  24.207  54.934  1.00  0.00     0.049 A 
ENDBRANCH  11  12
ENDBRANCH  10  11
ENDBRANCH   7  10
ENDBRANCH   1   6
BRANCH   2  22
HETATM   22  C   UNL     1       5.009  31.479  56.462  1.00  0.00     0.732 A 
HETATM   23  N   UNL     1       4.895  31.009  55.254  1.00  0.00    -0.067 NA
HETATM   24  C   UNL     1       3.857  31.550  54.545  1.00  0.00     0.065 A 
HETATM   25  C   UNL     1       2.999  32.471  54.986  1.00  0.00     0.036 A 
HETATM   26  C   UNL     1       3.545  31.156  53.140  1.00  0.00     0.061 C 
HETATM   27  C   UNL     1       1.978  32.861  53.988  1.00  0.00     0.047 C 
HETATM   28  C   UNL     1       3.140  32.989  56.345  1.00  0.00     0.268 A 
HETATM   29  C   UNL     1       2.551  32.246  52.705  1.00  0.00     0.011 C 
HETATM   30  O   UNL     1       2.391  33.833  56.813  1.00  0.00    -0.267 OA
HETATM   31  N   UNL     1       4.186  32.433  57.023  1.00  0.00    -0.152 N 
HETATM   32  H   UNL     1       4.366  32.733  57.976  1.00  0.00     0.188 HD
ENDBRANCH   2  22
BRANCH   4  33
HETATM   33  C   UNL     1       7.651  31.608  60.514  1.00  0.00     0.035 A 
HETATM   34  S   UNL     1       6.646  32.080  61.816  1.00  0.00    -0.100 SA
HETATM   35  C   UNL     1       7.990  32.379  62.832  1.00  0.00     0.050 A 
HETATM   36  C   UNL     1       9.183  32.134  62.192  1.00  0.00     0.008 A 
HETATM   37  C   UNL     1       8.988  31.690  60.849  1.00  0.00     0.022 A 
ENDBRANCH   4  33
TORSDOF 6
ENDMDL
MODEL 10
REMARK VINA RESULT:      -9.6      3.405      8.214
REMARK  6 active torsions:
REMARK  status: ('A' for Active; 'I' for Inactive)
REMARK    1  A    between atoms: C_9  and  O_10 
REMARK    2  A    between atoms: O_10  and  C_11 
REMARK    3  A    between atoms: C_11  and  C_12 
REMARK       I    between atoms: C_12  and  N_13 
REMARK    4  A    between atoms: N_13  and  C_14 
REMARK    5  A    between atoms: N_15  and  C_16 
REMARK    6  A    between atoms: C_27  and  C_28 
ROOT
HETATM    1  C   UNL     1       5.945  28.049  53.020  1.00  0.00     0.152 A 
HETATM    2  N   UNL     1       5.977  26.684  52.766  1.00  0.00    -0.044 N 
HETATM    3  N   UNL     1       5.394  26.362  51.569  1.00  0.00    -0.150 NA
HETATM    4  C   UNL     1       5.000  27.538  51.064  1.00  0.00     0.099 A 
HETATM    5  C   UNL     1       5.293  28.604  51.939  1.00  0.00     0.086 A 
ENDROOT
BRANCH   1   6
HETATM    6  N   UNL     1       6.516  28.635  54.144  1.00  0.00    -0.309 N 
HETATM    7  C   UNL     1       5.768  28.998  55.251  1.00  0.00     0.247 C 
HETATM    8  O   UNL     1       4.581  28.729  55.432  1.00  0.00    -0.271 OA
HETATM    9  H   UNL     1       7.524  28.815  54.148  1.00  0.00     0.170 HD
BRANCH   7  10
HETATM   10  C   UNL     1       6.501  29.911  56.232  1.00  0.00     0.278 C 
BRANCH  10  11
HETATM   11  O   UNL     1       5.726  30.991  56.731  1.00  0.00    -0.342 OA
BRANCH  11  12
HETATM   12  C   UNL     1       6.103  31.437  57.977  1.00  0.00     0.070 A 
HETATM   13  C   UNL     1       5.423  32.398  58.728  1.00  0.00     0.037 A 
HETATM   14  C   UNL     1       5.887  32.766  59.994  1.00  0.00     0.015 A 
HETATM   15  C   UNL     1       7.042  32.184  60.531  1.00  0.00    -0.026 A 
HETATM   16  C   UNL     1       7.507  32.539  61.807  1.00  0.00     0.012 A 
HETATM   17  C   UNL     1       7.745  31.222  59.772  1.00  0.00    -0.023 A 
HETATM   18  C   UNL     1       8.657  31.950  62.335  1.00  0.00     0.001 A 
HETATM   19  C   UNL     1       9.353  31.003  61.592  1.00  0.00     0.001 A 
HETATM   20  C   UNL     1       8.903  30.641  60.319  1.00  0.00     0.012 A 
HETATM   21  C   UNL     1       7.268  30.867  58.497  1.00  0.00     0.049 A 
ENDBRANCH  11  12
ENDBRANCH  10  11
ENDBRANCH   7  10
ENDBRANCH   1   6
BRANCH   2  22
HETATM   22  C   UNL     1       6.530  25.652  53.549  1.00  0.00     0.732 A 
HETATM   23  N   UNL     1       6.649  25.709  54.843  1.00  0.00    -0.067 NA
HETATM   24  C   UNL     1       7.217  24.593  55.395  1.00  0.00     0.065 A 
HETATM   25  C   UNL     1       7.629  23.510  54.734  1.00  0.00     0.036 A 
HETATM   26  C   UNL     1       7.450  24.444  56.861  1.00  0.00     0.061 C 
HETATM   27  C   UNL     1       8.202  22.460  55.605  1.00  0.00     0.047 C 
HETATM   28  C   UNL     1       7.489  23.463  53.280  1.00  0.00     0.268 A 
HETATM   29  C   UNL     1       8.377  23.220  56.927  1.00  0.00     0.011 C 
HETATM   30  O   UNL     1       7.845  22.505  52.611  1.00  0.00    -0.267 OA
HETATM   31  N   UNL     1       6.923  24.592  52.761  1.00  0.00    -0.152 N 
HETATM   32  H   UNL     1       6.786  24.652  51.756  1.00  0.00     0.188 HD
ENDBRANCH   2  22
BRANCH   4  33
HETATM   33  C   UNL     1       4.358  27.649  49.713  1.00  0.00     0.035 A 
HETATM   34  S   UNL     1       4.373  26.411  48.532  1.00  0.00    -0.100 SA
HETATM   35  C   UNL     1       3.442  27.347  47.444  1.00  0.00     0.050 A 
HETATM   36  C   UNL     1       3.131  28.583  47.963  1.00  0.00     0.008 A 
HETATM   37  C   UNL     1       3.663  28.759  49.276  1.00  0.00     0.022 A 
ENDBRANCH   4  33
TORSDOF 6
ENDMDL
