MODEL 1
REMARK VINA RESULT:      -9.5      0.000      0.000
REMARK  10 active torsions:
REMARK  status: ('A' for Active; 'I' for Inactive)
REMARK    1  A    between atoms: C_2  and  O_3 
REMARK    2  A    between atoms: O_3  and  C_4 
REMARK    3  A    between atoms: C_7  and  C_8 
REMARK    4  A    between atoms: C_8  and  C_9 
REMARK    5  A    between atoms: C_10  and  C_11 
REMARK    6  A    between atoms: C_14  and  N_15 
REMARK    7  A    between atoms: N_20  and  C_21 
REMARK    8  A    between atoms: C_21  and  C_22 
REMARK    9  A    between atoms: C_22  and  N_23 
REMARK   10  A    between atoms: C_34  and  O_35 
ROOT
HETATM    1  C   UNL     1       5.359  26.341  53.017  1.00  0.00     0.059 C 
HETATM    2  C   UNL     1       6.592  26.099  53.827  1.00  0.00     0.161 C 
HETATM    3  N   UNL     1       6.212  26.681  55.117  1.00  0.00    -0.332 N 
HETATM    4  C   UNL     1       5.052  27.425  54.978  1.00  0.00     0.278 C 
HETATM    5  O   UNL     1       4.626  28.218  55.802  1.00  0.00    -0.265 OA
HETATM    6  C   UNL     1       4.460  27.090  53.674  1.00  0.00     0.146 C 
ENDROOT
BRANCH   1   7
HETATM    7  C   UNL     1       5.016  25.822  51.677  1.00  0.00     0.193 C 
HETATM    8  O   UNL     1       4.653  24.650  51.578  1.00  0.00    -0.287 OA
BRANCH   7   9
HETATM    9  C   UNL     1       5.112  26.658  50.461  1.00  0.00     0.015 A 
HETATM   10  C   UNL     1       5.549  27.987  50.491  1.00  0.00     0.018 A 
HETATM   11  C   UNL     1       5.566  28.745  49.314  1.00  0.00     0.038 A 
HETATM   12  C   UNL     1       5.124  28.183  48.117  1.00  0.00     0.069 A 
HETATM   13  C   UNL     1       4.641  26.878  48.091  1.00  0.00     0.038 A 
HETATM   14  C   UNL     1       4.643  26.113  49.258  1.00  0.00     0.018 A 
BRANCH  12  15
HETATM   15  O   UNL     1       5.011  28.916  46.972  1.00  0.00    -0.347 OA
BRANCH  15  16
HETATM   16  C   UNL     1       4.266  30.133  47.123  1.00  0.00     0.120 C 
HETATM   17  C   UNL     1       2.784  29.828  46.932  1.00  0.00     0.040 C 
HETATM   18  C   UNL     1       4.750  31.098  46.045  1.00  0.00     0.040 C 
ENDBRANCH  15  16
ENDBRANCH  12  15
ENDBRANCH   7   9
ENDBRANCH   1   7
BRANCH   2  19
HETATM   19  C   UNL     1       7.056  24.666  53.972  1.00  0.00    -0.030 A 
HETATM   20  C   UNL     1       7.713  24.047  52.890  1.00  0.00     0.012 A 
HETATM   21  C   UNL     1       8.172  22.731  52.983  1.00  0.00     0.037 A 
HETATM   22  C   UNL     1       7.975  22.014  54.168  1.00  0.00     0.102 A 
HETATM   23  C   UNL     1       7.322  22.611  55.254  1.00  0.00     0.037 A 
HETATM   24  C   UNL     1       6.873  23.932  55.156  1.00  0.00     0.012 A 
BRANCH  22  25
HETATM   25  N   UNL     1       8.476  20.637  54.276  1.00  0.00    -0.116 N 
HETATM   26  O   UNL     1       8.630  20.003  53.224  1.00  0.00    -0.532 OA
HETATM   27  O   UNL     1       8.742  20.214  55.407  1.00  0.00    -0.532 OA
ENDBRANCH  22  25
ENDBRANCH   2  19
BRANCH   6  28
HETATM   28  O   UNL     1       3.220  27.501  53.285  1.00  0.00    -0.355 OA
HETATM   29  H   UNL     1       3.167  27.404  52.304  1.00  0.00     0.218 HD
ENDBRANCH   6  28
BRANCH   3  30
HETATM   30  C   UNL     1       7.175  26.947  56.181  1.00  0.00     0.155 C 
BRANCH  30  31
HETATM   31  C   UNL     1       8.520  27.555  55.687  1.00  0.00     0.254 C 
BRANCH  31  32
HETATM   32  N   UNL     1       8.549  29.093  55.782  1.00  0.00    -0.066 N 
HETATM   33  H   UNL     1       8.069  29.415  54.926  1.00  0.00     0.280 HD
HETATM   34  C   UNL     1       9.966  29.677  55.695  1.00  0.00     0.262 C 
HETATM   35  C   UNL     1      10.719  29.624  57.047  1.00  0.00     0.260 C 
HETATM   36  N   UNL     1       9.907  30.257  58.148  1.00  0.00    -0.072 N 
HETATM   37  H   UNL     1       9.843  31.282  58.034  1.00  0.00     0.277 HD
HETATM   38  H   UNL     1      10.409  30.135  59.045  1.00  0.00     0.277 HD
HETATM   39  C   UNL     1       8.534  29.643  58.301  1.00  0.00     0.260 C 
HETATM   40  C   UNL     1       7.758  29.692  56.959  1.00  0.00     0.262 C 
ENDBRANCH  31  32
ENDBRANCH  30  31
ENDBRANCH   3  30
TORSDOF 10
ENDMDL
MODEL 2
REMARK VINA RESULT:      -9.5      4.873      8.793
REMARK  10 active torsions:
REMARK  status: ('A' for Active; 'I' for Inactive)
REMARK    1  A    between atoms: C_2  and  O_3 
REMARK    2  A    between atoms: O_3  and  C_4 
REMARK    3  A    between atoms: C_7  and  C_8 
REMARK    4  A    between atoms: C_8  and  C_9 
REMARK    5  A    between atoms: C_10  and  C_11 
REMARK    6  A    between atoms: C_14  and  N_15 
REMARK    7  A    between atoms: N_20  and  C_21 
REMARK    8  A    between atoms: C_21  and  C_22 
REMARK    9  A    between atoms: C_22  and  N_23 
REMARK   10  A    between atoms: C_34  and  O_35 
ROOT
HETATM    1  C   UNL     1       8.756  30.360  57.854  1.00  0.00     0.059 C 
HETATM    2  C   UNL     1       7.441  30.376  58.564  1.00  0.00     0.161 C 
HETATM    3  N   UNL     1       7.634  31.476  59.513  1.00  0.00    -0.332 N 
HETATM    4  C   UNL     1       8.971  31.835  59.555  1.00  0.00     0.278 C 
HETATM    5  O   UNL     1       9.480  32.540  60.412  1.00  0.00    -0.265 OA
HETATM    6  C   UNL     1       9.639  31.207  58.406  1.00  0.00     0.146 C 
ENDROOT
BRANCH   1   7
HETATM    7  C   UNL     1       9.145  29.609  56.643  1.00  0.00     0.193 C 
HETATM    8  O   UNL     1      10.053  30.056  55.942  1.00  0.00    -0.287 OA
BRANCH   7   9
HETATM    9  C   UNL     1       8.468  28.356  56.244  1.00  0.00     0.015 A 
HETATM   10  C   UNL     1       8.423  27.226  57.069  1.00  0.00     0.018 A 
HETATM   11  C   UNL     1       7.816  26.051  56.613  1.00  0.00     0.038 A 
HETATM   12  C   UNL     1       7.279  25.997  55.328  1.00  0.00     0.069 A 
HETATM   13  C   UNL     1       7.365  27.101  54.485  1.00  0.00     0.038 A 
HETATM   14  C   UNL     1       7.951  28.282  54.944  1.00  0.00     0.018 A 
BRANCH  12  15
HETATM   15  O   UNL     1       6.783  24.841  54.798  1.00  0.00    -0.347 OA
BRANCH  15  16
HETATM   16  C   UNL     1       7.789  23.925  54.342  1.00  0.00     0.120 C 
HETATM   17  C   UNL     1       7.620  23.719  52.840  1.00  0.00     0.040 C 
HETATM   18  C   UNL     1       7.573  22.609  55.084  1.00  0.00     0.040 C 
ENDBRANCH  15  16
ENDBRANCH  12  15
ENDBRANCH   7   9
ENDBRANCH   1   7
BRANCH   2  19
HETATM   19  C   UNL     1       6.200  30.572  57.720  1.00  0.00    -0.030 A 
HETATM   20  C   UNL     1       5.933  31.846  57.182  1.00  0.00     0.012 A 
HETATM   21  C   UNL     1       4.808  32.071  56.385  1.00  0.00     0.037 A 
HETATM   22  C   UNL     1       3.930  31.015  56.118  1.00  0.00     0.102 A 
HETATM   23  C   UNL     1       4.176  29.741  56.645  1.00  0.00     0.037 A 
HETATM   24  C   UNL     1       5.310  29.522  57.436  1.00  0.00     0.012 A 
BRANCH  22  25
HETATM   25  N   UNL     1       2.758  31.243  55.262  1.00  0.00    -0.116 N 
HETATM   26  O   UNL     1       1.761  31.759  55.787  1.00  0.00    -0.532 OA
HETATM   27  O   UNL     1       2.854  30.937  54.068  1.00  0.00    -0.532 OA
ENDBRANCH  22  25
ENDBRANCH   2  19
BRANCH   6  28
HETATM   28  O   UNL     1      10.920  31.491  58.035  1.00  0.00    -0.355 OA
HETATM   29  H   UNL     1      10.887  32.246  57.401  1.00  0.00     0.218 HD
ENDBRANCH   6  28
BRANCH   3  30
HETATM   30  C   UNL     1       6.733  31.722  60.635  1.00  0.00     0.155 C 
BRANCH  30  31
HETATM   31  C   UNL     1       5.958  33.069  60.545  1.00  0.00     0.254 C 
BRANCH  31  32
HETATM   32  N   UNL     1       6.152  33.952  61.793  1.00  0.00    -0.066 N 
HETATM   33  H   UNL     1       6.968  34.544  61.568  1.00  0.00     0.280 HD
HETATM   34  C   UNL     1       6.562  33.155  63.039  1.00  0.00     0.262 C 
HETATM   35  C   UNL     1       5.356  32.493  63.750  1.00  0.00     0.260 C 
HETATM   36  N   UNL     1       4.279  33.505  64.049  1.00  0.00    -0.072 N 
HETATM   37  H   UNL     1       4.568  34.162  64.790  1.00  0.00     0.277 HD
HETATM   38  H   UNL     1       3.463  33.012  64.454  1.00  0.00     0.277 HD
HETATM   39  C   UNL     1       3.806  34.247  62.820  1.00  0.00     0.260 C 
HETATM   40  C   UNL     1       4.997  34.924  62.095  1.00  0.00     0.262 C 
ENDBRANCH  31  32
ENDBRANCH  30  31
ENDBRANCH   3  30
TORSDOF 10
ENDMDL
MODEL 3
REMARK VINA RESULT:      -9.3      2.957      6.125
REMARK  10 active torsions:
REMARK  status: ('A' for Active; 'I' for Inactive)
REMARK    1  A    between atoms: C_2  and  O_3 
REMARK    2  A    between atoms: O_3  and  C_4 
REMARK    3  A    between atoms: C_7  and  C_8 
REMARK    4  A    between atoms: C_8  and  C_9 
REMARK    5  A    between atoms: C_10  and  C_11 
REMARK    6  A    between atoms: C_14  and  N_15 
REMARK    7  A    between atoms: N_20  and  C_21 
REMARK    8  A    between atoms: C_21  and  C_22 
REMARK    9  A    between atoms: C_22  and  N_23 
REMARK   10  A    between atoms: C_34  and  O_35 
ROOT
HETATM    1  C   UNL     1       4.701  27.889  51.293  1.00  0.00     0.059 C 
HETATM    2  C   UNL     1       5.361  28.799  52.280  1.00  0.00     0.161 C 
HETATM    3  N   UNL     1       4.315  29.803  52.497  1.00  0.00    -0.332 N 
HETATM    4  C   UNL     1       3.321  29.664  51.542  1.00  0.00     0.278 C 
HETATM    5  O   UNL     1       2.453  30.491  51.310  1.00  0.00    -0.265 OA
HETATM    6  C   UNL     1       3.521  28.370  50.873  1.00  0.00     0.146 C 
ENDROOT
BRANCH   1   7
HETATM    7  C   UNL     1       5.150  26.569  50.810  1.00  0.00     0.193 C 
HETATM    8  O   UNL     1       4.918  26.263  49.640  1.00  0.00    -0.287 OA
BRANCH   7   9
HETATM    9  C   UNL     1       5.847  25.604  51.688  1.00  0.00     0.015 A 
HETATM   10  C   UNL     1       5.187  24.875  52.684  1.00  0.00     0.018 A 
HETATM   11  C   UNL     1       5.912  24.019  53.520  1.00  0.00     0.038 A 
HETATM   12  C   UNL     1       7.295  23.911  53.379  1.00  0.00     0.069 A 
HETATM   13  C   UNL     1       7.963  24.671  52.424  1.00  0.00     0.038 A 
HETATM   14  C   UNL     1       7.241  25.511  51.573  1.00  0.00     0.018 A 
BRANCH  12  15
HETATM   15  O   UNL     1       8.056  23.181  54.244  1.00  0.00    -0.347 OA
BRANCH  15  16
HETATM   16  C   UNL     1       7.655  21.809  54.367  1.00  0.00     0.120 C 
HETATM   17  C   UNL     1       8.148  21.272  55.707  1.00  0.00     0.040 C 
HETATM   18  C   UNL     1       8.306  21.043  53.218  1.00  0.00     0.040 C 
ENDBRANCH  15  16
ENDBRANCH  12  15
ENDBRANCH   7   9
ENDBRANCH   1   7
BRANCH   2  19
HETATM   19  C   UNL     1       5.830  28.186  53.581  1.00  0.00    -0.030 A 
HETATM   20  C   UNL     1       4.876  27.655  54.471  1.00  0.00     0.012 A 
HETATM   21  C   UNL     1       5.263  27.065  55.677  1.00  0.00     0.037 A 
HETATM   22  C   UNL     1       6.621  27.003  56.009  1.00  0.00     0.102 A 
HETATM   23  C   UNL     1       7.586  27.527  55.138  1.00  0.00     0.037 A 
HETATM   24  C   UNL     1       7.190  28.108  53.928  1.00  0.00     0.012 A 
BRANCH  22  25
HETATM   25  N   UNL     1       7.033  26.364  57.266  1.00  0.00    -0.116 N 
HETATM   26  O   UNL     1       6.756  25.166  57.413  1.00  0.00    -0.532 OA
HETATM   27  O   UNL     1       7.660  27.055  58.079  1.00  0.00    -0.532 OA
ENDBRANCH  22  25
ENDBRANCH   2  19
BRANCH   6  28
HETATM   28  O   UNL     1       2.621  27.827  50.004  1.00  0.00    -0.355 OA
HETATM   29  H   UNL     1       1.784  28.345  50.079  1.00  0.00     0.218 HD
ENDBRANCH   6  28
BRANCH   3  30
HETATM   30  C   UNL     1       4.563  31.071  53.174  1.00  0.00     0.155 C 
BRANCH  30  31
HETATM   31  C   UNL     1       4.048  31.121  54.642  1.00  0.00     0.254 C 
BRANCH  31  32
HETATM   32  N   UNL     1       5.083  31.717  55.616  1.00  0.00    -0.066 N 
HETATM   33  H   UNL     1       5.771  32.189  55.007  1.00  0.00     0.280 HD
HETATM   34  C   UNL     1       5.882  30.649  56.377  1.00  0.00     0.262 C 
HETATM   35  C   UNL     1       5.117  30.090  57.601  1.00  0.00     0.260 C 
HETATM   36  N   UNL     1       4.647  31.202  58.504  1.00  0.00    -0.072 N 
HETATM   37  H   UNL     1       5.436  31.654  58.993  1.00  0.00     0.277 HD
HETATM   38  H   UNL     1       4.079  30.793  59.268  1.00  0.00     0.277 HD
HETATM   39  C   UNL     1       3.794  32.225  57.790  1.00  0.00     0.260 C 
HETATM   40  C   UNL     1       4.543  32.804  56.563  1.00  0.00     0.262 C 
ENDBRANCH  31  32
ENDBRANCH  30  31
ENDBRANCH   3  30
TORSDOF 10
ENDMDL
MODEL 4
REMARK VINA RESULT:      -9.3      3.831      8.359
REMARK  10 active torsions:
REMARK  status: ('A' for Active; 'I' for Inactive)
REMARK    1  A    between atoms: C_2  and  O_3 
REMARK    2  A    between atoms: O_3  and  C_4 
REMARK    3  A    between atoms: C_7  and  C_8 
REMARK    4  A    between atoms: C_8  and  C_9 
REMARK    5  A    between atoms: C_10  and  C_11 
REMARK    6  A    between atoms: C_14  and  N_15 
REMARK    7  A    between atoms: N_20  and  C_21 
REMARK    8  A    between atoms: C_21  and  C_22 
REMARK    9  A    between atoms: C_22  and  N_23 
REMARK   10  A    between atoms: C_34  and  O_35 
ROOT
HETATM    1  C   UNL     1       4.946  28.049  55.153  1.00  0.00     0.059 C 
HETATM    2  C   UNL     1       5.920  27.464  56.126  1.00  0.00     0.161 C 
HETATM    3  N   UNL     1       6.229  26.179  55.494  1.00  0.00    -0.332 N 
HETATM    4  C   UNL     1       5.331  25.927  54.470  1.00  0.00     0.278 C 
HETATM    5  O   UNL     1       5.175  24.846  53.925  1.00  0.00    -0.265 OA
HETATM    6  C   UNL     1       4.611  27.178  54.189  1.00  0.00     0.146 C 
ENDROOT
BRANCH   1   7
HETATM    7  C   UNL     1       4.396  29.418  55.105  1.00  0.00     0.193 C 
HETATM    8  O   UNL     1       3.886  29.808  54.055  1.00  0.00    -0.287 OA
BRANCH   7   9
HETATM    9  C   UNL     1       4.458  30.332  56.267  1.00  0.00     0.015 A 
HETATM   10  C   UNL     1       3.641  30.178  57.393  1.00  0.00     0.018 A 
HETATM   11  C   UNL     1       3.707  31.108  58.436  1.00  0.00     0.038 A 
HETATM   12  C   UNL     1       4.566  32.202  58.343  1.00  0.00     0.069 A 
HETATM   13  C   UNL     1       5.344  32.387  57.204  1.00  0.00     0.038 A 
HETATM   14  C   UNL     1       5.297  31.450  56.170  1.00  0.00     0.018 A 
BRANCH  12  15
HETATM   15  O   UNL     1       4.579  33.194  59.279  1.00  0.00    -0.347 OA
BRANCH  15  16
HETATM   16  C   UNL     1       4.957  32.758  60.593  1.00  0.00     0.120 C 
HETATM   17  C   UNL     1       4.684  33.887  61.582  1.00  0.00     0.040 C 
HETATM   18  C   UNL     1       6.449  32.440  60.553  1.00  0.00     0.040 C 
ENDBRANCH  15  16
ENDBRANCH  12  15
ENDBRANCH   7   9
ENDBRANCH   1   7
BRANCH   2  19
HETATM   19  C   UNL     1       7.172  28.263  56.417  1.00  0.00    -0.030 A 
HETATM   20  C   UNL     1       7.434  28.666  57.741  1.00  0.00     0.012 A 
HETATM   21  C   UNL     1       8.585  29.391  58.060  1.00  0.00     0.037 A 
HETATM   22  C   UNL     1       9.491  29.726  57.048  1.00  0.00     0.102 A 
HETATM   23  C   UNL     1       9.248  29.336  55.725  1.00  0.00     0.037 A 
HETATM   24  C   UNL     1       8.097  28.602  55.416  1.00  0.00     0.012 A 
BRANCH  22  25
HETATM   25  N   UNL     1      10.713  30.470  57.384  1.00  0.00    -0.116 N 
HETATM   26  O   UNL     1      11.797  29.926  57.134  1.00  0.00    -0.532 OA
HETATM   27  O   UNL     1      10.579  31.603  57.862  1.00  0.00    -0.532 OA
ENDBRANCH  22  25
ENDBRANCH   2  19
BRANCH   6  28
HETATM   28  O   UNL     1       3.780  27.342  53.120  1.00  0.00    -0.355 OA
HETATM   29  H   UNL     1       3.018  27.894  53.417  1.00  0.00     0.218 HD
ENDBRANCH   6  28
BRANCH   3  30
HETATM   30  C   UNL     1       6.930  25.103  56.187  1.00  0.00     0.155 C 
BRANCH  30  31
HETATM   31  C   UNL     1       7.888  24.277  55.279  1.00  0.00     0.254 C 
BRANCH  31  32
HETATM   32  N   UNL     1       7.298  22.910  54.880  1.00  0.00    -0.066 N 
HETATM   33  H   UNL     1       6.283  23.079  54.799  1.00  0.00     0.280 HD
HETATM   34  C   UNL     1       7.446  21.845  55.975  1.00  0.00     0.262 C 
HETATM   35  C   UNL     1       8.848  21.188  55.986  1.00  0.00     0.260 C 
HETATM   36  N   UNL     1       9.211  20.658  54.622  1.00  0.00    -0.072 N 
HETATM   37  H   UNL     1       8.643  19.833  54.370  1.00  0.00     0.277 HD
HETATM   38  H   UNL     1      10.180  20.295  54.653  1.00  0.00     0.277 HD
HETATM   39  C   UNL     1       9.146  21.712  53.540  1.00  0.00     0.260 C 
HETATM   40  C   UNL     1       7.747  22.379  53.506  1.00  0.00     0.262 C 
ENDBRANCH  31  32
ENDBRANCH  30  31
ENDBRANCH   3  30
TORSDOF 10
ENDMDL
MODEL 5
REMARK VINA RESULT:      -9.2      3.278      7.384
REMARK  10 active torsions:
REMARK  status: ('A' for Active; 'I' for Inactive)
REMARK    1  A    between atoms: C_2  and  O_3 
REMARK    2  A    between atoms: O_3  and  C_4 
REMARK    3  A    between atoms: C_7  and  C_8 
REMARK    4  A    between atoms: C_8  and  C_9 
REMARK    5  A    between atoms: C_10  and  C_11 
REMARK    6  A    between atoms: C_14  and  N_15 
REMARK    7  A    between atoms: N_20  and  C_21 
REMARK    8  A    between atoms: C_21  and  C_22 
REMARK    9  A    between atoms: C_22  and  N_23 
REMARK   10  A    between atoms: C_34  and  O_35 
ROOT
HETATM    1  C   UNL     1       5.849  27.485  56.793  1.00  0.00     0.059 C 
HETATM    2  C   UNL     1       5.184  28.540  55.968  1.00  0.00     0.161 C 
HETATM    3  N   UNL     1       6.004  29.714  56.276  1.00  0.00    -0.332 N 
HETATM    4  C   UNL     1       6.827  29.445  57.358  1.00  0.00     0.278 C 
HETATM    5  O   UNL     1       7.439  30.285  57.998  1.00  0.00    -0.265 OA
HETATM    6  C   UNL     1       6.806  27.992  57.585  1.00  0.00     0.146 C 
ENDROOT
BRANCH   1   7
HETATM    7  C   UNL     1       5.626  26.026  56.783  1.00  0.00     0.193 C 
HETATM    8  O   UNL     1       4.700  25.570  57.454  1.00  0.00    -0.287 OA
BRANCH   7   9
HETATM    9  C   UNL     1       6.487  25.103  56.011  1.00  0.00     0.015 A 
HETATM   10  C   UNL     1       6.208  24.738  54.689  1.00  0.00     0.018 A 
HETATM   11  C   UNL     1       7.030  23.817  54.030  1.00  0.00     0.038 A 
HETATM   12  C   UNL     1       8.111  23.244  54.698  1.00  0.00     0.069 A 
HETATM   13  C   UNL     1       8.364  23.565  56.028  1.00  0.00     0.038 A 
HETATM   14  C   UNL     1       7.559  24.500  56.683  1.00  0.00     0.018 A 
BRANCH  12  15
HETATM   15  O   UNL     1       8.868  22.258  54.137  1.00  0.00    -0.347 OA
BRANCH  15  16
HETATM   16  C   UNL     1       8.214  20.982  54.068  1.00  0.00     0.120 C 
HETATM   17  C   UNL     1       8.800  20.071  55.142  1.00  0.00     0.040 C 
HETATM   18  C   UNL     1       8.487  20.407  52.681  1.00  0.00     0.040 C 
ENDBRANCH  15  16
ENDBRANCH  12  15
ENDBRANCH   7   9
ENDBRANCH   1   7
BRANCH   2  19
HETATM   19  C   UNL     1       5.089  28.296  54.477  1.00  0.00    -0.030 A 
HETATM   20  C   UNL     1       6.273  28.098  53.740  1.00  0.00     0.012 A 
HETATM   21  C   UNL     1       6.234  27.855  52.364  1.00  0.00     0.037 A 
HETATM   22  C   UNL     1       5.000  27.809  51.707  1.00  0.00     0.102 A 
HETATM   23  C   UNL     1       3.811  28.004  52.422  1.00  0.00     0.037 A 
HETATM   24  C   UNL     1       3.859  28.239  53.801  1.00  0.00     0.012 A 
BRANCH  22  25
HETATM   25  N   UNL     1       4.955  27.531  50.265  1.00  0.00    -0.116 N 
HETATM   26  O   UNL     1       5.366  28.416  49.502  1.00  0.00    -0.532 OA
HETATM   27  O   UNL     1       4.540  26.421  49.910  1.00  0.00    -0.532 OA
ENDBRANCH  22  25
ENDBRANCH   2  19
BRANCH   6  28
HETATM   28  O   UNL     1       7.641  27.356  58.456  1.00  0.00    -0.355 OA
HETATM   29  H   UNL     1       7.789  26.442  58.114  1.00  0.00     0.218 HD
ENDBRANCH   6  28
BRANCH   3  30
HETATM   30  C   UNL     1       5.604  31.074  55.932  1.00  0.00     0.155 C 
BRANCH  30  31
HETATM   31  C   UNL     1       4.502  31.669  56.858  1.00  0.00     0.254 C 
BRANCH  31  32
HETATM   32  N   UNL     1       5.073  32.620  57.927  1.00  0.00    -0.066 N 
HETATM   33  H   UNL     1       6.095  32.592  57.781  1.00  0.00     0.280 HD
HETATM   34  C   UNL     1       4.855  32.118  59.361  1.00  0.00     0.262 C 
HETATM   35  C   UNL     1       3.438  32.437  59.897  1.00  0.00     0.260 C 
HETATM   36  N   UNL     1       3.117  33.902  59.751  1.00  0.00    -0.072 N 
HETATM   37  H   UNL     1       3.674  34.481  60.400  1.00  0.00     0.277 HD
HETATM   38  H   UNL     1       2.138  34.060  60.050  1.00  0.00     0.277 HD
HETATM   39  C   UNL     1       3.251  34.399  58.330  1.00  0.00     0.260 C 
HETATM   40  C   UNL     1       4.666  34.097  57.774  1.00  0.00     0.262 C 
ENDBRANCH  31  32
ENDBRANCH  30  31
ENDBRANCH   3  30
TORSDOF 10
ENDMDL
MODEL 6
REMARK VINA RESULT:      -9.0      3.350      7.483
REMARK  10 active torsions:
REMARK  status: ('A' for Active; 'I' for Inactive)
REMARK    1  A    between atoms: C_2  and  O_3 
REMARK    2  A    between atoms: O_3  and  C_4 
REMARK    3  A    between atoms: C_7  and  C_8 
REMARK    4  A    between atoms: C_8  and  C_9 
REMARK    5  A    between atoms: C_10  and  C_11 
REMARK    6  A    between atoms: C_14  and  N_15 
REMARK    7  A    between atoms: N_20  and  C_21 
REMARK    8  A    between atoms: C_21  and  C_22 
REMARK    9  A    between atoms: C_22  and  N_23 
REMARK   10  A    between atoms: C_34  and  O_35 
ROOT
HETATM    1  C   UNL     1       5.840  27.408  56.797  1.00  0.00     0.059 C 
HETATM    2  C   UNL     1       5.177  28.463  55.969  1.00  0.00     0.161 C 
HETATM    3  N   UNL     1       5.989  29.640  56.289  1.00  0.00    -0.332 N 
HETATM    4  C   UNL     1       6.803  29.371  57.378  1.00  0.00     0.278 C 
HETATM    5  O   UNL     1       7.406  30.211  58.026  1.00  0.00    -0.265 OA
HETATM    6  C   UNL     1       6.786  27.917  57.600  1.00  0.00     0.146 C 
ENDROOT
BRANCH   1   7
HETATM    7  C   UNL     1       5.623  25.948  56.781  1.00  0.00     0.193 C 
HETATM    8  O   UNL     1       4.693  25.486  57.442  1.00  0.00    -0.287 OA
BRANCH   7   9
HETATM    9  C   UNL     1       6.496  25.032  56.014  1.00  0.00     0.015 A 
HETATM   10  C   UNL     1       6.238  24.679  54.685  1.00  0.00     0.018 A 
HETATM   11  C   UNL     1       7.070  23.764  54.030  1.00  0.00     0.038 A 
HETATM   12  C   UNL     1       8.140  23.184  54.710  1.00  0.00     0.069 A 
HETATM   13  C   UNL     1       8.371  23.492  56.047  1.00  0.00     0.038 A 
HETATM   14  C   UNL     1       7.556  24.421  56.697  1.00  0.00     0.018 A 
BRANCH  12  15
HETATM   15  O   UNL     1       8.905  22.202  54.152  1.00  0.00    -0.347 OA
BRANCH  15  16
HETATM   16  C   UNL     1       8.256  20.924  54.073  1.00  0.00     0.120 C 
HETATM   17  C   UNL     1       8.866  19.999  55.122  1.00  0.00     0.040 C 
HETATM   18  C   UNL     1       8.507  20.374  52.672  1.00  0.00     0.040 C 
ENDBRANCH  15  16
ENDBRANCH  12  15
ENDBRANCH   7   9
ENDBRANCH   1   7
BRANCH   2  19
HETATM   19  C   UNL     1       5.098  28.223  54.477  1.00  0.00    -0.030 A 
HETATM   20  C   UNL     1       6.289  28.023  53.752  1.00  0.00     0.012 A 
HETATM   21  C   UNL     1       6.265  27.784  52.376  1.00  0.00     0.037 A 
HETATM   22  C   UNL     1       5.037  27.744  51.705  1.00  0.00     0.102 A 
HETATM   23  C   UNL     1       3.842  27.941  52.407  1.00  0.00     0.037 A 
HETATM   24  C   UNL     1       3.875  28.172  53.787  1.00  0.00     0.012 A 
BRANCH  22  25
HETATM   25  N   UNL     1       5.006  27.470  50.262  1.00  0.00    -0.116 N 
HETATM   26  O   UNL     1       4.643  26.342  49.904  1.00  0.00    -0.532 OA
HETATM   27  O   UNL     1       5.313  28.394  49.499  1.00  0.00    -0.532 OA
ENDBRANCH  22  25
ENDBRANCH   2  19
BRANCH   6  28
HETATM   28  O   UNL     1       7.616  27.282  58.477  1.00  0.00    -0.355 OA
HETATM   29  H   UNL     1       7.162  27.258  59.353  1.00  0.00     0.218 HD
ENDBRANCH   6  28
BRANCH   3  30
HETATM   30  C   UNL     1       5.586  30.999  55.945  1.00  0.00     0.155 C 
BRANCH  30  31
HETATM   31  C   UNL     1       4.105  31.331  56.290  1.00  0.00     0.254 C 
BRANCH  31  32
HETATM   32  N   UNL     1       3.223  31.490  55.036  1.00  0.00    -0.066 N 
HETATM   33  H   UNL     1       2.907  30.531  54.817  1.00  0.00     0.280 HD
HETATM   34  C   UNL     1       4.008  31.949  53.799  1.00  0.00     0.262 C 
HETATM   35  C   UNL     1       4.242  33.479  53.774  1.00  0.00     0.260 C 
HETATM   36  N   UNL     1       2.946  34.231  53.939  1.00  0.00    -0.072 N 
HETATM   37  H   UNL     1       2.344  34.141  53.104  1.00  0.00     0.277 HD
HETATM   38  H   UNL     1       3.153  35.244  53.991  1.00  0.00     0.277 HD
HETATM   39  C   UNL     1       2.193  33.848  55.193  1.00  0.00     0.260 C 
HETATM   40  C   UNL     1       1.941  32.319  55.236  1.00  0.00     0.262 C 
ENDBRANCH  31  32
ENDBRANCH  30  31
ENDBRANCH   3  30
TORSDOF 10
ENDMDL
MODEL 7
REMARK VINA RESULT:      -9.0      3.730      6.840
REMARK  10 active torsions:
REMARK  status: ('A' for Active; 'I' for Inactive)
REMARK    1  A    between atoms: C_2  and  O_3 
REMARK    2  A    between atoms: O_3  and  C_4 
REMARK    3  A    between atoms: C_7  and  C_8 
REMARK    4  A    between atoms: C_8  and  C_9 
REMARK    5  A    between atoms: C_10  and  C_11 
REMARK    6  A    between atoms: C_14  and  N_15 
REMARK    7  A    between atoms: N_20  and  C_21 
REMARK    8  A    between atoms: C_21  and  C_22 
REMARK    9  A    between atoms: C_22  and  N_23 
REMARK   10  A    between atoms: C_34  and  O_35 
ROOT
HETATM    1  C   UNL     1       4.706  27.900  51.301  1.00  0.00     0.059 C 
HETATM    2  C   UNL     1       5.277  28.854  52.302  1.00  0.00     0.161 C 
HETATM    3  N   UNL     1       4.176  29.809  52.455  1.00  0.00    -0.332 N 
HETATM    4  C   UNL     1       3.234  29.610  51.459  1.00  0.00     0.278 C 
HETATM    5  O   UNL     1       2.340  30.390  51.174  1.00  0.00    -0.265 OA
HETATM    6  C   UNL     1       3.525  28.317  50.821  1.00  0.00     0.146 C 
ENDROOT
BRANCH   1   7
HETATM    7  C   UNL     1       5.238  26.595  50.859  1.00  0.00     0.193 C 
HETATM    8  O   UNL     1       5.120  26.285  49.674  1.00  0.00    -0.287 OA
BRANCH   7   9
HETATM    9  C   UNL     1       5.888  25.652  51.796  1.00  0.00     0.015 A 
HETATM   10  C   UNL     1       5.204  25.051  52.859  1.00  0.00     0.018 A 
HETATM   11  C   UNL     1       5.887  24.211  53.745  1.00  0.00     0.038 A 
HETATM   12  C   UNL     1       7.254  23.992  53.584  1.00  0.00     0.069 A 
HETATM   13  C   UNL     1       7.950  24.626  52.559  1.00  0.00     0.038 A 
HETATM   14  C   UNL     1       7.268  25.449  51.661  1.00  0.00     0.018 A 
BRANCH  12  15
HETATM   15  O   UNL     1       7.984  23.277  54.488  1.00  0.00    -0.347 OA
BRANCH  15  16
HETATM   16  C   UNL     1       7.607  21.896  54.588  1.00  0.00     0.120 C 
HETATM   17  C   UNL     1       8.178  21.324  55.882  1.00  0.00     0.040 C 
HETATM   18  C   UNL     1       8.201  21.175  53.382  1.00  0.00     0.040 C 
ENDBRANCH  15  16
ENDBRANCH  12  15
ENDBRANCH   7   9
ENDBRANCH   1   7
BRANCH   2  19
HETATM   19  C   UNL     1       5.714  28.282  53.633  1.00  0.00    -0.030 A 
HETATM   20  C   UNL     1       7.090  28.166  53.908  1.00  0.00     0.012 A 
HETATM   21  C   UNL     1       7.542  27.658  55.129  1.00  0.00     0.037 A 
HETATM   22  C   UNL     1       6.612  27.255  56.094  1.00  0.00     0.102 A 
HETATM   23  C   UNL     1       5.238  27.361  55.839  1.00  0.00     0.037 A 
HETATM   24  C   UNL     1       4.795  27.878  54.616  1.00  0.00     0.012 A 
BRANCH  22  25
HETATM   25  N   UNL     1       7.082  26.741  57.387  1.00  0.00    -0.116 N 
HETATM   26  O   UNL     1       6.864  25.548  57.639  1.00  0.00    -0.532 OA
HETATM   27  O   UNL     1       7.694  27.523  58.124  1.00  0.00    -0.532 OA
ENDBRANCH  22  25
ENDBRANCH   2  19
BRANCH   6  28
HETATM   28  O   UNL     1       2.693  27.720  49.920  1.00  0.00    -0.355 OA
HETATM   29  H   UNL     1       1.821  27.587  50.363  1.00  0.00     0.218 HD
ENDBRANCH   6  28
BRANCH   3  30
HETATM   30  C   UNL     1       4.332  31.097  53.122  1.00  0.00     0.155 C 
BRANCH  30  31
HETATM   31  C   UNL     1       3.292  31.361  54.251  1.00  0.00     0.254 C 
BRANCH  31  32
HETATM   32  N   UNL     1       2.158  32.305  53.807  1.00  0.00    -0.066 N 
HETATM   33  H   UNL     1       1.528  31.709  53.246  1.00  0.00     0.280 HD
HETATM   34  C   UNL     1       2.630  33.408  52.849  1.00  0.00     0.262 C 
HETATM   35  C   UNL     1       3.277  34.605  53.588  1.00  0.00     0.260 C 
HETATM   36  N   UNL     1       2.367  35.136  54.666  1.00  0.00    -0.072 N 
HETATM   37  H   UNL     1       1.542  35.613  54.267  1.00  0.00     0.277 HD
HETATM   38  H   UNL     1       2.864  35.883  55.183  1.00  0.00     0.277 HD
HETATM   39  C   UNL     1       1.952  34.080  55.665  1.00  0.00     0.260 C 
HETATM   40  C   UNL     1       1.294  32.874  54.948  1.00  0.00     0.262 C 
ENDBRANCH  31  32
ENDBRANCH  30  31
ENDBRANCH   3  30
TORSDOF 10
ENDMDL
MODEL 8
REMARK VINA RESULT:      -8.9      2.910      7.787
REMARK  10 active torsions:
REMARK  status: ('A' for Active; 'I' for Inactive)
REMARK    1  A    between atoms: C_2  and  O_3 
REMARK    2  A    between atoms: O_3  and  C_4 
REMARK    3  A    between atoms: C_7  and  C_8 
REMARK    4  A    between atoms: C_8  and  C_9 
REMARK    5  A    between atoms: C_10  and  C_11 
REMARK    6  A    between atoms: C_14  and  N_15 
REMARK    7  A    between atoms: N_20  and  C_21 
REMARK    8  A    between atoms: C_21  and  C_22 
REMARK    9  A    between atoms: C_22  and  N_23 
REMARK   10  A    between atoms: C_34  and  O_35 
ROOT
HETATM    1  C   UNL     1       4.822  28.237  53.031  1.00  0.00     0.059 C 
HETATM    2  C   UNL     1       4.905  26.969  52.242  1.00  0.00     0.161 C 
HETATM    3  N   UNL     1       5.307  27.469  50.925  1.00  0.00    -0.332 N 
HETATM    4  C   UNL     1       5.173  28.847  50.881  1.00  0.00     0.278 C 
HETATM    5  O   UNL     1       5.195  29.521  49.864  1.00  0.00    -0.265 OA
HETATM    6  C   UNL     1       4.989  29.323  52.261  1.00  0.00     0.146 C 
ENDROOT
BRANCH   1   7
HETATM    7  C   UNL     1       4.651  28.411  54.487  1.00  0.00     0.193 C 
HETATM    8  O   UNL     1       3.509  28.524  54.934  1.00  0.00    -0.287 OA
BRANCH   7   9
HETATM    9  C   UNL     1       5.803  28.469  55.413  1.00  0.00     0.015 A 
HETATM   10  C   UNL     1       5.656  28.676  56.789  1.00  0.00     0.018 A 
HETATM   11  C   UNL     1       6.788  28.777  57.606  1.00  0.00     0.038 A 
HETATM   12  C   UNL     1       8.062  28.698  57.045  1.00  0.00     0.069 A 
HETATM   13  C   UNL     1       8.215  28.543  55.671  1.00  0.00     0.038 A 
HETATM   14  C   UNL     1       7.088  28.420  54.855  1.00  0.00     0.018 A 
BRANCH  12  15
HETATM   15  O   UNL     1       9.192  28.908  57.781  1.00  0.00    -0.347 OA
BRANCH  15  16
HETATM   16  C   UNL     1       9.895  30.113  57.448  1.00  0.00     0.120 C 
HETATM   17  C   UNL     1      11.363  29.775  57.208  1.00  0.00     0.040 C 
HETATM   18  C   UNL     1       9.758  31.061  58.636  1.00  0.00     0.040 C 
ENDBRANCH  15  16
ENDBRANCH  12  15
ENDBRANCH   7   9
ENDBRANCH   1   7
BRANCH   2  19
HETATM   19  C   UNL     1       5.846  25.898  52.749  1.00  0.00    -0.030 A 
HETATM   20  C   UNL     1       7.125  25.782  52.170  1.00  0.00     0.012 A 
HETATM   21  C   UNL     1       8.034  24.818  52.615  1.00  0.00     0.037 A 
HETATM   22  C   UNL     1       7.668  23.953  53.652  1.00  0.00     0.102 A 
HETATM   23  C   UNL     1       6.401  24.052  54.241  1.00  0.00     0.037 A 
HETATM   24  C   UNL     1       5.499  25.025  53.794  1.00  0.00     0.012 A 
BRANCH  22  25
HETATM   25  N   UNL     1       8.629  22.954  54.138  1.00  0.00    -0.116 N 
HETATM   26  O   UNL     1       9.103  23.123  55.270  1.00  0.00    -0.532 OA
HETATM   27  O   UNL     1       8.876  21.993  53.400  1.00  0.00    -0.532 OA
ENDBRANCH  22  25
ENDBRANCH   2  19
BRANCH   6  28
HETATM   28  O   UNL     1       5.004  30.641  52.609  1.00  0.00    -0.355 OA
HETATM   29  H   UNL     1       5.684  30.756  53.315  1.00  0.00     0.218 HD
ENDBRANCH   6  28
BRANCH   3  30
HETATM   30  C   UNL     1       5.260  26.651  49.718  1.00  0.00     0.155 C 
BRANCH  30  31
HETATM   31  C   UNL     1       3.823  26.392  49.178  1.00  0.00     0.254 C 
BRANCH  31  32
HETATM   32  N   UNL     1       3.712  26.602  47.656  1.00  0.00    -0.066 N 
HETATM   33  H   UNL     1       4.490  26.050  47.259  1.00  0.00     0.280 HD
HETATM   34  C   UNL     1       3.983  28.050  47.225  1.00  0.00     0.262 C 
HETATM   35  C   UNL     1       2.748  28.968  47.397  1.00  0.00     0.260 C 
HETATM   36  N   UNL     1       1.538  28.385  46.712  1.00  0.00    -0.072 N 
HETATM   37  H   UNL     1       1.628  28.421  45.684  1.00  0.00     0.277 HD
HETATM   38  H   UNL     1       0.719  28.988  46.913  1.00  0.00     0.277 HD
HETATM   39  C   UNL     1       1.208  26.986  47.180  1.00  0.00     0.260 C 
HETATM   40  C   UNL     1       2.430  26.048  47.009  1.00  0.00     0.262 C 
ENDBRANCH  31  32
ENDBRANCH  30  31
ENDBRANCH   3  30
TORSDOF 10
ENDMDL
MODEL 9
REMARK VINA RESULT:      -8.8      3.342      6.924
REMARK  10 active torsions:
REMARK  status: ('A' for Active; 'I' for Inactive)
REMARK    1  A    between atoms: C_2  and  O_3 
REMARK    2  A    between atoms: O_3  and  C_4 
REMARK    3  A    between atoms: C_7  and  C_8 
REMARK    4  A    between atoms: C_8  and  C_9 
REMARK    5  A    between atoms: C_10  and  C_11 
REMARK    6  A    between atoms: C_14  and  N_15 
REMARK    7  A    between atoms: N_20  and  C_21 
REMARK    8  A    between atoms: C_21  and  C_22 
REMARK    9  A    between atoms: C_22  and  N_23 
REMARK   10  A    between atoms: C_34  and  O_35 
ROOT
HETATM    1  C   UNL     1       4.599  28.046  51.206  1.00  0.00     0.059 C 
HETATM    2  C   UNL     1       5.163  29.008  52.202  1.00  0.00     0.161 C 
HETATM    3  N   UNL     1       4.056  29.956  52.351  1.00  0.00    -0.332 N 
HETATM    4  C   UNL     1       3.115  29.746  51.356  1.00  0.00     0.278 C 
HETATM    5  O   UNL     1       2.215  30.519  51.069  1.00  0.00    -0.265 OA
HETATM    6  C   UNL     1       3.415  28.453  50.724  1.00  0.00     0.146 C 
ENDROOT
BRANCH   1   7
HETATM    7  C   UNL     1       5.141  26.743  50.770  1.00  0.00     0.193 C 
HETATM    8  O   UNL     1       5.031  26.430  49.584  1.00  0.00    -0.287 OA
BRANCH   7   9
HETATM    9  C   UNL     1       5.788  25.805  51.712  1.00  0.00     0.015 A 
HETATM   10  C   UNL     1       7.137  25.445  51.613  1.00  0.00     0.018 A 
HETATM   11  C   UNL     1       7.678  24.509  52.501  1.00  0.00     0.038 A 
HETATM   12  C   UNL     1       6.869  23.917  53.470  1.00  0.00     0.069 A 
HETATM   13  C   UNL     1       5.516  24.234  53.541  1.00  0.00     0.038 A 
HETATM   14  C   UNL     1       4.976  25.182  52.671  1.00  0.00     0.018 A 
BRANCH  12  15
HETATM   15  O   UNL     1       7.322  22.916  54.279  1.00  0.00    -0.347 OA
BRANCH  15  16
HETATM   16  C   UNL     1       8.418  22.168  53.732  1.00  0.00     0.120 C 
HETATM   17  C   UNL     1       7.887  20.843  53.194  1.00  0.00     0.040 C 
HETATM   18  C   UNL     1       9.407  21.920  54.867  1.00  0.00     0.040 C 
ENDBRANCH  15  16
ENDBRANCH  12  15
ENDBRANCH   7   9
ENDBRANCH   1   7
BRANCH   2  19
HETATM   19  C   UNL     1       5.604  28.445  53.536  1.00  0.00    -0.030 A 
HETATM   20  C   UNL     1       6.981  28.290  53.791  1.00  0.00     0.012 A 
HETATM   21  C   UNL     1       7.436  27.789  55.013  1.00  0.00     0.037 A 
HETATM   22  C   UNL     1       6.511  27.431  55.999  1.00  0.00     0.102 A 
HETATM   23  C   UNL     1       5.137  27.576  55.764  1.00  0.00     0.037 A 
HETATM   24  C   UNL     1       4.690  28.087  54.541  1.00  0.00     0.012 A 
BRANCH  22  25
HETATM   25  N   UNL     1       6.986  26.925  57.293  1.00  0.00    -0.116 N 
HETATM   26  O   UNL     1       6.776  25.731  57.550  1.00  0.00    -0.532 OA
HETATM   27  O   UNL     1       7.595  27.713  58.027  1.00  0.00    -0.532 OA
ENDBRANCH  22  25
ENDBRANCH   2  19
BRANCH   6  28
HETATM   28  O   UNL     1       2.587  27.846  49.826  1.00  0.00    -0.355 OA
HETATM   29  H   UNL     1       1.815  28.444  49.681  1.00  0.00     0.218 HD
ENDBRANCH   6  28
BRANCH   3  30
HETATM   30  C   UNL     1       4.202  31.248  53.013  1.00  0.00     0.155 C 
BRANCH  30  31
HETATM   31  C   UNL     1       4.230  32.464  52.041  1.00  0.00     0.254 C 
BRANCH  31  32
HETATM   32  N   UNL     1       5.624  32.704  51.428  1.00  0.00    -0.066 N 
HETATM   33  H   UNL     1       6.278  32.251  52.086  1.00  0.00     0.280 HD
HETATM   34  C   UNL     1       6.028  34.185  51.410  1.00  0.00     0.262 C 
HETATM   35  C   UNL     1       5.418  34.956  50.214  1.00  0.00     0.260 C 
HETATM   36  N   UNL     1       5.721  34.266  48.909  1.00  0.00    -0.072 N 
HETATM   37  H   UNL     1       6.721  34.340  48.661  1.00  0.00     0.277 HD
HETATM   38  H   UNL     1       5.235  34.769  48.145  1.00  0.00     0.277 HD
HETATM   39  C   UNL     1       5.260  32.826  48.879  1.00  0.00     0.260 C 
HETATM   40  C   UNL     1       5.865  32.032  50.065  1.00  0.00     0.262 C 
ENDBRANCH  31  32
ENDBRANCH  30  31
ENDBRANCH   3  30
TORSDOF 10
ENDMDL
MODEL 10
REMARK VINA RESULT:      -8.8      2.751      4.016
REMARK  10 active torsions:
REMARK  status: ('A' for Active; 'I' for Inactive)
REMARK    1  A    between atoms: C_2  and  O_3 
REMARK    2  A    between atoms: O_3  and  C_4 
REMARK    3  A    between atoms: C_7  and  C_8 
REMARK    4  A    between atoms: C_8  and  C_9 
REMARK    5  A    between atoms: C_10  and  C_11 
REMARK    6  A    between atoms: C_14  and  N_15 
REMARK    7  A    between atoms: N_20  and  C_21 
REMARK    8  A    between atoms: C_21  and  C_22 
REMARK    9  A    between atoms: C_22  and  N_23 
REMARK   10  A    between atoms: C_34  and  O_35 
ROOT
HETATM    1  C   UNL     1       4.209  30.679  54.060  1.00  0.00     0.059 C 
HETATM    2  C   UNL     1       5.205  29.887  54.846  1.00  0.00     0.161 C 
HETATM    3  N   UNL     1       4.509  29.730  56.126  1.00  0.00    -0.332 N 
HETATM    4  C   UNL     1       3.409  30.572  56.173  1.00  0.00     0.278 C 
HETATM    5  O   UNL     1       2.781  30.847  57.182  1.00  0.00    -0.265 OA
HETATM    6  C   UNL     1       3.166  31.065  54.809  1.00  0.00     0.146 C 
ENDROOT
BRANCH   1   7
HETATM    7  C   UNL     1       4.218  31.006  52.620  1.00  0.00     0.193 C 
HETATM    8  O   UNL     1       4.278  32.190  52.289  1.00  0.00    -0.287 OA
BRANCH   7   9
HETATM    9  C   UNL     1       4.137  29.962  51.575  1.00  0.00     0.015 A 
HETATM   10  C   UNL     1       2.956  29.269  51.289  1.00  0.00     0.018 A 
HETATM   11  C   UNL     1       2.957  28.253  50.327  1.00  0.00     0.038 A 
HETATM   12  C   UNL     1       4.140  27.914  49.672  1.00  0.00     0.069 A 
HETATM   13  C   UNL     1       5.328  28.566  49.988  1.00  0.00     0.038 A 
HETATM   14  C   UNL     1       5.327  29.595  50.932  1.00  0.00     0.018 A 
BRANCH  12  15
HETATM   15  O   UNL     1       4.215  26.855  48.814  1.00  0.00    -0.347 OA
BRANCH  15  16
HETATM   16  C   UNL     1       2.946  26.421  48.304  1.00  0.00     0.120 C 
HETATM   17  C   UNL     1       3.028  24.931  47.987  1.00  0.00     0.040 C 
HETATM   18  C   UNL     1       2.672  27.218  47.032  1.00  0.00     0.040 C 
ENDBRANCH  15  16
ENDBRANCH  12  15
ENDBRANCH   7   9
ENDBRANCH   1   7
BRANCH   2  19
HETATM   19  C   UNL     1       5.638  28.555  54.274  1.00  0.00    -0.030 A 
HETATM   20  C   UNL     1       7.000  28.342  53.989  1.00  0.00     0.012 A 
HETATM   21  C   UNL     1       7.449  27.123  53.474  1.00  0.00     0.037 A 
HETATM   22  C   UNL     1       6.529  26.097  53.234  1.00  0.00     0.102 A 
HETATM   23  C   UNL     1       5.169  26.288  53.509  1.00  0.00     0.037 A 
HETATM   24  C   UNL     1       4.730  27.510  54.033  1.00  0.00     0.012 A 
BRANCH  22  25
HETATM   25  N   UNL     1       7.000  24.806  52.713  1.00  0.00    -0.116 N 
HETATM   26  O   UNL     1       7.927  24.828  51.893  1.00  0.00    -0.532 OA
HETATM   27  O   UNL     1       6.463  23.782  53.153  1.00  0.00    -0.532 OA
ENDBRANCH  22  25
ENDBRANCH   2  19
BRANCH   6  28
HETATM   28  O   UNL     1       2.056  31.774  54.455  1.00  0.00    -0.355 OA
HETATM   29  H   UNL     1       1.344  31.558  55.104  1.00  0.00     0.218 HD
ENDBRANCH   6  28
BRANCH   3  30
HETATM   30  C   UNL     1       5.173  29.260  57.337  1.00  0.00     0.155 C 
BRANCH  30  31
HETATM   31  C   UNL     1       6.358  30.156  57.804  1.00  0.00     0.254 C 
BRANCH  31  32
HETATM   32  N   UNL     1       7.497  29.347  58.452  1.00  0.00    -0.066 N 
HETATM   33  H   UNL     1       7.018  28.671  59.068  1.00  0.00     0.280 HD
HETATM   34  C   UNL     1       8.380  30.187  59.385  1.00  0.00     0.262 C 
HETATM   35  C   UNL     1       9.453  31.001  58.620  1.00  0.00     0.260 C 
HETATM   36  N   UNL     1      10.265  30.113  57.712  1.00  0.00    -0.072 N 
HETATM   37  H   UNL     1      10.884  29.484  58.248  1.00  0.00     0.277 HD
HETATM   38  H   UNL     1      10.918  30.703  57.166  1.00  0.00     0.277 HD
HETATM   39  C   UNL     1       9.418  29.333  56.733  1.00  0.00     0.260 C 
HETATM   40  C   UNL     1       8.340  28.505  57.477  1.00  0.00     0.262 C 
ENDBRANCH  31  32
ENDBRANCH  30  31
ENDBRANCH   3  30
TORSDOF 10
ENDMDL
