MODEL 1
REMARK VINA RESULT:      -9.6      0.000      0.000
REMARK  4 active torsions:
REMARK  status: ('A' for Active; 'I' for Inactive)
REMARK    1  A    between atoms: N_3  and  C_4 
REMARK    2  A    between atoms: C_4  and  C_5 
REMARK    3  A    between atoms: C_5  and  C_6 
REMARK       I    between atoms: C_6  and  N_7 
REMARK    4  A    between atoms: N_7  and  C_8 
ROOT
HETATM    1  C   UNL     1       4.948  27.163  53.207  1.00  0.00     0.035 A 
HETATM    2  C   UNL     1       5.737  26.093  52.786  1.00  0.00     0.049 A 
HETATM    3  C   UNL     1       6.676  25.498  53.650  1.00  0.00     0.061 A 
HETATM    4  C   UNL     1       6.833  25.986  54.953  1.00  0.00     0.050 A 
HETATM    5  N   UNL     1       7.616  25.400  55.964  1.00  0.00    -0.324 N 
HETATM    6  C   UNL     1       7.860  24.065  56.164  1.00  0.00     0.245 C 
HETATM    7  O   UNL     1       8.376  23.725  57.231  1.00  0.00    -0.271 OA
HETATM    8  C   UNL     1       7.304  23.063  55.152  1.00  0.00     0.180 C 
HETATM    9  N   UNL     1       7.836  23.342  53.828  1.00  0.00    -0.334 N 
HETATM   10  C   UNL     1       7.511  24.427  53.054  1.00  0.00     0.256 C 
HETATM   11  O   UNL     1       7.870  24.534  51.884  1.00  0.00    -0.267 OA
HETATM   12  C   UNL     1       7.728  21.617  55.437  1.00  0.00     0.037 C 
HETATM   13  C   UNL     1       7.924  21.021  54.049  1.00  0.00     0.022 C 
HETATM   14  C   UNL     1       8.506  22.184  53.267  1.00  0.00     0.127 C 
HETATM   15  C   UNL     1       6.135  27.145  55.323  1.00  0.00     0.033 A 
HETATM   16  C   UNL     1       5.190  27.718  54.465  1.00  0.00     0.032 A 
HETATM   17  H   UNL     1       7.830  25.948  56.788  1.00  0.00     0.169 HD
ENDROOT
BRANCH   1  18
HETATM   18  N   UNL     1       3.852  27.666  52.475  1.00  0.00    -0.327 N 
HETATM   19  C   UNL     1       3.881  28.682  51.540  1.00  0.00     0.224 C 
HETATM   20  O   UNL     1       4.769  29.517  51.401  1.00  0.00    -0.273 OA
HETATM   21  H   UNL     1       2.967  27.185  52.607  1.00  0.00     0.169 HD
BRANCH  19  22
HETATM   22  C   UNL     1       2.703  28.673  50.586  1.00  0.00     0.134 C 
BRANCH  22  23
HETATM   23  C   UNL     1       3.020  28.194  49.148  1.00  0.00     0.044 C 
HETATM   24  C   UNL     1       1.702  27.583  48.571  1.00  0.00     0.032 C 
HETATM   25  C   UNL     1       1.889  26.892  47.223  1.00  0.00     0.002 C 
HETATM   26  C   UNL     1       2.930  25.785  47.317  1.00  0.00     0.000 C 
HETATM   27  C   UNL     1       4.252  26.313  47.858  1.00  0.00     0.002 C 
HETATM   28  C   UNL     1       4.072  27.044  49.192  1.00  0.00     0.032 C 
BRANCH  23  29
HETATM   29  N   UNL     1       3.449  29.368  48.350  1.00  0.00    -0.356 N 
HETATM   30  C   UNL     1       2.643  30.443  48.033  1.00  0.00     0.091 A 
HETATM   31  C   UNL     1       3.392  31.373  47.348  1.00  0.00     0.019 A 
HETATM   32  C   UNL     1       4.707  30.875  47.273  1.00  0.00     0.019 A 
HETATM   33  C   UNL     1       4.721  29.656  47.916  1.00  0.00     0.091 A 
ENDBRANCH  23  29
ENDBRANCH  22  23
ENDBRANCH  19  22
ENDBRANCH   1  18
TORSDOF 4
ENDMDL
MODEL 2
REMARK VINA RESULT:      -9.6      5.235      8.891
REMARK  4 active torsions:
REMARK  status: ('A' for Active; 'I' for Inactive)
REMARK    1  A    between atoms: N_3  and  C_4 
REMARK    2  A    between atoms: C_4  and  C_5 
REMARK    3  A    between atoms: C_5  and  C_6 
REMARK       I    between atoms: C_6  and  N_7 
REMARK    4  A    between atoms: N_7  and  C_8 
ROOT
HETATM    1  C   UNL     1       6.501  29.033  57.098  1.00  0.00     0.035 A 
HETATM    2  C   UNL     1       7.421  29.537  58.016  1.00  0.00     0.049 A 
HETATM    3  C   UNL     1       7.192  30.756  58.681  1.00  0.00     0.061 A 
HETATM    4  C   UNL     1       6.026  31.486  58.418  1.00  0.00     0.050 A 
HETATM    5  N   UNL     1       5.597  32.631  59.113  1.00  0.00    -0.324 N 
HETATM    6  C   UNL     1       5.783  32.924  60.441  1.00  0.00     0.245 C 
HETATM    7  O   UNL     1       5.140  33.858  60.922  1.00  0.00    -0.271 OA
HETATM    8  C   UNL     1       6.615  31.960  61.288  1.00  0.00     0.180 C 
HETATM    9  N   UNL     1       7.958  31.847  60.742  1.00  0.00    -0.334 N 
HETATM   10  C   UNL     1       8.287  31.223  59.566  1.00  0.00     0.256 C 
HETATM   11  O   UNL     1       9.451  31.021  59.230  1.00  0.00    -0.267 OA
HETATM   12  C   UNL     1       6.827  32.450  62.726  1.00  0.00     0.037 C 
HETATM   13  C   UNL     1       8.244  31.997  63.054  1.00  0.00     0.022 C 
HETATM   14  C   UNL     1       8.966  32.181  61.731  1.00  0.00     0.127 C 
HETATM   15  C   UNL     1       5.173  31.041  57.398  1.00  0.00     0.033 A 
HETATM   16  C   UNL     1       5.400  29.819  56.755  1.00  0.00     0.032 A 
HETATM   17  H   UNL     1       4.864  33.198  58.703  1.00  0.00     0.169 HD
ENDROOT
BRANCH   1  18
HETATM   18  N   UNL     1       6.563  27.731  56.558  1.00  0.00    -0.327 N 
HETATM   19  C   UNL     1       7.375  27.305  55.526  1.00  0.00     0.224 C 
HETATM   20  O   UNL     1       7.948  28.018  54.708  1.00  0.00    -0.273 OA
HETATM   21  H   UNL     1       5.998  27.026  57.022  1.00  0.00     0.169 HD
BRANCH  19  22
HETATM   22  C   UNL     1       7.589  25.804  55.492  1.00  0.00     0.134 C 
BRANCH  22  23
HETATM   23  C   UNL     1       6.979  25.076  54.268  1.00  0.00     0.044 C 
HETATM   24  C   UNL     1       7.600  25.734  52.993  1.00  0.00     0.032 C 
HETATM   25  C   UNL     1       6.962  25.259  51.690  1.00  0.00     0.002 C 
HETATM   26  C   UNL     1       5.463  25.524  51.687  1.00  0.00     0.000 C 
HETATM   27  C   UNL     1       4.786  24.896  52.898  1.00  0.00     0.002 C 
HETATM   28  C   UNL     1       5.442  25.335  54.210  1.00  0.00     0.032 C 
BRANCH  23  29
HETATM   29  N   UNL     1       7.343  23.642  54.350  1.00  0.00    -0.356 N 
HETATM   30  C   UNL     1       7.870  22.901  53.311  1.00  0.00     0.091 A 
HETATM   31  C   UNL     1       8.152  21.633  53.767  1.00  0.00     0.019 A 
HETATM   32  C   UNL     1       7.825  21.602  55.136  1.00  0.00     0.019 A 
HETATM   33  C   UNL     1       7.354  22.851  55.475  1.00  0.00     0.091 A 
ENDBRANCH  23  29
ENDBRANCH  22  23
ENDBRANCH  19  22
ENDBRANCH   1  18
TORSDOF 4
ENDMDL
MODEL 3
REMARK VINA RESULT:      -9.4      1.135      2.629
REMARK  4 active torsions:
REMARK  status: ('A' for Active; 'I' for Inactive)
REMARK    1  A    between atoms: N_3  and  C_4 
REMARK    2  A    between atoms: C_4  and  C_5 
REMARK    3  A    between atoms: C_5  and  C_6 
REMARK       I    between atoms: C_6  and  N_7 
REMARK    4  A    between atoms: N_7  and  C_8 
ROOT
HETATM    1  C   UNL     1       5.055  26.631  53.781  1.00  0.00     0.035 A 
HETATM    2  C   UNL     1       5.883  25.654  53.229  1.00  0.00     0.049 A 
HETATM    3  C   UNL     1       6.803  24.946  54.025  1.00  0.00     0.061 A 
HETATM    4  C   UNL     1       6.902  25.225  55.394  1.00  0.00     0.050 A 
HETATM    5  N   UNL     1       7.661  24.499  56.330  1.00  0.00    -0.324 N 
HETATM    6  C   UNL     1       7.928  23.153  56.327  1.00  0.00     0.245 C 
HETATM    7  O   UNL     1       8.412  22.659  57.347  1.00  0.00    -0.271 OA
HETATM    8  C   UNL     1       7.431  22.315  55.149  1.00  0.00     0.180 C 
HETATM    9  N   UNL     1       8.005  22.808  53.907  1.00  0.00    -0.334 N 
HETATM   10  C   UNL     1       7.683  23.997  53.301  1.00  0.00     0.256 C 
HETATM   11  O   UNL     1       8.082  24.292  52.177  1.00  0.00    -0.267 OA
HETATM   12  C   UNL     1       7.877  20.849  55.220  1.00  0.00     0.037 C 
HETATM   13  C   UNL     1       8.137  20.483  53.764  1.00  0.00     0.022 C 
HETATM   14  C   UNL     1       8.720  21.765  53.198  1.00  0.00     0.127 C 
HETATM   15  C   UNL     1       6.164  26.298  55.913  1.00  0.00     0.033 A 
HETATM   16  C   UNL     1       5.239  26.984  55.119  1.00  0.00     0.032 A 
HETATM   17  H   UNL     1       7.832  24.914  57.238  1.00  0.00     0.169 HD
ENDROOT
BRANCH   1  18
HETATM   18  N   UNL     1       3.975  27.225  53.094  1.00  0.00    -0.327 N 
HETATM   19  C   UNL     1       3.748  28.576  52.927  1.00  0.00     0.224 C 
HETATM   20  O   UNL     1       4.251  29.485  53.581  1.00  0.00    -0.273 OA
HETATM   21  H   UNL     1       3.339  26.588  52.624  1.00  0.00     0.169 HD
BRANCH  19  22
HETATM   22  C   UNL     1       2.828  28.906  51.768  1.00  0.00     0.134 C 
BRANCH  22  23
HETATM   23  C   UNL     1       3.533  29.147  50.411  1.00  0.00     0.044 C 
HETATM   24  C   UNL     1       5.045  29.394  50.722  1.00  0.00     0.032 C 
HETATM   25  C   UNL     1       5.854  29.836  49.505  1.00  0.00     0.002 C 
HETATM   26  C   UNL     1       5.275  31.104  48.895  1.00  0.00     0.000 C 
HETATM   27  C   UNL     1       3.802  30.931  48.550  1.00  0.00     0.002 C 
HETATM   28  C   UNL     1       2.986  30.451  49.754  1.00  0.00     0.032 C 
BRANCH  23  29
HETATM   29  N   UNL     1       3.360  27.935  49.574  1.00  0.00    -0.356 N 
HETATM   30  C   UNL     1       2.337  27.743  48.667  1.00  0.00     0.091 A 
HETATM   31  C   UNL     1       2.534  26.543  48.022  1.00  0.00     0.019 A 
HETATM   32  C   UNL     1       3.734  25.997  48.519  1.00  0.00     0.019 A 
HETATM   33  C   UNL     1       4.232  26.881  49.451  1.00  0.00     0.091 A 
ENDBRANCH  23  29
ENDBRANCH  22  23
ENDBRANCH  19  22
ENDBRANCH   1  18
TORSDOF 4
ENDMDL
MODEL 4
REMARK VINA RESULT:      -9.2      4.224      8.566
REMARK  4 active torsions:
REMARK  status: ('A' for Active; 'I' for Inactive)
REMARK    1  A    between atoms: N_3  and  C_4 
REMARK    2  A    between atoms: C_4  and  C_5 
REMARK    3  A    between atoms: C_5  and  C_6 
REMARK       I    between atoms: C_6  and  N_7 
REMARK    4  A    between atoms: N_7  and  C_8 
ROOT
HETATM    1  C   UNL     1       7.272  28.043  56.949  1.00  0.00     0.035 A 
HETATM    2  C   UNL     1       6.052  28.456  56.415  1.00  0.00     0.049 A 
HETATM    3  C   UNL     1       5.494  29.702  56.754  1.00  0.00     0.061 A 
HETATM    4  C   UNL     1       6.163  30.547  57.649  1.00  0.00     0.050 A 
HETATM    5  N   UNL     1       5.803  31.871  57.958  1.00  0.00    -0.324 N 
HETATM    6  C   UNL     1       5.219  32.795  57.129  1.00  0.00     0.245 C 
HETATM    7  O   UNL     1       5.189  33.969  57.502  1.00  0.00    -0.271 OA
HETATM    8  C   UNL     1       4.822  32.358  55.718  1.00  0.00     0.180 C 
HETATM    9  N   UNL     1       3.868  31.264  55.783  1.00  0.00    -0.334 N 
HETATM   10  C   UNL     1       4.153  29.983  56.185  1.00  0.00     0.256 C 
HETATM   11  O   UNL     1       3.349  29.062  56.074  1.00  0.00    -0.267 OA
HETATM   12  C   UNL     1       4.095  33.454  54.929  1.00  0.00     0.037 C 
HETATM   13  C   UNL     1       3.062  32.684  54.115  1.00  0.00     0.022 C 
HETATM   14  C   UNL     1       2.645  31.579  55.069  1.00  0.00     0.127 C 
HETATM   15  C   UNL     1       7.318  30.069  58.284  1.00  0.00     0.033 A 
HETATM   16  C   UNL     1       7.876  28.836  57.927  1.00  0.00     0.032 A 
HETATM   17  H   UNL     1       6.221  32.307  58.771  1.00  0.00     0.169 HD
ENDROOT
BRANCH   1  18
HETATM   18  N   UNL     1       7.986  26.913  56.498  1.00  0.00    -0.327 N 
HETATM   19  C   UNL     1       7.629  25.590  56.668  1.00  0.00     0.224 C 
HETATM   20  O   UNL     1       6.820  25.154  57.481  1.00  0.00    -0.273 OA
HETATM   21  H   UNL     1       8.811  27.100  55.936  1.00  0.00     0.169 HD
BRANCH  19  22
HETATM   22  C   UNL     1       8.290  24.644  55.685  1.00  0.00     0.134 C 
BRANCH  22  23
HETATM   23  C   UNL     1       7.453  24.305  54.427  1.00  0.00     0.044 C 
HETATM   24  C   UNL     1       8.048  25.141  53.247  1.00  0.00     0.032 C 
HETATM   25  C   UNL     1       7.218  25.067  51.969  1.00  0.00     0.002 C 
HETATM   26  C   UNL     1       5.790  25.534  52.216  1.00  0.00     0.000 C 
HETATM   27  C   UNL     1       5.139  24.749  53.347  1.00  0.00     0.002 C 
HETATM   28  C   UNL     1       5.982  24.783  54.625  1.00  0.00     0.032 C 
BRANCH  23  29
HETATM   29  N   UNL     1       7.582  22.853  54.160  1.00  0.00    -0.356 N 
HETATM   30  C   UNL     1       7.886  22.301  52.932  1.00  0.00     0.091 A 
HETATM   31  C   UNL     1       7.993  20.936  53.072  1.00  0.00     0.019 A 
HETATM   32  C   UNL     1       7.787  20.640  54.433  1.00  0.00     0.019 A 
HETATM   33  C   UNL     1       7.561  21.834  55.082  1.00  0.00     0.091 A 
ENDBRANCH  23  29
ENDBRANCH  22  23
ENDBRANCH  19  22
ENDBRANCH   1  18
TORSDOF 4
ENDMDL
MODEL 5
REMARK VINA RESULT:      -9.1      5.515      8.744
REMARK  4 active torsions:
REMARK  status: ('A' for Active; 'I' for Inactive)
REMARK    1  A    between atoms: N_3  and  C_4 
REMARK    2  A    between atoms: C_4  and  C_5 
REMARK    3  A    between atoms: C_5  and  C_6 
REMARK       I    between atoms: C_6  and  N_7 
REMARK    4  A    between atoms: N_7  and  C_8 
ROOT
HETATM    1  C   UNL     1       4.765  29.721  57.271  1.00  0.00     0.035 A 
HETATM    2  C   UNL     1       5.997  30.113  57.794  1.00  0.00     0.049 A 
HETATM    3  C   UNL     1       6.111  31.258  58.605  1.00  0.00     0.061 A 
HETATM    4  C   UNL     1       4.976  32.028  58.891  1.00  0.00     0.050 A 
HETATM    5  N   UNL     1       4.915  33.098  59.801  1.00  0.00    -0.324 N 
HETATM    6  C   UNL     1       5.620  33.246  60.969  1.00  0.00     0.245 C 
HETATM    7  O   UNL     1       5.267  34.133  61.749  1.00  0.00    -0.271 OA
HETATM    8  C   UNL     1       6.663  32.187  61.327  1.00  0.00     0.180 C 
HETATM    9  N   UNL     1       7.678  32.114  60.290  1.00  0.00    -0.334 N 
HETATM   10  C   UNL     1       7.488  31.613  59.026  1.00  0.00     0.256 C 
HETATM   11  O   UNL     1       8.416  31.433  58.242  1.00  0.00    -0.267 OA
HETATM   12  C   UNL     1       7.445  32.518  62.605  1.00  0.00     0.037 C 
HETATM   13  C   UNL     1       8.851  32.014  62.305  1.00  0.00     0.022 C 
HETATM   14  C   UNL     1       9.009  32.327  60.828  1.00  0.00     0.127 C 
HETATM   15  C   UNL     1       3.771  31.704  58.253  1.00  0.00     0.033 A 
HETATM   16  C   UNL     1       3.662  30.555  57.463  1.00  0.00     0.032 A 
HETATM   17  H   UNL     1       4.112  33.715  59.766  1.00  0.00     0.169 HD
ENDROOT
BRANCH   1  18
HETATM   18  N   UNL     1       4.541  28.483  56.632  1.00  0.00    -0.327 N 
HETATM   19  C   UNL     1       4.730  28.200  55.294  1.00  0.00     0.224 C 
HETATM   20  O   UNL     1       4.826  29.018  54.383  1.00  0.00    -0.273 OA
HETATM   21  H   UNL     1       4.276  27.711  57.234  1.00  0.00     0.169 HD
BRANCH  19  22
HETATM   22  C   UNL     1       4.887  26.722  54.995  1.00  0.00     0.134 C 
BRANCH  22  23
HETATM   23  C   UNL     1       6.335  26.255  54.707  1.00  0.00     0.044 C 
HETATM   24  C   UNL     1       6.542  26.345  53.159  1.00  0.00     0.032 C 
HETATM   25  C   UNL     1       7.861  25.741  52.685  1.00  0.00     0.002 C 
HETATM   26  C   UNL     1       7.973  24.281  53.100  1.00  0.00     0.000 C 
HETATM   27  C   UNL     1       7.798  24.118  54.604  1.00  0.00     0.002 C 
HETATM   28  C   UNL     1       6.496  24.755  55.100  1.00  0.00     0.032 C 
BRANCH  23  29
HETATM   29  N   UNL     1       7.268  27.164  55.415  1.00  0.00    -0.356 N 
HETATM   30  C   UNL     1       7.751  26.959  56.692  1.00  0.00     0.091 A 
HETATM   31  C   UNL     1       8.644  27.962  56.996  1.00  0.00     0.019 A 
HETATM   32  C   UNL     1       8.743  28.789  55.860  1.00  0.00     0.019 A 
HETATM   33  C   UNL     1       7.908  28.264  54.898  1.00  0.00     0.091 A 
ENDBRANCH  23  29
ENDBRANCH  22  23
ENDBRANCH  19  22
ENDBRANCH   1  18
TORSDOF 4
ENDMDL
MODEL 6
REMARK VINA RESULT:      -9.1      5.615      9.024
REMARK  4 active torsions:
REMARK  status: ('A' for Active; 'I' for Inactive)
REMARK    1  A    between atoms: N_3  and  C_4 
REMARK    2  A    between atoms: C_4  and  C_5 
REMARK    3  A    between atoms: C_5  and  C_6 
REMARK       I    between atoms: C_6  and  N_7 
REMARK    4  A    between atoms: N_7  and  C_8 
ROOT
HETATM    1  C   UNL     1       4.676  30.081  57.214  1.00  0.00     0.035 A 
HETATM    2  C   UNL     1       5.890  30.402  57.818  1.00  0.00     0.049 A 
HETATM    3  C   UNL     1       5.996  31.490  58.706  1.00  0.00     0.061 A 
HETATM    4  C   UNL     1       4.870  32.274  58.987  1.00  0.00     0.050 A 
HETATM    5  N   UNL     1       4.794  33.287  59.958  1.00  0.00    -0.324 N 
HETATM    6  C   UNL     1       5.445  33.340  61.165  1.00  0.00     0.245 C 
HETATM    7  O   UNL     1       5.079  34.187  61.983  1.00  0.00    -0.271 OA
HETATM    8  C   UNL     1       6.441  32.230  61.504  1.00  0.00     0.180 C 
HETATM    9  N   UNL     1       7.502  32.192  60.512  1.00  0.00    -0.334 N 
HETATM   10  C   UNL     1       7.360  31.777  59.212  1.00  0.00     0.256 C 
HETATM   11  O   UNL     1       8.320  31.618  58.462  1.00  0.00    -0.267 OA
HETATM   12  C   UNL     1       7.168  32.458  62.835  1.00  0.00     0.037 C 
HETATM   13  C   UNL     1       8.573  31.931  62.569  1.00  0.00     0.022 C 
HETATM   14  C   UNL     1       8.810  32.331  61.125  1.00  0.00     0.127 C 
HETATM   15  C   UNL     1       3.689  32.027  58.273  1.00  0.00     0.033 A 
HETATM   16  C   UNL     1       3.587  30.933  57.408  1.00  0.00     0.032 A 
HETATM   17  H   UNL     1       4.011  33.929  59.926  1.00  0.00     0.169 HD
ENDROOT
BRANCH   1  18
HETATM   18  N   UNL     1       4.449  28.892  56.488  1.00  0.00    -0.327 N 
HETATM   19  C   UNL     1       4.755  28.666  55.161  1.00  0.00     0.224 C 
HETATM   20  O   UNL     1       4.985  29.522  54.311  1.00  0.00    -0.273 OA
HETATM   21  H   UNL     1       4.084  28.107  57.018  1.00  0.00     0.169 HD
BRANCH  19  22
HETATM   22  C   UNL     1       4.861  27.198  54.796  1.00  0.00     0.134 C 
BRANCH  22  23
HETATM   23  C   UNL     1       6.127  26.476  55.317  1.00  0.00     0.044 C 
HETATM   24  C   UNL     1       5.664  25.517  56.462  1.00  0.00     0.032 C 
HETATM   25  C   UNL     1       6.820  24.864  57.215  1.00  0.00     0.002 C 
HETATM   26  C   UNL     1       7.745  25.914  57.813  1.00  0.00     0.000 C 
HETATM   27  C   UNL     1       8.251  26.879  56.748  1.00  0.00     0.002 C 
HETATM   28  C   UNL     1       7.101  27.512  55.959  1.00  0.00     0.032 C 
BRANCH  23  29
HETATM   29  N   UNL     1       6.721  25.709  54.196  1.00  0.00    -0.356 N 
HETATM   30  C   UNL     1       6.357  24.427  53.838  1.00  0.00     0.091 A 
HETATM   31  C   UNL     1       7.061  24.062  52.713  1.00  0.00     0.019 A 
HETATM   32  C   UNL     1       7.856  25.166  52.345  1.00  0.00     0.019 A 
HETATM   33  C   UNL     1       7.610  26.170  53.255  1.00  0.00     0.091 A 
ENDBRANCH  23  29
ENDBRANCH  22  23
ENDBRANCH  19  22
ENDBRANCH   1  18
TORSDOF 4
ENDMDL
MODEL 7
REMARK VINA RESULT:      -9.0      9.005     12.611
REMARK  4 active torsions:
REMARK  status: ('A' for Active; 'I' for Inactive)
REMARK    1  A    between atoms: N_3  and  C_4 
REMARK    2  A    between atoms: C_4  and  C_5 
REMARK    3  A    between atoms: C_5  and  C_6 
REMARK       I    between atoms: C_6  and  N_7 
REMARK    4  A    between atoms: N_7  and  C_8 
ROOT
HETATM    1  C   UNL     1       5.780  32.526  60.218  1.00  0.00     0.035 A 
HETATM    2  C   UNL     1       5.424  32.051  58.956  1.00  0.00     0.049 A 
HETATM    3  C   UNL     1       6.235  31.127  58.271  1.00  0.00     0.061 A 
HETATM    4  C   UNL     1       7.426  30.677  58.854  1.00  0.00     0.050 A 
HETATM    5  N   UNL     1       8.250  29.651  58.358  1.00  0.00    -0.324 N 
HETATM    6  C   UNL     1       7.866  28.527  57.671  1.00  0.00     0.245 C 
HETATM    7  O   UNL     1       8.697  27.630  57.519  1.00  0.00    -0.271 OA
HETATM    8  C   UNL     1       6.388  28.364  57.311  1.00  0.00     0.180 C 
HETATM    9  N   UNL     1       5.952  29.473  56.479  1.00  0.00    -0.334 N 
HETATM   10  C   UNL     1       5.788  30.768  56.903  1.00  0.00     0.256 C 
HETATM   11  O   UNL     1       5.270  31.632  56.200  1.00  0.00    -0.267 OA
HETATM   12  C   UNL     1       6.107  27.117  56.463  1.00  0.00     0.037 C 
HETATM   13  C   UNL     1       5.007  27.571  55.512  1.00  0.00     0.022 C 
HETATM   14  C   UNL     1       5.391  29.011  55.223  1.00  0.00     0.127 C 
HETATM   15  C   UNL     1       7.843  31.260  60.059  1.00  0.00     0.033 A 
HETATM   16  C   UNL     1       7.022  32.163  60.742  1.00  0.00     0.032 A 
HETATM   17  H   UNL     1       9.186  29.559  58.734  1.00  0.00     0.169 HD
ENDROOT
BRANCH   1  18
HETATM   18  N   UNL     1       4.922  33.282  61.044  1.00  0.00    -0.327 N 
HETATM   19  C   UNL     1       4.340  32.868  62.225  1.00  0.00     0.224 C 
HETATM   20  O   UNL     1       4.211  31.708  62.606  1.00  0.00    -0.273 OA
HETATM   21  H   UNL     1       4.773  34.248  60.769  1.00  0.00     0.169 HD
BRANCH  19  22
HETATM   22  C   UNL     1       3.891  34.006  63.121  1.00  0.00     0.134 C 
BRANCH  22  23
HETATM   23  C   UNL     1       4.967  34.546  64.095  1.00  0.00     0.044 C 
HETATM   24  C   UNL     1       6.220  33.623  63.943  1.00  0.00     0.032 C 
HETATM   25  C   UNL     1       7.312  33.904  64.973  1.00  0.00     0.002 C 
HETATM   26  C   UNL     1       6.776  33.758  66.390  1.00  0.00     0.000 C 
HETATM   27  C   UNL     1       5.559  34.645  66.616  1.00  0.00     0.002 C 
HETATM   28  C   UNL     1       4.471  34.401  65.566  1.00  0.00     0.032 C 
BRANCH  23  29
HETATM   29  N   UNL     1       5.291  35.939  63.706  1.00  0.00    -0.356 N 
HETATM   30  C   UNL     1       5.854  36.311  62.501  1.00  0.00     0.091 A 
HETATM   31  C   UNL     1       5.944  37.684  62.458  1.00  0.00     0.019 A 
HETATM   32  C   UNL     1       5.386  38.175  63.654  1.00  0.00     0.019 A 
HETATM   33  C   UNL     1       4.972  37.087  64.390  1.00  0.00     0.091 A 
ENDBRANCH  23  29
ENDBRANCH  22  23
ENDBRANCH  19  22
ENDBRANCH   1  18
TORSDOF 4
ENDMDL
MODEL 8
REMARK VINA RESULT:      -8.7      1.181      2.122
REMARK  4 active torsions:
REMARK  status: ('A' for Active; 'I' for Inactive)
REMARK    1  A    between atoms: N_3  and  C_4 
REMARK    2  A    between atoms: C_4  and  C_5 
REMARK    3  A    between atoms: C_5  and  C_6 
REMARK       I    between atoms: C_6  and  N_7 
REMARK    4  A    between atoms: N_7  and  C_8 
ROOT
HETATM    1  C   UNL     1       4.812  27.633  53.079  1.00  0.00     0.035 A 
HETATM    2  C   UNL     1       5.687  26.559  52.919  1.00  0.00     0.049 A 
HETATM    3  C   UNL     1       6.649  26.252  53.899  1.00  0.00     0.061 A 
HETATM    4  C   UNL     1       6.743  27.037  55.055  1.00  0.00     0.050 A 
HETATM    5  N   UNL     1       7.546  26.760  56.176  1.00  0.00    -0.324 N 
HETATM    6  C   UNL     1       7.884  25.528  56.679  1.00  0.00     0.245 C 
HETATM    7  O   UNL     1       8.402  25.484  57.797  1.00  0.00    -0.271 OA
HETATM    8  C   UNL     1       7.424  24.282  55.923  1.00  0.00     0.180 C 
HETATM    9  N   UNL     1       7.961  24.289  54.572  1.00  0.00    -0.334 N 
HETATM   10  C   UNL     1       7.573  25.140  53.567  1.00  0.00     0.256 C 
HETATM   11  O   UNL     1       7.947  25.002  52.406  1.00  0.00    -0.267 OA
HETATM   12  C   UNL     1       7.948  22.977  56.535  1.00  0.00     0.037 C 
HETATM   13  C   UNL     1       8.216  22.094  55.322  1.00  0.00     0.022 C 
HETATM   14  C   UNL     1       8.727  23.088  54.295  1.00  0.00     0.127 C 
HETATM   15  C   UNL     1       5.953  28.192  55.146  1.00  0.00     0.033 A 
HETATM   16  C   UNL     1       4.987  28.479  54.176  1.00  0.00     0.032 A 
HETATM   17  H   UNL     1       7.702  27.497  56.852  1.00  0.00     0.169 HD
ENDROOT
BRANCH   1  18
HETATM   18  N   UNL     1       3.697  27.869  52.247  1.00  0.00    -0.327 N 
HETATM   19  C   UNL     1       3.537  28.916  51.361  1.00  0.00     0.224 C 
HETATM   20  O   UNL     1       4.169  29.967  51.355  1.00  0.00    -0.273 OA
HETATM   21  H   UNL     1       2.971  27.159  52.260  1.00  0.00     0.169 HD
BRANCH  19  22
HETATM   22  C   UNL     1       2.507  28.653  50.280  1.00  0.00     0.134 C 
BRANCH  22  23
HETATM   23  C   UNL     1       3.084  28.338  48.879  1.00  0.00     0.044 C 
HETATM   24  C   UNL     1       3.795  26.949  48.982  1.00  0.00     0.032 C 
HETATM   25  C   UNL     1       4.583  26.574  47.730  1.00  0.00     0.002 C 
HETATM   26  C   UNL     1       5.633  27.628  47.408  1.00  0.00     0.000 C 
HETATM   27  C   UNL     1       5.008  29.010  47.277  1.00  0.00     0.002 C 
HETATM   28  C   UNL     1       4.181  29.383  48.511  1.00  0.00     0.032 C 
BRANCH  23  29
HETATM   29  N   UNL     1       1.961  28.283  47.913  1.00  0.00    -0.356 N 
HETATM   30  C   UNL     1       1.106  27.211  47.758  1.00  0.00     0.091 A 
HETATM   31  C   UNL     1       0.144  27.539  46.829  1.00  0.00     0.019 A 
HETATM   32  C   UNL     1       0.391  28.866  46.427  1.00  0.00     0.019 A 
HETATM   33  C   UNL     1       1.494  29.307  47.124  1.00  0.00     0.091 A 
ENDBRANCH  23  29
ENDBRANCH  22  23
ENDBRANCH  19  22
ENDBRANCH   1  18
TORSDOF 4
ENDMDL
MODEL 9
REMARK VINA RESULT:      -8.6      9.287     13.284
REMARK  4 active torsions:
REMARK  status: ('A' for Active; 'I' for Inactive)
REMARK    1  A    between atoms: N_3  and  C_4 
REMARK    2  A    between atoms: C_4  and  C_5 
REMARK    3  A    between atoms: C_5  and  C_6 
REMARK       I    between atoms: C_6  and  N_7 
REMARK    4  A    between atoms: N_7  and  C_8 
ROOT
HETATM    1  C   UNL     1       7.788  32.470  60.704  1.00  0.00     0.035 A 
HETATM    2  C   UNL     1       6.885  31.986  59.758  1.00  0.00     0.049 A 
HETATM    3  C   UNL     1       7.312  31.164  58.698  1.00  0.00     0.061 A 
HETATM    4  C   UNL     1       8.667  30.828  58.578  1.00  0.00     0.050 A 
HETATM    5  N   UNL     1       9.208  29.903  57.667  1.00  0.00    -0.324 N 
HETATM    6  C   UNL     1       8.621  28.759  57.188  1.00  0.00     0.245 C 
HETATM    7  O   UNL     1       9.331  27.956  56.581  1.00  0.00    -0.271 OA
HETATM    8  C   UNL     1       7.181  28.452  57.602  1.00  0.00     0.180 C 
HETATM    9  N   UNL     1       6.299  29.526  57.176  1.00  0.00    -0.334 N 
HETATM   10  C   UNL     1       6.268  30.789  57.714  1.00  0.00     0.256 C 
HETATM   11  O   UNL     1       5.400  31.608  57.424  1.00  0.00    -0.267 OA
HETATM   12  C   UNL     1       6.612  27.199  56.923  1.00  0.00     0.037 C 
HETATM   13  C   UNL     1       5.151  27.556  56.680  1.00  0.00     0.022 C 
HETATM   14  C   UNL     1       5.222  29.033  56.338  1.00  0.00     0.127 C 
HETATM   15  C   UNL     1       9.585  31.427  59.451  1.00  0.00     0.033 A 
HETATM   16  C   UNL     1       9.149  32.227  60.513  1.00  0.00     0.032 A 
HETATM   17  H   UNL     1      10.210  29.901  57.520  1.00  0.00     0.169 HD
ENDROOT
BRANCH   1  18
HETATM   18  N   UNL     1       7.404  33.117  61.898  1.00  0.00    -0.327 N 
HETATM   19  C   UNL     1       7.019  32.510  63.076  1.00  0.00     0.224 C 
HETATM   20  O   UNL     1       6.650  31.347  63.210  1.00  0.00    -0.273 OA
HETATM   21  H   UNL     1       7.484  34.129  61.904  1.00  0.00     0.169 HD
BRANCH  19  22
HETATM   22  C   UNL     1       7.143  33.402  64.296  1.00  0.00     0.134 C 
BRANCH  22  23
HETATM   23  C   UNL     1       5.878  34.223  64.647  1.00  0.00     0.044 C 
HETATM   24  C   UNL     1       4.677  33.544  63.911  1.00  0.00     0.032 C 
HETATM   25  C   UNL     1       3.378  34.341  64.000  1.00  0.00     0.002 C 
HETATM   26  C   UNL     1       3.558  35.743  63.435  1.00  0.00     0.000 C 
HETATM   27  C   UNL     1       4.705  36.474  64.119  1.00  0.00     0.002 C 
HETATM   28  C   UNL     1       6.006  35.666  64.071  1.00  0.00     0.032 C 
BRANCH  23  29
HETATM   29  N   UNL     1       5.686  34.178  66.117  1.00  0.00    -0.356 N 
HETATM   30  C   UNL     1       6.688  34.363  67.048  1.00  0.00     0.091 A 
HETATM   31  C   UNL     1       6.136  34.326  68.309  1.00  0.00     0.019 A 
HETATM   32  C   UNL     1       4.747  34.152  68.149  1.00  0.00     0.019 A 
HETATM   33  C   UNL     1       4.495  34.088  66.796  1.00  0.00     0.091 A 
ENDBRANCH  23  29
ENDBRANCH  22  23
ENDBRANCH  19  22
ENDBRANCH   1  18
TORSDOF 4
ENDMDL
MODEL 10
REMARK VINA RESULT:      -8.6      4.945      8.939
REMARK  4 active torsions:
REMARK  status: ('A' for Active; 'I' for Inactive)
REMARK    1  A    between atoms: N_3  and  C_4 
REMARK    2  A    between atoms: C_4  and  C_5 
REMARK    3  A    between atoms: C_5  and  C_6 
REMARK       I    between atoms: C_6  and  N_7 
REMARK    4  A    between atoms: N_7  and  C_8 
ROOT
HETATM    1  C   UNL     1       7.722  27.971  56.529  1.00  0.00     0.035 A 
HETATM    2  C   UNL     1       7.693  29.039  57.424  1.00  0.00     0.049 A 
HETATM    3  C   UNL     1       6.730  30.059  57.309  1.00  0.00     0.061 A 
HETATM    4  C   UNL     1       5.785  30.014  56.276  1.00  0.00     0.050 A 
HETATM    5  N   UNL     1       4.682  30.874  56.130  1.00  0.00    -0.324 N 
HETATM    6  C   UNL     1       3.939  31.459  57.125  1.00  0.00     0.245 C 
HETATM    7  O   UNL     1       2.873  31.993  56.813  1.00  0.00    -0.271 OA
HETATM    8  C   UNL     1       4.370  31.243  58.577  1.00  0.00     0.180 C 
HETATM    9  N   UNL     1       5.719  31.747  58.778  1.00  0.00    -0.334 N 
HETATM   10  C   UNL     1       6.862  31.181  58.271  1.00  0.00     0.256 C 
HETATM   11  O   UNL     1       7.984  31.555  58.599  1.00  0.00    -0.267 OA
HETATM   12  C   UNL     1       3.516  32.026  59.582  1.00  0.00     0.037 C 
HETATM   13  C   UNL     1       4.517  32.445  60.652  1.00  0.00     0.022 C 
HETATM   14  C   UNL     1       5.768  32.731  59.843  1.00  0.00     0.127 C 
HETATM   15  C   UNL     1       5.905  29.012  55.303  1.00  0.00     0.033 A 
HETATM   16  C   UNL     1       6.854  27.992  55.436  1.00  0.00     0.032 A 
HETATM   17  H   UNL     1       4.197  30.891  55.241  1.00  0.00     0.169 HD
ENDROOT
BRANCH   1  18
HETATM   18  N   UNL     1       8.516  26.818  56.706  1.00  0.00    -0.327 N 
HETATM   19  C   UNL     1       8.080  25.572  57.112  1.00  0.00     0.224 C 
HETATM   20  O   UNL     1       7.018  25.320  57.673  1.00  0.00    -0.273 OA
HETATM   21  H   UNL     1       9.493  26.903  56.446  1.00  0.00     0.169 HD
BRANCH  19  22
HETATM   22  C   UNL     1       9.023  24.442  56.745  1.00  0.00     0.134 C 
BRANCH  22  23
HETATM   23  C   UNL     1       8.486  23.451  55.684  1.00  0.00     0.044 C 
HETATM   24  C   UNL     1       7.736  22.319  56.459  1.00  0.00     0.032 C 
HETATM   25  C   UNL     1       7.304  21.155  55.571  1.00  0.00     0.002 C 
HETATM   26  C   UNL     1       8.500  20.539  54.859  1.00  0.00     0.000 C 
HETATM   27  C   UNL     1       9.272  21.585  54.066  1.00  0.00     0.002 C 
HETATM   28  C   UNL     1       9.678  22.777  54.938  1.00  0.00     0.032 C 
BRANCH  23  29
HETATM   29  N   UNL     1       7.556  24.182  54.791  1.00  0.00    -0.356 N 
HETATM   30  C   UNL     1       7.928  24.852  53.643  1.00  0.00     0.091 A 
HETATM   31  C   UNL     1       6.799  25.349  53.032  1.00  0.00     0.019 A 
HETATM   32  C   UNL     1       5.694  24.942  53.806  1.00  0.00     0.019 A 
HETATM   33  C   UNL     1       6.184  24.208  54.865  1.00  0.00     0.091 A 
ENDBRANCH  23  29
ENDBRANCH  22  23
ENDBRANCH  19  22
ENDBRANCH   1  18
TORSDOF 4
ENDMDL
