MODEL 1
REMARK VINA RESULT:     -10.5      0.000      0.000
REMARK  7 active torsions:
REMARK  status: ('A' for Active; 'I' for Inactive)
REMARK    1  A    between atoms: C_3  and  N_4 
REMARK       I    between atoms: N_4  and  C_5 
REMARK       I    between atoms: C_5  and  N_6 
REMARK       I    between atoms: N_6  and  C_7 
REMARK    2  A    between atoms: C_7  and  C_8 
REMARK    3  A    between atoms: C_8  and  S_9 
REMARK    4  A    between atoms: S_9  and  C_10 
REMARK    5  A    between atoms: N_11  and  C_12 
REMARK    6  A    between atoms: C_19  and  C_20 
REMARK    7  A    between atoms: C_20  and  N_21 
ROOT
HETATM    1  C   UNL     1       6.878  26.781  57.054  1.00  0.00     0.196 A 
HETATM    2  N   UNL     1       7.240  25.873  56.075  1.00  0.00    -0.274 N 
HETATM    3  C   UNL     1       8.246  25.126  56.673  1.00  0.00     0.161 A 
HETATM    4  N   UNL     1       8.438  25.538  57.911  1.00  0.00    -0.132 NA
HETATM    5  N   UNL     1       7.572  26.568  58.150  1.00  0.00    -0.122 NA
ENDROOT
BRANCH   1   6
HETATM    6  S   UNL     1       5.570  27.904  56.914  1.00  0.00    -0.080 SA
BRANCH   6   7
HETATM    7  C   UNL     1       6.378  29.286  56.050  1.00  0.00     0.185 C 
BRANCH   7   8
HETATM    8  C   UNL     1       7.883  29.320  56.299  1.00  0.00     0.235 C 
HETATM    9  N   UNL     1       8.347  29.942  57.442  1.00  0.00    -0.278 N 
HETATM   10  C   UNL     1       7.648  30.704  58.368  1.00  0.00     0.327 C 
HETATM   11  H   UNL     1       9.348  29.891  57.541  1.00  0.00     0.173 HD
HETATM   12  N   UNL     1       8.439  31.040  59.446  1.00  0.00    -0.306 N 
HETATM   13  O   UNL     1       6.473  31.010  58.222  1.00  0.00    -0.247 OA
HETATM   14  H   UNL     1       9.440  30.908  59.373  1.00  0.00     0.171 HD
HETATM   15  O   UNL     1       8.720  28.840  55.527  1.00  0.00    -0.272 OA
BRANCH  12  16
HETATM   16  C   UNL     1       8.028  31.648  60.655  1.00  0.00     0.075 A 
HETATM   17  C   UNL     1       7.114  32.699  60.741  1.00  0.00     0.033 A 
HETATM   18  C   UNL     1       6.744  33.207  61.993  1.00  0.00     0.002 A 
HETATM   19  C   UNL     1       7.285  32.675  63.164  1.00  0.00     0.003 A 
HETATM   20  C   UNL     1       8.198  31.627  63.089  1.00  0.00     0.044 A 
HETATM   21  C   UNL     1       8.557  31.124  61.843  1.00  0.00     0.143 A 
HETATM   22  F   UNL     1       9.431  30.106  61.777  1.00  0.00    -0.204 F 
ENDBRANCH  12  16
ENDBRANCH   7   8
ENDBRANCH   6   7
ENDBRANCH   1   6
BRANCH   2  23
HETATM   23  C   UNL     1       6.749  25.732  54.753  1.00  0.00     0.043 A 
HETATM   24  C   UNL     1       5.567  25.017  54.511  1.00  0.00     0.033 A 
HETATM   25  C   UNL     1       5.085  24.898  53.206  1.00  0.00     0.044 A 
HETATM   26  C   UNL     1       5.784  25.480  52.157  1.00  0.00     0.116 A 
HETATM   27  F   UNL     1       5.321  25.363  50.906  1.00  0.00    -0.206 F 
HETATM   28  C   UNL     1       6.964  26.181  52.384  1.00  0.00     0.044 A 
HETATM   29  C   UNL     1       7.452  26.309  53.686  1.00  0.00     0.033 A 
ENDBRANCH   2  23
BRANCH   3  30
HETATM   30  C   UNL     1       9.135  24.156  55.982  1.00  0.00     0.315 C 
BRANCH  30  31
HETATM   31  N   UNL     1       8.348  22.973  55.428  1.00  0.00    -0.064 N 
HETATM   32  H   UNL     1       7.359  23.269  55.496  1.00  0.00     0.280 HD
HETATM   33  C   UNL     1       8.624  22.752  53.959  1.00  0.00     0.235 C 
HETATM   34  C   UNL     1       7.725  21.646  53.429  1.00  0.00     0.028 C 
HETATM   35  C   UNL     1       7.878  20.362  54.236  1.00  0.00     0.003 C 
HETATM   36  C   UNL     1       7.634  20.619  55.718  1.00  0.00     0.028 C 
HETATM   37  C   UNL     1       8.527  21.729  56.253  1.00  0.00     0.235 C 
ENDBRANCH  30  31
ENDBRANCH   3  30
TORSDOF 7
ENDMDL
MODEL 2
REMARK VINA RESULT:     -10.0      2.205      2.988
REMARK  7 active torsions:
REMARK  status: ('A' for Active; 'I' for Inactive)
REMARK    1  A    between atoms: C_3  and  N_4 
REMARK       I    between atoms: N_4  and  C_5 
REMARK       I    between atoms: C_5  and  N_6 
REMARK       I    between atoms: N_6  and  C_7 
REMARK    2  A    between atoms: C_7  and  C_8 
REMARK    3  A    between atoms: C_8  and  S_9 
REMARK    4  A    between atoms: S_9  and  C_10 
REMARK    5  A    between atoms: N_11  and  C_12 
REMARK    6  A    between atoms: C_19  and  C_20 
REMARK    7  A    between atoms: C_20  and  N_21 
ROOT
HETATM    1  C   UNL     1       7.620  28.120  57.180  1.00  0.00     0.196 A 
HETATM    2  N   UNL     1       6.771  27.439  56.327  1.00  0.00    -0.274 N 
HETATM    3  C   UNL     1       6.762  26.146  56.832  1.00  0.00     0.161 A 
HETATM    4  N   UNL     1       7.518  26.079  57.911  1.00  0.00    -0.132 NA
HETATM    5  N   UNL     1       8.046  27.319  58.132  1.00  0.00    -0.122 NA
ENDROOT
BRANCH   1   6
HETATM    6  S   UNL     1       7.923  29.821  57.109  1.00  0.00    -0.080 SA
BRANCH   6   7
HETATM    7  C   UNL     1       8.621  30.129  58.760  1.00  0.00     0.185 C 
BRANCH   7   8
HETATM    8  C   UNL     1       9.261  31.511  58.867  1.00  0.00     0.235 C 
HETATM    9  N   UNL     1       8.760  32.397  59.802  1.00  0.00    -0.278 N 
HETATM   10  C   UNL     1       7.625  32.284  60.593  1.00  0.00     0.327 C 
HETATM   11  H   UNL     1       9.259  33.271  59.824  1.00  0.00     0.173 HD
HETATM   12  N   UNL     1       7.536  33.319  61.499  1.00  0.00    -0.306 N 
HETATM   13  O   UNL     1       6.829  31.362  60.482  1.00  0.00    -0.247 OA
HETATM   14  H   UNL     1       8.133  34.128  61.373  1.00  0.00     0.171 HD
HETATM   15  O   UNL     1      10.192  31.896  58.153  1.00  0.00    -0.272 OA
BRANCH  12  16
HETATM   16  C   UNL     1       6.626  33.443  62.575  1.00  0.00     0.075 A 
HETATM   17  C   UNL     1       5.254  33.648  62.429  1.00  0.00     0.033 A 
HETATM   18  C   UNL     1       4.431  33.719  63.561  1.00  0.00     0.002 A 
HETATM   19  C   UNL     1       4.970  33.590  64.841  1.00  0.00     0.003 A 
HETATM   20  C   UNL     1       6.338  33.384  64.997  1.00  0.00     0.044 A 
HETATM   21  C   UNL     1       7.148  33.309  63.869  1.00  0.00     0.143 A 
HETATM   22  F   UNL     1       8.466  33.102  64.025  1.00  0.00    -0.204 F 
ENDBRANCH  12  16
ENDBRANCH   7   8
ENDBRANCH   6   7
ENDBRANCH   1   6
BRANCH   2  23
HETATM   23  C   UNL     1       6.083  27.908  55.180  1.00  0.00     0.043 A 
HETATM   24  C   UNL     1       4.750  28.330  55.279  1.00  0.00     0.033 A 
HETATM   25  C   UNL     1       4.087  28.803  54.144  1.00  0.00     0.044 A 
HETATM   26  C   UNL     1       4.751  28.843  52.925  1.00  0.00     0.116 A 
HETATM   27  F   UNL     1       4.112  29.296  51.838  1.00  0.00    -0.206 F 
HETATM   28  C   UNL     1       6.069  28.415  52.813  1.00  0.00     0.044 A 
HETATM   29  C   UNL     1       6.741  27.944  53.942  1.00  0.00     0.033 A 
ENDBRANCH   2  23
BRANCH   3  30
HETATM   30  C   UNL     1       6.180  24.955  56.161  1.00  0.00     0.315 C 
BRANCH  30  31
HETATM   31  N   UNL     1       7.148  24.355  55.147  1.00  0.00    -0.064 N 
HETATM   32  H   UNL     1       7.947  25.012  55.136  1.00  0.00     0.280 HD
HETATM   33  C   UNL     1       7.699  23.026  55.613  1.00  0.00     0.235 C 
HETATM   34  C   UNL     1       8.749  22.533  54.629  1.00  0.00     0.028 C 
HETATM   35  C   UNL     1       8.196  22.455  53.211  1.00  0.00     0.003 C 
HETATM   36  C   UNL     1       7.611  23.794  52.779  1.00  0.00     0.028 C 
HETATM   37  C   UNL     1       6.564  24.296  53.763  1.00  0.00     0.235 C 
ENDBRANCH  30  31
ENDBRANCH   3  30
TORSDOF 7
ENDMDL
MODEL 3
REMARK VINA RESULT:      -9.9      1.651      2.009
REMARK  7 active torsions:
REMARK  status: ('A' for Active; 'I' for Inactive)
REMARK    1  A    between atoms: C_3  and  N_4 
REMARK       I    between atoms: N_4  and  C_5 
REMARK       I    between atoms: C_5  and  N_6 
REMARK       I    between atoms: N_6  and  C_7 
REMARK    2  A    between atoms: C_7  and  C_8 
REMARK    3  A    between atoms: C_8  and  S_9 
REMARK    4  A    between atoms: S_9  and  C_10 
REMARK    5  A    between atoms: N_11  and  C_12 
REMARK    6  A    between atoms: C_19  and  C_20 
REMARK    7  A    between atoms: C_20  and  N_21 
ROOT
HETATM    1  C   UNL     1       6.069  26.769  56.062  1.00  0.00     0.196 A 
HETATM    2  N   UNL     1       6.475  25.954  55.021  1.00  0.00    -0.274 N 
HETATM    3  C   UNL     1       7.492  25.190  55.577  1.00  0.00     0.161 A 
HETATM    4  N   UNL     1       7.649  25.505  56.847  1.00  0.00    -0.132 NA
HETATM    5  N   UNL     1       6.750  26.488  57.151  1.00  0.00    -0.122 NA
ENDROOT
BRANCH   1   6
HETATM    6  S   UNL     1       4.731  27.863  55.986  1.00  0.00    -0.080 SA
BRANCH   6   7
HETATM    7  C   UNL     1       5.555  29.400  55.470  1.00  0.00     0.185 C 
BRANCH   7   8
HETATM    8  C   UNL     1       4.788  30.642  55.916  1.00  0.00     0.235 C 
HETATM    9  N   UNL     1       5.203  31.296  57.060  1.00  0.00    -0.278 N 
HETATM   10  C   UNL     1       6.153  30.907  57.994  1.00  0.00     0.327 C 
HETATM   11  H   UNL     1       4.660  32.120  57.262  1.00  0.00     0.173 HD
HETATM   12  N   UNL     1       6.380  31.897  58.926  1.00  0.00    -0.306 N 
HETATM   13  O   UNL     1       6.710  29.819  57.958  1.00  0.00    -0.247 OA
HETATM   14  H   UNL     1       5.729  32.671  58.981  1.00  0.00     0.171 HD
HETATM   15  O   UNL     1       3.801  31.092  55.324  1.00  0.00    -0.272 OA
BRANCH  12  16
HETATM   16  C   UNL     1       7.396  31.933  59.909  1.00  0.00     0.075 A 
HETATM   17  C   UNL     1       8.763  31.979  59.633  1.00  0.00     0.033 A 
HETATM   18  C   UNL     1       9.689  32.050  60.681  1.00  0.00     0.002 A 
HETATM   19  C   UNL     1       9.260  32.072  62.009  1.00  0.00     0.003 A 
HETATM   20  C   UNL     1       7.898  32.026  62.295  1.00  0.00     0.044 A 
HETATM   21  C   UNL     1       6.984  31.961  61.249  1.00  0.00     0.143 A 
HETATM   22  F   UNL     1       5.671  31.926  61.531  1.00  0.00    -0.204 F 
ENDBRANCH  12  16
ENDBRANCH   7   8
ENDBRANCH   6   7
ENDBRANCH   1   6
BRANCH   2  23
HETATM   23  C   UNL     1       6.011  25.907  53.682  1.00  0.00     0.043 A 
HETATM   24  C   UNL     1       5.177  24.862  53.260  1.00  0.00     0.033 A 
HETATM   25  C   UNL     1       4.714  24.834  51.943  1.00  0.00     0.044 A 
HETATM   26  C   UNL     1       5.092  25.836  51.058  1.00  0.00     0.116 A 
HETATM   27  F   UNL     1       4.649  25.806  49.796  1.00  0.00    -0.206 F 
HETATM   28  C   UNL     1       5.929  26.871  51.463  1.00  0.00     0.044 A 
HETATM   29  C   UNL     1       6.393  26.909  52.779  1.00  0.00     0.033 A 
ENDBRANCH   2  23
BRANCH   3  30
HETATM   30  C   UNL     1       8.421  24.304  54.828  1.00  0.00     0.315 C 
BRANCH  30  31
HETATM   31  N   UNL     1       8.015  22.838  54.949  1.00  0.00    -0.064 N 
HETATM   32  H   UNL     1       6.982  22.863  55.011  1.00  0.00     0.280 HD
HETATM   33  C   UNL     1       8.344  22.059  53.697  1.00  0.00     0.235 C 
HETATM   34  C   UNL     1       7.808  20.640  53.820  1.00  0.00     0.028 C 
HETATM   35  C   UNL     1       8.331  19.950  55.075  1.00  0.00     0.003 C 
HETATM   36  C   UNL     1       8.022  20.775  56.318  1.00  0.00     0.028 C 
HETATM   37  C   UNL     1       8.550  22.197  56.198  1.00  0.00     0.235 C 
ENDBRANCH  30  31
ENDBRANCH   3  30
TORSDOF 7
ENDMDL
MODEL 4
REMARK VINA RESULT:      -9.8      2.960      4.652
REMARK  7 active torsions:
REMARK  status: ('A' for Active; 'I' for Inactive)
REMARK    1  A    between atoms: C_3  and  N_4 
REMARK       I    between atoms: N_4  and  C_5 
REMARK       I    between atoms: C_5  and  N_6 
REMARK       I    between atoms: N_6  and  C_7 
REMARK    2  A    between atoms: C_7  and  C_8 
REMARK    3  A    between atoms: C_8  and  S_9 
REMARK    4  A    between atoms: S_9  and  C_10 
REMARK    5  A    between atoms: N_11  and  C_12 
REMARK    6  A    between atoms: C_19  and  C_20 
REMARK    7  A    between atoms: C_20  and  N_21 
ROOT
HETATM    1  C   UNL     1       5.407  29.303  56.220  1.00  0.00     0.196 A 
HETATM    2  N   UNL     1       6.575  28.618  56.501  1.00  0.00    -0.274 N 
HETATM    3  C   UNL     1       6.178  27.288  56.535  1.00  0.00     0.161 A 
HETATM    4  N   UNL     1       4.891  27.195  56.263  1.00  0.00    -0.132 NA
HETATM    5  N   UNL     1       4.413  28.459  56.056  1.00  0.00    -0.122 NA
ENDROOT
BRANCH   1   6
HETATM    6  S   UNL     1       5.315  31.007  55.937  1.00  0.00    -0.080 SA
BRANCH   6   7
HETATM    7  C   UNL     1       5.456  31.658  57.630  1.00  0.00     0.185 C 
BRANCH   7   8
HETATM    8  C   UNL     1       4.180  31.440  58.439  1.00  0.00     0.235 C 
HETATM    9  N   UNL     1       4.224  31.649  59.805  1.00  0.00    -0.278 N 
HETATM   10  C   UNL     1       5.323  31.891  60.617  1.00  0.00     0.327 C 
HETATM   11  H   UNL     1       3.333  31.512  60.253  1.00  0.00     0.173 HD
HETATM   12  N   UNL     1       4.941  32.180  61.910  1.00  0.00    -0.306 N 
HETATM   13  O   UNL     1       6.473  31.857  60.203  1.00  0.00    -0.247 OA
HETATM   14  H   UNL     1       3.987  31.987  62.189  1.00  0.00     0.171 HD
HETATM   15  O   UNL     1       3.109  31.068  57.950  1.00  0.00    -0.272 OA
BRANCH  12  16
HETATM   16  C   UNL     1       5.761  32.651  62.962  1.00  0.00     0.075 A 
HETATM   17  C   UNL     1       7.137  32.436  63.049  1.00  0.00     0.033 A 
HETATM   18  C   UNL     1       7.867  32.978  64.114  1.00  0.00     0.002 A 
HETATM   19  C   UNL     1       7.230  33.732  65.101  1.00  0.00     0.003 A 
HETATM   20  C   UNL     1       5.857  33.952  65.023  1.00  0.00     0.044 A 
HETATM   21  C   UNL     1       5.141  33.416  63.959  1.00  0.00     0.143 A 
HETATM   22  F   UNL     1       3.818  33.639  63.885  1.00  0.00    -0.204 F 
ENDBRANCH  12  16
ENDBRANCH   7   8
ENDBRANCH   6   7
ENDBRANCH   1   6
BRANCH   2  23
HETATM   23  C   UNL     1       7.878  29.122  56.741  1.00  0.00     0.043 A 
HETATM   24  C   UNL     1       8.811  29.194  55.697  1.00  0.00     0.033 A 
HETATM   25  C   UNL     1      10.087  29.706  55.942  1.00  0.00     0.044 A 
HETATM   26  C   UNL     1      10.425  30.131  57.220  1.00  0.00     0.116 A 
HETATM   27  F   UNL     1      11.650  30.619  57.453  1.00  0.00    -0.206 F 
HETATM   28  C   UNL     1       9.512  30.052  58.266  1.00  0.00     0.044 A 
HETATM   29  C   UNL     1       8.232  29.545  58.030  1.00  0.00     0.033 A 
ENDBRANCH   2  23
BRANCH   3  30
HETATM   30  C   UNL     1       7.002  26.147  57.012  1.00  0.00     0.315 C 
BRANCH  30  31
HETATM   31  N   UNL     1       7.001  24.998  56.009  1.00  0.00    -0.064 N 
HETATM   32  H   UNL     1       6.000  24.768  55.885  1.00  0.00     0.280 HD
HETATM   33  C   UNL     1       7.507  25.434  54.654  1.00  0.00     0.235 C 
HETATM   34  C   UNL     1       7.368  24.288  53.662  1.00  0.00     0.028 C 
HETATM   35  C   UNL     1       8.072  23.030  54.156  1.00  0.00     0.003 C 
HETATM   36  C   UNL     1       7.574  22.635  55.540  1.00  0.00     0.028 C 
HETATM   37  C   UNL     1       7.705  23.778  56.535  1.00  0.00     0.235 C 
ENDBRANCH  30  31
ENDBRANCH   3  30
TORSDOF 7
ENDMDL
MODEL 5
REMARK VINA RESULT:      -9.8      2.774      8.904
REMARK  7 active torsions:
REMARK  status: ('A' for Active; 'I' for Inactive)
REMARK    1  A    between atoms: C_3  and  N_4 
REMARK       I    between atoms: N_4  and  C_5 
REMARK       I    between atoms: C_5  and  N_6 
REMARK       I    between atoms: N_6  and  C_7 
REMARK    2  A    between atoms: C_7  and  C_8 
REMARK    3  A    between atoms: C_8  and  S_9 
REMARK    4  A    between atoms: S_9  and  C_10 
REMARK    5  A    between atoms: N_11  and  C_12 
REMARK    6  A    between atoms: C_19  and  C_20 
REMARK    7  A    between atoms: C_20  and  N_21 
ROOT
HETATM    1  C   UNL     1       6.289  27.934  57.369  1.00  0.00     0.196 A 
HETATM    2  N   UNL     1       6.359  29.308  57.501  1.00  0.00    -0.274 N 
HETATM    3  C   UNL     1       7.612  29.524  58.058  1.00  0.00     0.161 A 
HETATM    4  N   UNL     1       8.241  28.375  58.210  1.00  0.00    -0.132 NA
HETATM    5  N   UNL     1       7.413  27.381  57.769  1.00  0.00    -0.122 NA
ENDROOT
BRANCH   1   6
HETATM    6  S   UNL     1       4.986  27.086  56.610  1.00  0.00    -0.080 SA
BRANCH   6   7
HETATM    7  C   UNL     1       5.420  27.262  54.853  1.00  0.00     0.185 C 
BRANCH   7   8
HETATM    8  C   UNL     1       6.923  27.430  54.645  1.00  0.00     0.235 C 
HETATM    9  N   UNL     1       7.713  26.297  54.610  1.00  0.00    -0.278 N 
HETATM   10  C   UNL     1       7.370  24.983  54.893  1.00  0.00     0.327 C 
HETATM   11  H   UNL     1       8.685  26.499  54.439  1.00  0.00     0.173 HD
HETATM   12  N   UNL     1       8.406  24.118  54.613  1.00  0.00    -0.306 N 
HETATM   13  O   UNL     1       6.270  24.664  55.325  1.00  0.00    -0.247 OA
HETATM   14  H   UNL     1       9.329  24.503  54.453  1.00  0.00     0.171 HD
HETATM   15  O   UNL     1       7.484  28.525  54.524  1.00  0.00    -0.272 OA
BRANCH  12  16
HETATM   16  C   UNL     1       8.366  22.705  54.604  1.00  0.00     0.075 A 
HETATM   17  C   UNL     1       8.197  21.926  53.459  1.00  0.00     0.033 A 
HETATM   18  C   UNL     1       8.209  20.528  53.551  1.00  0.00     0.002 A 
HETATM   19  C   UNL     1       8.384  19.899  54.785  1.00  0.00     0.003 A 
HETATM   20  C   UNL     1       8.553  20.667  55.934  1.00  0.00     0.044 A 
HETATM   21  C   UNL     1       8.546  22.054  55.833  1.00  0.00     0.143 A 
HETATM   22  F   UNL     1       8.718  22.790  56.944  1.00  0.00    -0.204 F 
ENDBRANCH  12  16
ENDBRANCH   7   8
ENDBRANCH   6   7
ENDBRANCH   1   6
BRANCH   2  23
HETATM   23  C   UNL     1       5.388  30.292  57.187  1.00  0.00     0.043 A 
HETATM   24  C   UNL     1       4.424  30.662  58.136  1.00  0.00     0.033 A 
HETATM   25  C   UNL     1       3.482  31.643  57.820  1.00  0.00     0.044 A 
HETATM   26  C   UNL     1       3.501  32.239  56.566  1.00  0.00     0.116 A 
HETATM   27  F   UNL     1       2.595  33.177  56.265  1.00  0.00    -0.206 F 
HETATM   28  C   UNL     1       4.445  31.871  55.613  1.00  0.00     0.044 A 
HETATM   29  C   UNL     1       5.393  30.894  55.920  1.00  0.00     0.033 A 
ENDBRANCH   2  23
BRANCH   3  30
HETATM   30  C   UNL     1       8.108  30.812  58.608  1.00  0.00     0.315 C 
BRANCH  30  31
HETATM   31  N   UNL     1       7.771  30.955  60.089  1.00  0.00    -0.064 N 
HETATM   32  H   UNL     1       7.145  30.155  60.287  1.00  0.00     0.280 HD
HETATM   33  C   UNL     1       8.988  30.766  60.964  1.00  0.00     0.235 C 
HETATM   34  C   UNL     1       8.576  30.794  62.428  1.00  0.00     0.028 C 
HETATM   35  C   UNL     1       7.818  32.070  62.774  1.00  0.00     0.003 C 
HETATM   36  C   UNL     1       6.620  32.259  61.852  1.00  0.00     0.028 C 
HETATM   37  C   UNL     1       7.024  32.225  60.386  1.00  0.00     0.235 C 
ENDBRANCH  30  31
ENDBRANCH   3  30
TORSDOF 7
ENDMDL
MODEL 6
REMARK VINA RESULT:      -9.8      2.624      3.693
REMARK  7 active torsions:
REMARK  status: ('A' for Active; 'I' for Inactive)
REMARK    1  A    between atoms: C_3  and  N_4 
REMARK       I    between atoms: N_4  and  C_5 
REMARK       I    between atoms: C_5  and  N_6 
REMARK       I    between atoms: N_6  and  C_7 
REMARK    2  A    between atoms: C_7  and  C_8 
REMARK    3  A    between atoms: C_8  and  S_9 
REMARK    4  A    between atoms: S_9  and  C_10 
REMARK    5  A    between atoms: N_11  and  C_12 
REMARK    6  A    between atoms: C_19  and  C_20 
REMARK    7  A    between atoms: C_20  and  N_21 
ROOT
HETATM    1  C   UNL     1       5.529  27.201  54.258  1.00  0.00     0.196 A 
HETATM    2  N   UNL     1       6.763  26.857  54.780  1.00  0.00    -0.274 N 
HETATM    3  C   UNL     1       6.808  25.477  54.639  1.00  0.00     0.161 A 
HETATM    4  N   UNL     1       5.707  25.048  54.054  1.00  0.00    -0.132 NA
HETATM    5  N   UNL     1       4.912  26.132  53.807  1.00  0.00    -0.122 NA
ENDROOT
BRANCH   1   6
HETATM    6  S   UNL     1       4.968  28.825  54.057  1.00  0.00    -0.080 SA
BRANCH   6   7
HETATM    7  C   UNL     1       4.296  29.178  55.710  1.00  0.00     0.185 C 
BRANCH   7   8
HETATM    8  C   UNL     1       3.943  30.653  55.886  1.00  0.00     0.235 C 
HETATM    9  N   UNL     1       4.627  31.384  56.838  1.00  0.00    -0.278 N 
HETATM   10  C   UNL     1       5.518  30.942  57.806  1.00  0.00     0.327 C 
HETATM   11  H   UNL     1       4.351  32.352  56.865  1.00  0.00     0.173 HD
HETATM   12  N   UNL     1       6.093  31.996  58.482  1.00  0.00    -0.306 N 
HETATM   13  O   UNL     1       5.750  29.757  58.001  1.00  0.00    -0.247 OA
HETATM   14  H   UNL     1       5.686  32.918  58.380  1.00  0.00     0.171 HD
HETATM   15  O   UNL     1       3.065  31.233  55.238  1.00  0.00    -0.272 OA
BRANCH  12  16
HETATM   16  C   UNL     1       7.167  31.943  59.400  1.00  0.00     0.075 A 
HETATM   17  C   UNL     1       8.506  31.779  59.042  1.00  0.00     0.033 A 
HETATM   18  C   UNL     1       9.502  31.778  60.027  1.00  0.00     0.002 A 
HETATM   19  C   UNL     1       9.170  31.934  61.374  1.00  0.00     0.003 A 
HETATM   20  C   UNL     1       7.837  32.098  61.741  1.00  0.00     0.044 A 
HETATM   21  C   UNL     1       6.854  32.105  60.757  1.00  0.00     0.143 A 
HETATM   22  F   UNL     1       5.571  32.272  61.117  1.00  0.00    -0.204 F 
ENDBRANCH  12  16
ENDBRANCH   7   8
ENDBRANCH   6   7
ENDBRANCH   1   6
BRANCH   2  23
HETATM   23  C   UNL     1       7.756  27.685  55.361  1.00  0.00     0.043 A 
HETATM   24  C   UNL     1       7.930  27.709  56.752  1.00  0.00     0.033 A 
HETATM   25  C   UNL     1       8.921  28.517  57.312  1.00  0.00     0.044 A 
HETATM   26  C   UNL     1       9.721  29.298  56.488  1.00  0.00     0.116 A 
HETATM   27  F   UNL     1      10.669  30.074  57.028  1.00  0.00    -0.206 F 
HETATM   28  C   UNL     1       9.549  29.292  55.108  1.00  0.00     0.044 A 
HETATM   29  C   UNL     1       8.563  28.484  54.538  1.00  0.00     0.033 A 
ENDBRANCH   2  23
BRANCH   3  30
HETATM   30  C   UNL     1       7.824  24.575  55.241  1.00  0.00     0.315 C 
BRANCH  30  31
HETATM   31  N   UNL     1       7.614  23.128  54.808  1.00  0.00    -0.064 N 
HETATM   32  H   UNL     1       6.593  23.052  54.656  1.00  0.00     0.280 HD
HETATM   33  C   UNL     1       8.262  22.840  53.473  1.00  0.00     0.235 C 
HETATM   34  C   UNL     1       7.918  21.426  53.031  1.00  0.00     0.028 C 
HETATM   35  C   UNL     1       8.306  20.397  54.086  1.00  0.00     0.003 C 
HETATM   36  C   UNL     1       7.673  20.731  55.431  1.00  0.00     0.028 C 
HETATM   37  C   UNL     1       8.008  22.147  55.877  1.00  0.00     0.235 C 
ENDBRANCH  30  31
ENDBRANCH   3  30
TORSDOF 7
ENDMDL
MODEL 7
REMARK VINA RESULT:      -9.6      2.108      2.776
REMARK  7 active torsions:
REMARK  status: ('A' for Active; 'I' for Inactive)
REMARK    1  A    between atoms: C_3  and  N_4 
REMARK       I    between atoms: N_4  and  C_5 
REMARK       I    between atoms: C_5  and  N_6 
REMARK       I    between atoms: N_6  and  C_7 
REMARK    2  A    between atoms: C_7  and  C_8 
REMARK    3  A    between atoms: C_8  and  S_9 
REMARK    4  A    between atoms: S_9  and  C_10 
REMARK    5  A    between atoms: N_11  and  C_12 
REMARK    6  A    between atoms: C_19  and  C_20 
REMARK    7  A    between atoms: C_20  and  N_21 
ROOT
HETATM    1  C   UNL     1       8.092  27.695  56.537  1.00  0.00     0.196 A 
HETATM    2  N   UNL     1       7.159  26.912  55.882  1.00  0.00    -0.274 N 
HETATM    3  C   UNL     1       7.162  25.724  56.601  1.00  0.00     0.161 A 
HETATM    4  N   UNL     1       8.002  25.812  57.614  1.00  0.00    -0.132 NA
HETATM    5  N   UNL     1       8.576  27.052  57.577  1.00  0.00    -0.122 NA
ENDROOT
BRANCH   1   6
HETATM    6  S   UNL     1       8.429  29.347  56.152  1.00  0.00    -0.080 SA
BRANCH   6   7
HETATM    7  C   UNL     1       8.025  30.169  57.724  1.00  0.00     0.185 C 
BRANCH   7   8
HETATM    8  C   UNL     1       6.560  30.592  57.793  1.00  0.00     0.235 C 
HETATM    9  N   UNL     1       6.112  31.230  58.934  1.00  0.00    -0.278 N 
HETATM   10  C   UNL     1       6.770  31.426  60.140  1.00  0.00     0.327 C 
HETATM   11  H   UNL     1       5.144  31.499  58.881  1.00  0.00     0.173 HD
HETATM   12  N   UNL     1       6.037  32.228  60.990  1.00  0.00    -0.306 N 
HETATM   13  O   UNL     1       7.868  30.944  60.383  1.00  0.00    -0.247 OA
HETATM   14  H   UNL     1       5.064  32.405  60.771  1.00  0.00     0.171 HD
HETATM   15  O   UNL     1       5.739  30.381  56.894  1.00  0.00    -0.272 OA
BRANCH  12  16
HETATM   16  C   UNL     1       6.459  32.786  62.219  1.00  0.00     0.075 A 
HETATM   17  C   UNL     1       7.549  32.331  62.961  1.00  0.00     0.033 A 
HETATM   18  C   UNL     1       7.908  32.979  64.150  1.00  0.00     0.002 A 
HETATM   19  C   UNL     1       7.182  34.079  64.608  1.00  0.00     0.003 A 
HETATM   20  C   UNL     1       6.092  34.540  63.875  1.00  0.00     0.044 A 
HETATM   21  C   UNL     1       5.745  33.896  62.692  1.00  0.00     0.143 A 
HETATM   22  F   UNL     1       4.698  34.351  61.984  1.00  0.00    -0.204 F 
ENDBRANCH  12  16
ENDBRANCH   7   8
ENDBRANCH   6   7
ENDBRANCH   1   6
BRANCH   2  23
HETATM   23  C   UNL     1       6.390  27.205  54.728  1.00  0.00     0.043 A 
HETATM   24  C   UNL     1       6.962  27.097  53.452  1.00  0.00     0.033 A 
HETATM   25  C   UNL     1       6.190  27.374  52.322  1.00  0.00     0.044 A 
HETATM   26  C   UNL     1       4.865  27.764  52.471  1.00  0.00     0.116 A 
HETATM   27  F   UNL     1       4.128  28.031  51.386  1.00  0.00    -0.206 F 
HETATM   28  C   UNL     1       4.292  27.886  53.732  1.00  0.00     0.044 A 
HETATM   29  C   UNL     1       5.054  27.608  54.868  1.00  0.00     0.033 A 
ENDBRANCH   2  23
BRANCH   3  30
HETATM   30  C   UNL     1       6.497  24.459  56.192  1.00  0.00     0.315 C 
BRANCH  30  31
HETATM   31  N   UNL     1       7.358  23.667  55.212  1.00  0.00    -0.064 N 
HETATM   32  H   UNL     1       8.262  24.169  55.202  1.00  0.00     0.280 HD
HETATM   33  C   UNL     1       7.651  22.275  55.721  1.00  0.00     0.235 C 
HETATM   34  C   UNL     1       8.611  21.574  54.771  1.00  0.00     0.028 C 
HETATM   35  C   UNL     1       8.076  21.559  53.343  1.00  0.00     0.003 C 
HETATM   36  C   UNL     1       7.750  22.969  52.869  1.00  0.00     0.028 C 
HETATM   37  C   UNL     1       6.795  23.678  53.818  1.00  0.00     0.235 C 
ENDBRANCH  30  31
ENDBRANCH   3  30
TORSDOF 7
ENDMDL
MODEL 8
REMARK VINA RESULT:      -9.5      4.041      8.710
REMARK  7 active torsions:
REMARK  status: ('A' for Active; 'I' for Inactive)
REMARK    1  A    between atoms: C_3  and  N_4 
REMARK       I    between atoms: N_4  and  C_5 
REMARK       I    between atoms: C_5  and  N_6 
REMARK       I    between atoms: N_6  and  C_7 
REMARK    2  A    between atoms: C_7  and  C_8 
REMARK    3  A    between atoms: C_8  and  S_9 
REMARK    4  A    between atoms: S_9  and  C_10 
REMARK    5  A    between atoms: N_11  and  C_12 
REMARK    6  A    between atoms: C_19  and  C_20 
REMARK    7  A    between atoms: C_20  and  N_21 
ROOT
HETATM    1  C   UNL     1       5.100  26.843  54.210  1.00  0.00     0.196 A 
HETATM    2  N   UNL     1       6.450  26.612  54.407  1.00  0.00    -0.274 N 
HETATM    3  C   UNL     1       6.705  25.477  53.650  1.00  0.00     0.161 A 
HETATM    4  N   UNL     1       5.605  25.091  53.032  1.00  0.00    -0.132 NA
HETATM    5  N   UNL     1       4.604  25.955  53.377  1.00  0.00    -0.122 NA
ENDROOT
BRANCH   1   6
HETATM    6  S   UNL     1       4.241  28.213  54.821  1.00  0.00    -0.080 SA
BRANCH   6   7
HETATM    7  C   UNL     1       4.671  29.483  53.592  1.00  0.00     0.185 C 
BRANCH   7   8
HETATM    8  C   UNL     1       3.438  30.208  53.056  1.00  0.00     0.235 C 
HETATM    9  N   UNL     1       2.905  29.796  51.850  1.00  0.00    -0.278 N 
HETATM   10  C   UNL     1       3.416  28.888  50.933  1.00  0.00     0.327 C 
HETATM   11  H   UNL     1       2.078  30.308  51.589  1.00  0.00     0.173 HD
HETATM   12  N   UNL     1       2.521  28.643  49.913  1.00  0.00    -0.306 N 
HETATM   13  O   UNL     1       4.521  28.378  51.051  1.00  0.00    -0.247 OA
HETATM   14  H   UNL     1       1.727  29.263  49.805  1.00  0.00     0.171 HD
HETATM   15  O   UNL     1       2.896  31.158  53.629  1.00  0.00    -0.272 OA
BRANCH  12  16
HETATM   16  C   UNL     1       2.617  27.654  48.907  1.00  0.00     0.075 A 
HETATM   17  C   UNL     1       3.589  26.654  48.872  1.00  0.00     0.033 A 
HETATM   18  C   UNL     1       3.574  25.695  47.850  1.00  0.00     0.002 A 
HETATM   19  C   UNL     1       2.595  25.731  46.857  1.00  0.00     0.003 A 
HETATM   20  C   UNL     1       1.620  26.725  46.883  1.00  0.00     0.044 A 
HETATM   21  C   UNL     1       1.638  27.670  47.904  1.00  0.00     0.143 A 
HETATM   22  F   UNL     1       0.690  28.621  47.929  1.00  0.00    -0.204 F 
ENDBRANCH  12  16
ENDBRANCH   7   8
ENDBRANCH   6   7
ENDBRANCH   1   6
BRANCH   2  23
HETATM   23  C   UNL     1       7.375  27.322  55.212  1.00  0.00     0.043 A 
HETATM   24  C   UNL     1       8.110  28.387  54.672  1.00  0.00     0.033 A 
HETATM   25  C   UNL     1       9.008  29.088  55.479  1.00  0.00     0.044 A 
HETATM   26  C   UNL     1       9.174  28.719  56.808  1.00  0.00     0.116 A 
HETATM   27  F   UNL     1      10.037  29.392  57.579  1.00  0.00    -0.206 F 
HETATM   28  C   UNL     1       8.459  27.656  57.351  1.00  0.00     0.044 A 
HETATM   29  C   UNL     1       7.556  26.951  56.553  1.00  0.00     0.033 A 
ENDBRANCH   2  23
BRANCH   3  30
HETATM   30  C   UNL     1       7.955  24.674  53.682  1.00  0.00     0.315 C 
BRANCH  30  31
HETATM   31  N   UNL     1       7.671  23.210  54.000  1.00  0.00    -0.064 N 
HETATM   32  H   UNL     1       6.643  23.124  53.916  1.00  0.00     0.280 HD
HETATM   33  C   UNL     1       8.259  22.283  52.961  1.00  0.00     0.235 C 
HETATM   34  C   UNL     1       7.843  20.851  53.257  1.00  0.00     0.028 C 
HETATM   35  C   UNL     1       8.226  20.435  54.672  1.00  0.00     0.003 C 
HETATM   36  C   UNL     1       7.654  21.407  55.698  1.00  0.00     0.028 C 
HETATM   37  C   UNL     1       8.062  22.843  55.404  1.00  0.00     0.235 C 
ENDBRANCH  30  31
ENDBRANCH   3  30
TORSDOF 7
ENDMDL
MODEL 9
REMARK VINA RESULT:      -9.5      3.186      5.097
REMARK  7 active torsions:
REMARK  status: ('A' for Active; 'I' for Inactive)
REMARK    1  A    between atoms: C_3  and  N_4 
REMARK       I    between atoms: N_4  and  C_5 
REMARK       I    between atoms: C_5  and  N_6 
REMARK       I    between atoms: N_6  and  C_7 
REMARK    2  A    between atoms: C_7  and  C_8 
REMARK    3  A    between atoms: C_8  and  S_9 
REMARK    4  A    between atoms: S_9  and  C_10 
REMARK    5  A    between atoms: N_11  and  C_12 
REMARK    6  A    between atoms: C_19  and  C_20 
REMARK    7  A    between atoms: C_20  and  N_21 
ROOT
HETATM    1  C   UNL     1       4.779  28.977  53.697  1.00  0.00     0.196 A 
HETATM    2  N   UNL     1       5.291  28.207  52.669  1.00  0.00    -0.274 N 
HETATM    3  C   UNL     1       5.134  29.008  51.546  1.00  0.00     0.161 A 
HETATM    4  N   UNL     1       4.605  30.166  51.890  1.00  0.00    -0.132 NA
HETATM    5  N   UNL     1       4.393  30.147  53.239  1.00  0.00    -0.122 NA
ENDROOT
BRANCH   1   6
HETATM    6  S   UNL     1       4.821  28.534  55.368  1.00  0.00    -0.080 SA
BRANCH   6   7
HETATM    7  C   UNL     1       6.254  29.486  55.956  1.00  0.00     0.185 C 
BRANCH   7   8
HETATM    8  C   UNL     1       7.236  28.623  56.744  1.00  0.00     0.235 C 
HETATM    9  N   UNL     1       7.647  29.063  57.988  1.00  0.00    -0.278 N 
HETATM   10  C   UNL     1       7.418  30.287  58.602  1.00  0.00     0.327 C 
HETATM   11  H   UNL     1       8.268  28.419  58.449  1.00  0.00     0.173 HD
HETATM   12  N   UNL     1       7.879  30.294  59.901  1.00  0.00    -0.306 N 
HETATM   13  O   UNL     1       6.862  31.218  58.036  1.00  0.00    -0.247 OA
HETATM   14  H   UNL     1       8.495  29.549  60.202  1.00  0.00     0.171 HD
HETATM   15  O   UNL     1       7.704  27.558  56.329  1.00  0.00    -0.272 OA
BRANCH  12  16
HETATM   16  C   UNL     1       7.664  31.289  60.882  1.00  0.00     0.075 A 
HETATM   17  C   UNL     1       6.720  32.312  60.777  1.00  0.00     0.033 A 
HETATM   18  C   UNL     1       6.559  33.229  61.824  1.00  0.00     0.002 A 
HETATM   19  C   UNL     1       7.337  33.135  62.978  1.00  0.00     0.003 A 
HETATM   20  C   UNL     1       8.282  32.118  63.092  1.00  0.00     0.044 A 
HETATM   21  C   UNL     1       8.433  31.208  62.051  1.00  0.00     0.143 A 
HETATM   22  F   UNL     1       9.339  30.223  62.172  1.00  0.00    -0.204 F 
ENDBRANCH  12  16
ENDBRANCH   7   8
ENDBRANCH   6   7
ENDBRANCH   1   6
BRANCH   2  23
HETATM   23  C   UNL     1       5.824  26.894  52.708  1.00  0.00     0.043 A 
HETATM   24  C   UNL     1       4.981  25.784  52.553  1.00  0.00     0.033 A 
HETATM   25  C   UNL     1       5.520  24.497  52.579  1.00  0.00     0.044 A 
HETATM   26  C   UNL     1       6.885  24.324  52.767  1.00  0.00     0.116 A 
HETATM   27  F   UNL     1       7.399  23.088  52.794  1.00  0.00    -0.206 F 
HETATM   28  C   UNL     1       7.729  25.417  52.935  1.00  0.00     0.044 A 
HETATM   29  C   UNL     1       7.200  26.709  52.907  1.00  0.00     0.033 A 
ENDBRANCH   2  23
BRANCH   3  30
HETATM   30  C   UNL     1       5.321  28.575  50.137  1.00  0.00     0.315 C 
BRANCH  30  31
HETATM   31  N   UNL     1       4.147  27.733  49.650  1.00  0.00    -0.064 N 
HETATM   32  H   UNL     1       3.734  27.344  50.515  1.00  0.00     0.280 HD
HETATM   33  C   UNL     1       3.071  28.583  49.013  1.00  0.00     0.235 C 
HETATM   34  C   UNL     1       1.874  27.714  48.660  1.00  0.00     0.028 C 
HETATM   35  C   UNL     1       2.274  26.542  47.771  1.00  0.00     0.003 C 
HETATM   36  C   UNL     1       3.386  25.724  48.416  1.00  0.00     0.028 C 
HETATM   37  C   UNL     1       4.585  26.589  48.778  1.00  0.00     0.235 C 
ENDBRANCH  30  31
ENDBRANCH   3  30
TORSDOF 7
ENDMDL
MODEL 10
REMARK VINA RESULT:      -9.2      3.360      9.738
REMARK  7 active torsions:
REMARK  status: ('A' for Active; 'I' for Inactive)
REMARK    1  A    between atoms: C_3  and  N_4 
REMARK       I    between atoms: N_4  and  C_5 
REMARK       I    between atoms: C_5  and  N_6 
REMARK       I    between atoms: N_6  and  C_7 
REMARK    2  A    between atoms: C_7  and  C_8 
REMARK    3  A    between atoms: C_8  and  S_9 
REMARK    4  A    between atoms: S_9  and  C_10 
REMARK    5  A    between atoms: N_11  and  C_12 
REMARK    6  A    between atoms: C_19  and  C_20 
REMARK    7  A    between atoms: C_20  and  N_21 
ROOT
HETATM    1  C   UNL     1       6.067  27.709  56.174  1.00  0.00     0.196 A 
HETATM    2  N   UNL     1       6.614  28.887  56.649  1.00  0.00    -0.274 N 
HETATM    3  C   UNL     1       5.509  29.695  56.879  1.00  0.00     0.161 A 
HETATM    4  N   UNL     1       4.402  29.036  56.595  1.00  0.00    -0.132 NA
HETATM    5  N   UNL     1       4.755  27.788  56.163  1.00  0.00    -0.122 NA
ENDROOT
BRANCH   1   6
HETATM    6  S   UNL     1       6.974  26.276  55.829  1.00  0.00    -0.080 SA
BRANCH   6   7
HETATM    7  C   UNL     1       5.724  25.258  54.986  1.00  0.00     0.185 C 
BRANCH   7   8
HETATM    8  C   UNL     1       6.333  24.397  53.882  1.00  0.00     0.235 C 
HETATM    9  N   UNL     1       6.145  24.783  52.568  1.00  0.00    -0.278 N 
HETATM   10  C   UNL     1       5.335  25.788  52.060  1.00  0.00     0.327 C 
HETATM   11  H   UNL     1       6.605  24.176  51.910  1.00  0.00     0.173 HD
HETATM   12  N   UNL     1       5.524  25.952  50.704  1.00  0.00    -0.306 N 
HETATM   13  O   UNL     1       4.567  26.437  52.757  1.00  0.00    -0.247 OA
HETATM   14  H   UNL     1       6.029  25.237  50.195  1.00  0.00     0.171 HD
HETATM   15  O   UNL     1       6.970  23.359  54.089  1.00  0.00    -0.272 OA
BRANCH  12  16
HETATM   16  C   UNL     1       5.014  26.986  49.886  1.00  0.00     0.075 A 
HETATM   17  C   UNL     1       5.457  28.309  49.915  1.00  0.00     0.033 A 
HETATM   18  C   UNL     1       4.911  29.252  49.034  1.00  0.00     0.002 A 
HETATM   19  C   UNL     1       3.919  28.884  48.124  1.00  0.00     0.003 A 
HETATM   20  C   UNL     1       3.470  27.567  48.087  1.00  0.00     0.044 A 
HETATM   21  C   UNL     1       4.021  26.635  48.961  1.00  0.00     0.143 A 
HETATM   22  F   UNL     1       3.590  25.363  48.914  1.00  0.00    -0.204 F 
ENDBRANCH  12  16
ENDBRANCH   7   8
ENDBRANCH   6   7
ENDBRANCH   1   6
BRANCH   2  23
HETATM   23  C   UNL     1       7.975  29.236  56.834  1.00  0.00     0.043 A 
HETATM   24  C   UNL     1       8.848  29.283  55.738  1.00  0.00     0.033 A 
HETATM   25  C   UNL     1      10.183  29.643  55.932  1.00  0.00     0.044 A 
HETATM   26  C   UNL     1      10.639  29.941  57.210  1.00  0.00     0.116 A 
HETATM   27  F   UNL     1      11.920  30.283  57.393  1.00  0.00    -0.206 F 
HETATM   28  C   UNL     1       9.785  29.885  58.306  1.00  0.00     0.044 A 
HETATM   29  C   UNL     1       8.447  29.531  58.122  1.00  0.00     0.033 A 
ENDBRANCH   2  23
BRANCH   3  30
HETATM   30  C   UNL     1       5.544  31.148  57.188  1.00  0.00     0.315 C 
BRANCH  30  31
HETATM   31  N   UNL     1       5.237  31.415  58.658  1.00  0.00    -0.064 N 
HETATM   32  H   UNL     1       5.338  30.491  59.112  1.00  0.00     0.280 HD
HETATM   33  C   UNL     1       6.272  32.315  59.294  1.00  0.00     0.235 C 
HETATM   34  C   UNL     1       5.989  32.448  60.782  1.00  0.00     0.028 C 
HETATM   35  C   UNL     1       4.570  32.938  61.043  1.00  0.00     0.003 C 
HETATM   36  C   UNL     1       3.548  32.039  60.359  1.00  0.00     0.028 C 
HETATM   37  C   UNL     1       3.829  31.896  58.870  1.00  0.00     0.235 C 
ENDBRANCH  30  31
ENDBRANCH   3  30
TORSDOF 7
ENDMDL
