MODEL 1
REMARK VINA RESULT:     -10.9      0.000      0.000
REMARK  8 active torsions:
REMARK  status: ('A' for Active; 'I' for Inactive)
REMARK    1  A    between atoms: C_2  and  C_3 
REMARK    2  A    between atoms: C_3  and  C_4 
REMARK    3  A    between atoms: C_3  and  C_38 
REMARK    4  A    between atoms: C_6  and  C_7 
REMARK    5  A    between atoms: C_14  and  C_15 
REMARK    6  A    between atoms: C_18  and  C_19 
REMARK    7  A    between atoms: C_19  and  N_20 
REMARK       I    between atoms: N_20  and  C_21 
REMARK       I    between atoms: C_21  and  N_22 
REMARK    8  A    between atoms: N_22  and  C_23 
ROOT
HETATM    1  C   UNL     1       7.233  31.814  62.153  1.00  0.00     0.037 A 
HETATM    2  C   UNL     1       5.924  32.240  62.403  1.00  0.00     0.052 A 
HETATM    3  C   UNL     1       5.644  33.082  63.488  1.00  0.00     0.046 A 
HETATM    4  C   UNL     1       4.294  33.499  63.730  1.00  0.00     0.099 C 
HETATM    5  N   UNL     1       3.194  33.827  63.902  1.00  0.00    -0.191 NA
HETATM    6  C   UNL     1       6.675  33.500  64.331  1.00  0.00     0.023 A 
HETATM    7  C   UNL     1       7.981  33.075  64.092  1.00  0.00     0.004 A 
HETATM    8  C   UNL     1       8.256  32.232  63.011  1.00  0.00     0.029 A 
ENDROOT
BRANCH   1   9
HETATM    9  N   UNL     1       7.575  30.941  61.099  1.00  0.00    -0.309 N 
HETATM   10  C   UNL     1       7.419  31.173  59.758  1.00  0.00     0.320 C 
HETATM   11  N   UNL     1       7.643  30.041  59.008  1.00  0.00    -0.341 N 
HETATM   12  O   UNL     1       7.159  32.246  59.222  1.00  0.00    -0.247 OA
HETATM   13  H   UNL     1       7.462  29.180  59.512  1.00  0.00     0.164 HD
HETATM   14  H   UNL     1       8.115  30.124  61.356  1.00  0.00     0.170 HD
BRANCH  11  15
HETATM   15  C   UNL     1       7.361  29.994  57.573  1.00  0.00     0.157 C 
BRANCH  15  16
HETATM   16  C   UNL     1       5.928  30.428  57.176  1.00  0.00     0.206 C 
HETATM   17  C   UNL     1       5.701  30.504  55.657  1.00  0.00     0.040 C 
HETATM   18  C   UNL     1       4.303  29.952  55.293  1.00  0.00     0.001 C 
HETATM   19  C   UNL     1       4.265  28.424  55.576  1.00  0.00     0.068 C 
HETATM   20  C   UNL     1       3.259  30.622  56.220  1.00  0.00     0.033 C 
HETATM   21  C   UNL     1       4.750  28.178  57.022  1.00  0.00     0.246 C 
HETATM   22  N   UNL     1       4.834  29.522  57.737  1.00  0.00    -0.065 N 
HETATM   23  C   UNL     1       3.504  30.229  57.682  1.00  0.00     0.236 C 
HETATM   24  H   UNL     1       5.080  29.307  58.728  1.00  0.00     0.280 HD
BRANCH  19  25
HETATM   25  C   UNL     1       5.007  27.611  54.535  1.00  0.00     0.045 A 
HETATM   26  N   UNL     1       4.709  27.820  53.238  1.00  0.00    -0.233 NA
HETATM   27  C   UNL     1       5.402  27.106  52.323  1.00  0.00     0.160 A 
HETATM   28  N   UNL     1       6.314  26.167  52.633  1.00  0.00    -0.233 NA
HETATM   29  C   UNL     1       6.590  25.959  53.935  1.00  0.00     0.043 A 
HETATM   30  C   UNL     1       5.951  26.679  54.930  1.00  0.00     0.055 A 
BRANCH  27  31
HETATM   31  C   UNL     1       5.179  27.412  50.898  1.00  0.00     0.014 A 
HETATM   32  C   UNL     1       4.790  26.418  49.987  1.00  0.00     0.034 A 
HETATM   33  C   UNL     1       4.618  26.743  48.650  1.00  0.00     0.117 A 
HETATM   34  N   UNL     1       4.800  27.982  48.154  1.00  0.00    -0.273 NA
HETATM   35  C   UNL     1       5.175  28.934  49.028  1.00  0.00     0.117 A 
HETATM   36  C   UNL     1       5.372  28.702  50.381  1.00  0.00     0.034 A 
ENDBRANCH  27  31
BRANCH  29  37
HETATM   37  C   UNL     1       7.610  24.889  54.303  1.00  0.00     0.037 C 
BRANCH  37  38
HETATM   38  C   UNL     1       7.988  24.000  53.094  1.00  0.00     0.006 C 
HETATM   39  C   UNL     1       8.015  22.496  53.341  1.00  0.00     0.006 C 
ENDBRANCH  37  38
BRANCH  37  40
HETATM   40  C   UNL     1       7.166  24.069  55.530  1.00  0.00     0.006 C 
HETATM   41  C   UNL     1       8.137  24.158  56.702  1.00  0.00     0.006 C 
ENDBRANCH  37  40
ENDBRANCH  29  37
ENDBRANCH  19  25
ENDBRANCH  15  16
ENDBRANCH  11  15
ENDBRANCH   1   9
TORSDOF 8
ENDMDL
MODEL 2
REMARK VINA RESULT:     -10.5      2.960     10.349
REMARK  8 active torsions:
REMARK  status: ('A' for Active; 'I' for Inactive)
REMARK    1  A    between atoms: C_2  and  C_3 
REMARK    2  A    between atoms: C_3  and  C_4 
REMARK    3  A    between atoms: C_3  and  C_38 
REMARK    4  A    between atoms: C_6  and  C_7 
REMARK    5  A    between atoms: C_14  and  C_15 
REMARK    6  A    between atoms: C_18  and  C_19 
REMARK    7  A    between atoms: C_19  and  N_20 
REMARK       I    between atoms: N_20  and  C_21 
REMARK       I    between atoms: C_21  and  N_22 
REMARK    8  A    between atoms: N_22  and  C_23 
ROOT
HETATM    1  C   UNL     1       6.682  24.177  54.421  1.00  0.00     0.037 A 
HETATM    2  C   UNL     1       7.218  23.224  55.293  1.00  0.00     0.052 A 
HETATM    3  C   UNL     1       8.099  22.241  54.821  1.00  0.00     0.046 A 
HETATM    4  C   UNL     1       8.630  21.269  55.731  1.00  0.00     0.099 C 
HETATM    5  N   UNL     1       9.050  20.497  56.488  1.00  0.00    -0.191 NA
HETATM    6  C   UNL     1       8.445  22.207  53.468  1.00  0.00     0.023 A 
HETATM    7  C   UNL     1       7.910  23.150  52.592  1.00  0.00     0.004 A 
HETATM    8  C   UNL     1       7.029  24.126  53.066  1.00  0.00     0.029 A 
ENDROOT
BRANCH   1   9
HETATM    9  N   UNL     1       5.764  25.169  54.827  1.00  0.00    -0.309 N 
HETATM   10  C   UNL     1       6.059  26.344  55.468  1.00  0.00     0.320 C 
HETATM   11  N   UNL     1       4.927  26.983  55.920  1.00  0.00    -0.341 N 
HETATM   12  O   UNL     1       7.169  26.845  55.614  1.00  0.00    -0.247 OA
HETATM   13  H   UNL     1       4.153  26.354  56.105  1.00  0.00     0.164 HD
HETATM   14  H   UNL     1       4.817  25.065  54.487  1.00  0.00     0.170 HD
BRANCH  11  15
HETATM   15  C   UNL     1       4.995  28.159  56.789  1.00  0.00     0.157 C 
BRANCH  15  16
HETATM   16  C   UNL     1       4.025  29.305  56.408  1.00  0.00     0.206 C 
HETATM   17  C   UNL     1       3.477  30.082  57.618  1.00  0.00     0.040 C 
HETATM   18  C   UNL     1       3.422  31.596  57.305  1.00  0.00     0.001 C 
HETATM   19  C   UNL     1       4.869  32.144  57.165  1.00  0.00     0.068 C 
HETATM   20  C   UNL     1       2.718  31.784  55.940  1.00  0.00     0.033 C 
HETATM   21  C   UNL     1       5.636  31.258  56.157  1.00  0.00     0.246 C 
HETATM   22  N   UNL     1       4.635  30.339  55.465  1.00  0.00    -0.065 N 
HETATM   23  C   UNL     1       3.543  31.148  54.814  1.00  0.00     0.236 C 
HETATM   24  H   UNL     1       5.175  29.822  54.737  1.00  0.00     0.280 HD
BRANCH  19  25
HETATM   25  C   UNL     1       5.573  32.306  58.496  1.00  0.00     0.045 A 
HETATM   26  N   UNL     1       4.856  32.764  59.540  1.00  0.00    -0.233 NA
HETATM   27  C   UNL     1       5.494  32.874  60.727  1.00  0.00     0.160 A 
HETATM   28  N   UNL     1       6.802  32.616  60.906  1.00  0.00    -0.233 NA
HETATM   29  C   UNL     1       7.509  32.173  59.849  1.00  0.00     0.043 A 
HETATM   30  C   UNL     1       6.917  31.995  58.610  1.00  0.00     0.055 A 
BRANCH  27  31
HETATM   31  C   UNL     1       4.694  33.253  61.906  1.00  0.00     0.014 A 
HETATM   32  C   UNL     1       3.318  33.508  61.807  1.00  0.00     0.034 A 
HETATM   33  C   UNL     1       2.608  33.889  62.935  1.00  0.00     0.117 A 
HETATM   34  N   UNL     1       3.165  34.031  64.154  1.00  0.00    -0.273 NA
HETATM   35  C   UNL     1       4.486  33.789  64.248  1.00  0.00     0.117 A 
HETATM   36  C   UNL     1       5.275  33.405  63.174  1.00  0.00     0.034 A 
ENDBRANCH  27  31
BRANCH  29  37
HETATM   37  C   UNL     1       8.995  31.889  60.032  1.00  0.00     0.037 C 
BRANCH  37  38
HETATM   38  C   UNL     1       9.480  30.716  59.145  1.00  0.00     0.006 C 
HETATM   39  C   UNL     1      10.370  31.083  57.964  1.00  0.00     0.006 C 
ENDBRANCH  37  38
BRANCH  37  40
HETATM   40  C   UNL     1       9.367  31.706  61.516  1.00  0.00     0.006 C 
HETATM   41  C   UNL     1       9.335  30.253  61.974  1.00  0.00     0.006 C 
ENDBRANCH  37  40
ENDBRANCH  29  37
ENDBRANCH  19  25
ENDBRANCH  15  16
ENDBRANCH  11  15
ENDBRANCH   1   9
TORSDOF 8
ENDMDL
MODEL 3
REMARK VINA RESULT:     -10.4      1.002      4.054
REMARK  8 active torsions:
REMARK  status: ('A' for Active; 'I' for Inactive)
REMARK    1  A    between atoms: C_2  and  C_3 
REMARK    2  A    between atoms: C_3  and  C_4 
REMARK    3  A    between atoms: C_3  and  C_38 
REMARK    4  A    between atoms: C_6  and  C_7 
REMARK    5  A    between atoms: C_14  and  C_15 
REMARK    6  A    between atoms: C_18  and  C_19 
REMARK    7  A    between atoms: C_19  and  N_20 
REMARK       I    between atoms: N_20  and  C_21 
REMARK       I    between atoms: C_21  and  N_22 
REMARK    8  A    between atoms: N_22  and  C_23 
ROOT
HETATM    1  C   UNL     1       7.243  31.689  61.837  1.00  0.00     0.037 A 
HETATM    2  C   UNL     1       5.961  32.160  62.140  1.00  0.00     0.052 A 
HETATM    3  C   UNL     1       5.751  32.989  63.250  1.00  0.00     0.046 A 
HETATM    4  C   UNL     1       4.428  33.454  63.547  1.00  0.00     0.099 C 
HETATM    5  N   UNL     1       3.349  33.821  63.762  1.00  0.00    -0.191 NA
HETATM    6  C   UNL     1       6.826  33.347  64.067  1.00  0.00     0.023 A 
HETATM    7  C   UNL     1       8.105  32.876  63.775  1.00  0.00     0.004 A 
HETATM    8  C   UNL     1       8.310  32.047  62.668  1.00  0.00     0.029 A 
ENDROOT
BRANCH   1   9
HETATM    9  N   UNL     1       7.515  30.825  60.755  1.00  0.00    -0.309 N 
HETATM   10  C   UNL     1       7.372  31.112  59.422  1.00  0.00     0.320 C 
HETATM   11  N   UNL     1       7.507  29.990  58.636  1.00  0.00    -0.341 N 
HETATM   12  O   UNL     1       7.193  32.217  58.922  1.00  0.00    -0.247 OA
HETATM   13  H   UNL     1       7.264  29.130  59.114  1.00  0.00     0.164 HD
HETATM   14  H   UNL     1       7.992  29.962  60.983  1.00  0.00     0.170 HD
BRANCH  11  15
HETATM   15  C   UNL     1       7.218  30.010  57.201  1.00  0.00     0.157 C 
BRANCH  15  16
HETATM   16  C   UNL     1       5.775  30.433  56.834  1.00  0.00     0.206 C 
HETATM   17  C   UNL     1       5.533  30.568  55.321  1.00  0.00     0.040 C 
HETATM   18  C   UNL     1       4.142  30.005  54.945  1.00  0.00     0.001 C 
HETATM   19  C   UNL     1       4.135  28.467  55.164  1.00  0.00     0.068 C 
HETATM   20  C   UNL     1       3.095  30.617  55.907  1.00  0.00     0.033 C 
HETATM   21  C   UNL     1       4.636  28.170  56.595  1.00  0.00     0.246 C 
HETATM   22  N   UNL     1       4.702  29.485  57.365  1.00  0.00    -0.065 N 
HETATM   23  C   UNL     1       3.359  30.169  57.350  1.00  0.00     0.236 C 
HETATM   24  H   UNL     1       4.960  29.233  58.344  1.00  0.00     0.280 HD
BRANCH  19  25
HETATM   25  C   UNL     1       4.883  27.712  54.085  1.00  0.00     0.045 A 
HETATM   26  N   UNL     1       5.698  26.709  54.463  1.00  0.00    -0.233 NA
HETATM   27  C   UNL     1       6.335  26.028  53.484  1.00  0.00     0.160 A 
HETATM   28  N   UNL     1       6.250  26.332  52.177  1.00  0.00    -0.233 NA
HETATM   29  C   UNL     1       5.441  27.347  51.815  1.00  0.00     0.043 A 
HETATM   30  C   UNL     1       4.725  28.067  52.756  1.00  0.00     0.055 A 
BRANCH  27  31
HETATM   31  C   UNL     1       7.132  24.849  53.872  1.00  0.00     0.014 A 
HETATM   32  C   UNL     1       7.641  23.961  52.912  1.00  0.00     0.034 A 
HETATM   33  C   UNL     1       8.361  22.850  53.320  1.00  0.00     0.117 A 
HETATM   34  N   UNL     1       8.616  22.559  54.611  1.00  0.00    -0.273 NA
HETATM   35  C   UNL     1       8.124  23.409  55.531  1.00  0.00     0.117 A 
HETATM   36  C   UNL     1       7.392  24.544  55.216  1.00  0.00     0.034 A 
ENDBRANCH  27  31
BRANCH  29  37
HETATM   37  C   UNL     1       5.344  27.713  50.339  1.00  0.00     0.037 C 
BRANCH  37  38
HETATM   38  C   UNL     1       4.749  29.126  50.125  1.00  0.00     0.006 C 
HETATM   39  C   UNL     1       5.737  30.230  49.767  1.00  0.00     0.006 C 
ENDBRANCH  37  38
BRANCH  37  40
HETATM   40  C   UNL     1       4.611  26.628  49.525  1.00  0.00     0.006 C 
HETATM   41  C   UNL     1       4.894  26.700  48.029  1.00  0.00     0.006 C 
ENDBRANCH  37  40
ENDBRANCH  29  37
ENDBRANCH  19  25
ENDBRANCH  15  16
ENDBRANCH  11  15
ENDBRANCH   1   9
TORSDOF 8
ENDMDL
MODEL 4
REMARK VINA RESULT:     -10.1      2.538      6.053
REMARK  8 active torsions:
REMARK  status: ('A' for Active; 'I' for Inactive)
REMARK    1  A    between atoms: C_2  and  C_3 
REMARK    2  A    between atoms: C_3  and  C_4 
REMARK    3  A    between atoms: C_3  and  C_38 
REMARK    4  A    between atoms: C_6  and  C_7 
REMARK    5  A    between atoms: C_14  and  C_15 
REMARK    6  A    between atoms: C_18  and  C_19 
REMARK    7  A    between atoms: C_19  and  N_20 
REMARK       I    between atoms: N_20  and  C_21 
REMARK       I    between atoms: C_21  and  N_22 
REMARK    8  A    between atoms: N_22  and  C_23 
ROOT
HETATM    1  C   UNL     1       8.643  29.531  58.260  1.00  0.00     0.037 A 
HETATM    2  C   UNL     1       8.064  30.331  59.249  1.00  0.00     0.052 A 
HETATM    3  C   UNL     1       8.649  31.553  59.610  1.00  0.00     0.046 A 
HETATM    4  C   UNL     1       8.043  32.354  60.632  1.00  0.00     0.099 C 
HETATM    5  N   UNL     1       7.530  32.986  61.459  1.00  0.00    -0.191 NA
HETATM    6  C   UNL     1       9.821  31.978  58.981  1.00  0.00     0.023 A 
HETATM    7  C   UNL     1      10.407  31.183  57.997  1.00  0.00     0.004 A 
HETATM    8  C   UNL     1       9.823  29.962  57.643  1.00  0.00     0.029 A 
ENDROOT
BRANCH   1   9
HETATM    9  N   UNL     1       8.123  28.276  57.876  1.00  0.00    -0.309 N 
HETATM   10  C   UNL     1       7.324  28.017  56.793  1.00  0.00     0.320 C 
HETATM   11  N   UNL     1       6.810  26.741  56.825  1.00  0.00    -0.341 N 
HETATM   12  O   UNL     1       7.092  28.769  55.852  1.00  0.00    -0.247 OA
HETATM   13  H   UNL     1       6.726  26.361  57.761  1.00  0.00     0.164 HD
HETATM   14  H   UNL     1       8.491  27.472  58.369  1.00  0.00     0.170 HD
BRANCH  11  15
HETATM   15  C   UNL     1       5.789  26.292  55.877  1.00  0.00     0.157 C 
BRANCH  15  16
HETATM   16  C   UNL     1       6.237  25.149  54.931  1.00  0.00     0.206 C 
HETATM   17  C   UNL     1       5.199  24.793  53.854  1.00  0.00     0.040 C 
HETATM   18  C   UNL     1       5.899  24.515  52.503  1.00  0.00     0.001 C 
HETATM   19  C   UNL     1       6.519  25.834  51.966  1.00  0.00     0.068 C 
HETATM   20  C   UNL     1       7.060  23.522  52.752  1.00  0.00     0.033 C 
HETATM   21  C   UNL     1       7.391  26.458  53.079  1.00  0.00     0.246 C 
HETATM   22  N   UNL     1       7.546  25.435  54.200  1.00  0.00    -0.065 N 
HETATM   23  C   UNL     1       8.124  24.151  53.660  1.00  0.00     0.236 C 
HETATM   24  H   UNL     1       8.207  25.858  54.888  1.00  0.00     0.280 HD
BRANCH  19  25
HETATM   25  C   UNL     1       5.488  26.783  51.392  1.00  0.00     0.045 A 
HETATM   26  N   UNL     1       5.053  27.791  52.171  1.00  0.00    -0.233 NA
HETATM   27  C   UNL     1       4.154  28.645  51.632  1.00  0.00     0.160 A 
HETATM   28  N   UNL     1       3.631  28.509  50.400  1.00  0.00    -0.233 NA
HETATM   29  C   UNL     1       4.065  27.487  49.638  1.00  0.00     0.043 A 
HETATM   30  C   UNL     1       5.014  26.594  50.105  1.00  0.00     0.055 A 
BRANCH  27  31
HETATM   31  C   UNL     1       3.762  29.825  52.425  1.00  0.00     0.014 A 
HETATM   32  C   UNL     1       3.051  30.890  51.853  1.00  0.00     0.034 A 
HETATM   33  C   UNL     1       2.726  31.993  52.627  1.00  0.00     0.117 A 
HETATM   34  N   UNL     1       3.054  32.113  53.928  1.00  0.00    -0.273 NA
HETATM   35  C   UNL     1       3.739  31.092  54.476  1.00  0.00     0.117 A 
HETATM   36  C   UNL     1       4.108  29.951  53.780  1.00  0.00     0.034 A 
ENDBRANCH  27  31
BRANCH  29  37
HETATM   37  C   UNL     1       3.472  27.311  48.246  1.00  0.00     0.037 C 
BRANCH  37  38
HETATM   38  C   UNL     1       1.932  27.461  48.242  1.00  0.00     0.006 C 
HETATM   39  C   UNL     1       1.325  28.189  47.048  1.00  0.00     0.006 C 
ENDBRANCH  37  38
BRANCH  37  40
HETATM   40  C   UNL     1       3.945  26.003  47.581  1.00  0.00     0.006 C 
HETATM   41  C   UNL     1       2.931  24.869  47.687  1.00  0.00     0.006 C 
ENDBRANCH  37  40
ENDBRANCH  29  37
ENDBRANCH  19  25
ENDBRANCH  15  16
ENDBRANCH  11  15
ENDBRANCH   1   9
TORSDOF 8
ENDMDL
MODEL 5
REMARK VINA RESULT:      -9.6      2.990     10.643
REMARK  8 active torsions:
REMARK  status: ('A' for Active; 'I' for Inactive)
REMARK    1  A    between atoms: C_2  and  C_3 
REMARK    2  A    between atoms: C_3  and  C_4 
REMARK    3  A    between atoms: C_3  and  C_38 
REMARK    4  A    between atoms: C_6  and  C_7 
REMARK    5  A    between atoms: C_14  and  C_15 
REMARK    6  A    between atoms: C_18  and  C_19 
REMARK    7  A    between atoms: C_19  and  N_20 
REMARK       I    between atoms: N_20  and  C_21 
REMARK       I    between atoms: C_21  and  N_22 
REMARK    8  A    between atoms: N_22  and  C_23 
ROOT
HETATM    1  C   UNL     1       6.474  24.371  54.624  1.00  0.00     0.037 A 
HETATM    2  C   UNL     1       7.081  23.383  55.406  1.00  0.00     0.052 A 
HETATM    3  C   UNL     1       7.986  22.478  54.835  1.00  0.00     0.046 A 
HETATM    4  C   UNL     1       8.591  21.468  55.654  1.00  0.00     0.099 C 
HETATM    5  N   UNL     1       9.070  20.664  56.339  1.00  0.00    -0.191 NA
HETATM    6  C   UNL     1       8.287  22.557  53.474  1.00  0.00     0.023 A 
HETATM    7  C   UNL     1       7.681  23.535  52.686  1.00  0.00     0.004 A 
HETATM    8  C   UNL     1       6.775  24.434  53.259  1.00  0.00     0.029 A 
ENDROOT
BRANCH   1   9
HETATM    9  N   UNL     1       5.530  25.289  55.131  1.00  0.00    -0.309 N 
HETATM   10  C   UNL     1       5.733  26.621  55.380  1.00  0.00     0.320 C 
HETATM   11  N   UNL     1       4.687  27.182  56.075  1.00  0.00    -0.341 N 
HETATM   12  O   UNL     1       6.687  27.301  55.014  1.00  0.00    -0.247 OA
HETATM   13  H   UNL     1       4.177  26.517  56.645  1.00  0.00     0.164 HD
HETATM   14  H   UNL     1       4.574  24.960  55.184  1.00  0.00     0.170 HD
BRANCH  11  15
HETATM   15  C   UNL     1       4.753  28.542  56.613  1.00  0.00     0.157 C 
BRANCH  15  16
HETATM   16  C   UNL     1       3.936  29.594  55.823  1.00  0.00     0.206 C 
HETATM   17  C   UNL     1       3.004  30.444  56.703  1.00  0.00     0.040 C 
HETATM   18  C   UNL     1       3.019  31.918  56.236  1.00  0.00     0.001 C 
HETATM   19  C   UNL     1       4.419  32.531  56.517  1.00  0.00     0.068 C 
HETATM   20  C   UNL     1       2.798  31.945  54.704  1.00  0.00     0.033 C 
HETATM   21  C   UNL     1       5.495  31.603  55.908  1.00  0.00     0.246 C 
HETATM   22  N   UNL     1       4.798  30.572  55.028  1.00  0.00    -0.065 N 
HETATM   23  C   UNL     1       3.961  31.258  53.978  1.00  0.00     0.236 C 
HETATM   24  H   UNL     1       5.558  30.022  54.570  1.00  0.00     0.280 HD
BRANCH  19  25
HETATM   25  C   UNL     1       4.643  32.850  57.981  1.00  0.00     0.045 A 
HETATM   26  N   UNL     1       5.733  32.335  58.581  1.00  0.00    -0.233 NA
HETATM   27  C   UNL     1       5.932  32.654  59.879  1.00  0.00     0.160 A 
HETATM   28  N   UNL     1       5.081  33.395  60.612  1.00  0.00    -0.233 NA
HETATM   29  C   UNL     1       3.988  33.891  60.001  1.00  0.00     0.043 A 
HETATM   30  C   UNL     1       3.736  33.642  58.663  1.00  0.00     0.055 A 
BRANCH  27  31
HETATM   31  C   UNL     1       7.184  32.203  60.516  1.00  0.00     0.014 A 
HETATM   32  C   UNL     1       8.407  32.235  59.830  1.00  0.00     0.034 A 
HETATM   33  C   UNL     1       9.556  31.776  60.455  1.00  0.00     0.117 A 
HETATM   34  N   UNL     1       9.578  31.291  61.712  1.00  0.00    -0.273 NA
HETATM   35  C   UNL     1       8.403  31.258  62.368  1.00  0.00     0.117 A 
HETATM   36  C   UNL     1       7.205  31.695  61.823  1.00  0.00     0.034 A 
ENDBRANCH  27  31
BRANCH  29  37
HETATM   37  C   UNL     1       3.007  34.720  60.820  1.00  0.00     0.037 C 
BRANCH  37  38
HETATM   38  C   UNL     1       2.887  36.172  60.295  1.00  0.00     0.006 C 
HETATM   39  C   UNL     1       4.156  37.015  60.341  1.00  0.00     0.006 C 
ENDBRANCH  37  38
BRANCH  37  40
HETATM   40  C   UNL     1       3.319  34.657  62.329  1.00  0.00     0.006 C 
HETATM   41  C   UNL     1       2.196  34.040  63.154  1.00  0.00     0.006 C 
ENDBRANCH  37  40
ENDBRANCH  29  37
ENDBRANCH  19  25
ENDBRANCH  15  16
ENDBRANCH  11  15
ENDBRANCH   1   9
TORSDOF 8
ENDMDL
MODEL 6
REMARK VINA RESULT:      -9.4      3.007      4.810
REMARK  8 active torsions:
REMARK  status: ('A' for Active; 'I' for Inactive)
REMARK    1  A    between atoms: C_2  and  C_3 
REMARK    2  A    between atoms: C_3  and  C_4 
REMARK    3  A    between atoms: C_3  and  C_38 
REMARK    4  A    between atoms: C_6  and  C_7 
REMARK    5  A    between atoms: C_14  and  C_15 
REMARK    6  A    between atoms: C_18  and  C_19 
REMARK    7  A    between atoms: C_19  and  N_20 
REMARK       I    between atoms: N_20  and  C_21 
REMARK       I    between atoms: C_21  and  N_22 
REMARK    8  A    between atoms: N_22  and  C_23 
ROOT
HETATM    1  C   UNL     1       6.270  32.504  62.438  1.00  0.00     0.037 A 
HETATM    2  C   UNL     1       5.348  32.924  63.402  1.00  0.00     0.052 A 
HETATM    3  C   UNL     1       5.785  33.389  64.651  1.00  0.00     0.046 A 
HETATM    4  C   UNL     1       4.822  33.807  65.627  1.00  0.00     0.099 C 
HETATM    5  N   UNL     1       4.024  34.144  66.398  1.00  0.00    -0.191 NA
HETATM    6  C   UNL     1       7.150  33.431  64.941  1.00  0.00     0.023 A 
HETATM    7  C   UNL     1       8.075  33.008  63.987  1.00  0.00     0.004 A 
HETATM    8  C   UNL     1       7.635  32.542  62.744  1.00  0.00     0.029 A 
ENDROOT
BRANCH   1   9
HETATM    9  N   UNL     1       5.894  31.995  61.177  1.00  0.00    -0.309 N 
HETATM   10  C   UNL     1       4.722  32.241  60.509  1.00  0.00     0.320 C 
HETATM   11  N   UNL     1       4.571  31.423  59.414  1.00  0.00    -0.341 N 
HETATM   12  O   UNL     1       3.890  33.102  60.776  1.00  0.00    -0.247 OA
HETATM   13  H   UNL     1       5.062  30.539  59.497  1.00  0.00     0.164 HD
HETATM   14  H   UNL     1       6.618  31.515  60.657  1.00  0.00     0.170 HD
BRANCH  11  15
HETATM   15  C   UNL     1       3.323  31.372  58.650  1.00  0.00     0.157 C 
BRANCH  15  16
HETATM   16  C   UNL     1       3.439  31.851  57.182  1.00  0.00     0.206 C 
HETATM   17  C   UNL     1       4.887  31.932  56.669  1.00  0.00     0.040 C 
HETATM   18  C   UNL     1       4.971  31.423  55.211  1.00  0.00     0.001 C 
HETATM   19  C   UNL     1       4.675  29.899  55.181  1.00  0.00     0.068 C 
HETATM   20  C   UNL     1       3.866  32.128  54.386  1.00  0.00     0.033 C 
HETATM   21  C   UNL     1       3.347  29.639  55.927  1.00  0.00     0.246 C 
HETATM   22  N   UNL     1       2.672  30.981  56.189  1.00  0.00    -0.065 N 
HETATM   23  C   UNL     1       2.475  31.730  54.896  1.00  0.00     0.236 C 
HETATM   24  H   UNL     1       1.745  30.760  56.614  1.00  0.00     0.280 HD
BRANCH  19  25
HETATM   25  C   UNL     1       5.833  29.061  55.684  1.00  0.00     0.045 A 
HETATM   26  N   UNL     1       6.950  29.699  56.080  1.00  0.00    -0.233 NA
HETATM   27  C   UNL     1       7.962  28.936  56.553  1.00  0.00     0.160 A 
HETATM   28  N   UNL     1       7.939  27.592  56.588  1.00  0.00    -0.233 NA
HETATM   29  C   UNL     1       6.820  26.968  56.175  1.00  0.00     0.043 A 
HETATM   30  C   UNL     1       5.726  27.681  55.715  1.00  0.00     0.055 A 
BRANCH  27  31
HETATM   31  C   UNL     1       9.142  29.625  57.108  1.00  0.00     0.014 A 
HETATM   32  C   UNL     1       9.013  30.663  58.042  1.00  0.00     0.034 A 
HETATM   33  C   UNL     1      10.147  31.303  58.518  1.00  0.00     0.117 A 
HETATM   34  N   UNL     1      11.399  30.983  58.136  1.00  0.00    -0.273 NA
HETATM   35  C   UNL     1      11.522  29.989  57.238  1.00  0.00     0.117 A 
HETATM   36  C   UNL     1      10.446  29.295  56.707  1.00  0.00     0.034 A 
ENDBRANCH  27  31
BRANCH  29  37
HETATM   37  C   UNL     1       6.782  25.444  56.197  1.00  0.00     0.037 C 
BRANCH  37  38
HETATM   38  C   UNL     1       8.196  24.826  56.323  1.00  0.00     0.006 C 
HETATM   39  C   UNL     1       8.293  23.510  57.086  1.00  0.00     0.006 C 
ENDBRANCH  37  38
BRANCH  37  40
HETATM   40  C   UNL     1       5.986  24.872  55.007  1.00  0.00     0.006 C 
HETATM   41  C   UNL     1       6.850  24.573  53.788  1.00  0.00     0.006 C 
ENDBRANCH  37  40
ENDBRANCH  29  37
ENDBRANCH  19  25
ENDBRANCH  15  16
ENDBRANCH  11  15
ENDBRANCH   1   9
TORSDOF 8
ENDMDL
MODEL 7
REMARK VINA RESULT:      -9.3      4.289      9.682
REMARK  8 active torsions:
REMARK  status: ('A' for Active; 'I' for Inactive)
REMARK    1  A    between atoms: C_2  and  C_3 
REMARK    2  A    between atoms: C_3  and  C_4 
REMARK    3  A    between atoms: C_3  and  C_38 
REMARK    4  A    between atoms: C_6  and  C_7 
REMARK    5  A    between atoms: C_14  and  C_15 
REMARK    6  A    between atoms: C_18  and  C_19 
REMARK    7  A    between atoms: C_19  and  N_20 
REMARK       I    between atoms: N_20  and  C_21 
REMARK       I    between atoms: C_21  and  N_22 
REMARK    8  A    between atoms: N_22  and  C_23 
ROOT
HETATM    1  C   UNL     1       7.977  30.932  59.199  1.00  0.00     0.037 A 
HETATM    2  C   UNL     1       7.739  29.711  58.561  1.00  0.00     0.052 A 
HETATM    3  C   UNL     1       8.709  29.145  57.722  1.00  0.00     0.046 A 
HETATM    4  C   UNL     1       8.442  27.896  57.071  1.00  0.00     0.099 C 
HETATM    5  N   UNL     1       8.203  26.882  56.561  1.00  0.00    -0.191 NA
HETATM    6  C   UNL     1       9.923  29.804  57.515  1.00  0.00     0.023 A 
HETATM    7  C   UNL     1      10.165  31.025  58.143  1.00  0.00     0.004 A 
HETATM    8  C   UNL     1       9.193  31.588  58.977  1.00  0.00     0.029 A 
ENDROOT
BRANCH   1   9
HETATM    9  N   UNL     1       7.029  31.570  60.028  1.00  0.00    -0.309 N 
HETATM   10  C   UNL     1       7.009  31.573  61.398  1.00  0.00     0.320 C 
HETATM   11  N   UNL     1       5.837  32.095  61.896  1.00  0.00    -0.341 N 
HETATM   12  O   UNL     1       7.910  31.213  62.148  1.00  0.00    -0.247 OA
HETATM   13  H   UNL     1       5.049  31.995  61.265  1.00  0.00     0.164 HD
HETATM   14  H   UNL     1       6.385  32.199  59.565  1.00  0.00     0.170 HD
BRANCH  11  15
HETATM   15  C   UNL     1       5.506  32.038  63.320  1.00  0.00     0.157 C 
BRANCH  15  16
HETATM   16  C   UNL     1       5.187  33.408  63.969  1.00  0.00     0.206 C 
HETATM   17  C   UNL     1       5.733  34.610  63.180  1.00  0.00     0.040 C 
HETATM   18  C   UNL     1       4.703  35.764  63.178  1.00  0.00     0.001 C 
HETATM   19  C   UNL     1       3.459  35.340  62.350  1.00  0.00     0.068 C 
HETATM   20  C   UNL     1       4.236  36.002  64.634  1.00  0.00     0.033 C 
HETATM   21  C   UNL     1       2.962  33.973  62.873  1.00  0.00     0.246 C 
HETATM   22  N   UNL     1       3.695  33.659  64.173  1.00  0.00    -0.065 N 
HETATM   23  C   UNL     1       3.493  34.771  65.170  1.00  0.00     0.236 C 
HETATM   24  H   UNL     1       3.273  32.777  64.536  1.00  0.00     0.280 HD
BRANCH  19  25
HETATM   25  C   UNL     1       3.702  35.372  60.855  1.00  0.00     0.045 A 
HETATM   26  N   UNL     1       3.958  34.207  60.231  1.00  0.00    -0.233 NA
HETATM   27  C   UNL     1       4.144  34.251  58.893  1.00  0.00     0.160 A 
HETATM   28  N   UNL     1       4.150  35.386  58.170  1.00  0.00    -0.233 NA
HETATM   29  C   UNL     1       3.906  36.545  58.811  1.00  0.00     0.043 A 
HETATM   30  C   UNL     1       3.666  36.577  60.175  1.00  0.00     0.055 A 
BRANCH  27  31
HETATM   31  C   UNL     1       4.300  32.972  58.176  1.00  0.00     0.014 A 
HETATM   32  C   UNL     1       3.717  31.788  58.654  1.00  0.00     0.034 A 
HETATM   33  C   UNL     1       3.912  30.601  57.965  1.00  0.00     0.117 A 
HETATM   34  N   UNL     1       4.640  30.506  56.835  1.00  0.00    -0.273 NA
HETATM   35  C   UNL     1       5.201  31.641  56.379  1.00  0.00     0.117 A 
HETATM   36  C   UNL     1       5.062  32.872  57.002  1.00  0.00     0.034 A 
ENDBRANCH  27  31
BRANCH  29  37
HETATM   37  C   UNL     1       3.922  37.840  58.010  1.00  0.00     0.037 C 
BRANCH  37  38
HETATM   38  C   UNL     1       5.223  38.003  57.186  1.00  0.00     0.006 C 
HETATM   39  C   UNL     1       6.271  38.952  57.755  1.00  0.00     0.006 C 
ENDBRANCH  37  38
BRANCH  37  40
HETATM   40  C   UNL     1       3.619  39.067  58.893  1.00  0.00     0.006 C 
HETATM   41  C   UNL     1       2.345  39.801  58.493  1.00  0.00     0.006 C 
ENDBRANCH  37  40
ENDBRANCH  29  37
ENDBRANCH  19  25
ENDBRANCH  15  16
ENDBRANCH  11  15
ENDBRANCH   1   9
TORSDOF 8
ENDMDL
MODEL 8
REMARK VINA RESULT:      -9.2      2.843     11.237
REMARK  8 active torsions:
REMARK  status: ('A' for Active; 'I' for Inactive)
REMARK    1  A    between atoms: C_2  and  C_3 
REMARK    2  A    between atoms: C_3  and  C_4 
REMARK    3  A    between atoms: C_3  and  C_38 
REMARK    4  A    between atoms: C_6  and  C_7 
REMARK    5  A    between atoms: C_14  and  C_15 
REMARK    6  A    between atoms: C_18  and  C_19 
REMARK    7  A    between atoms: C_19  and  N_20 
REMARK       I    between atoms: N_20  and  C_21 
REMARK       I    between atoms: C_21  and  N_22 
REMARK    8  A    between atoms: N_22  and  C_23 
ROOT
HETATM    1  C   UNL     1       5.811  28.252  57.112  1.00  0.00     0.037 A 
HETATM    2  C   UNL     1       5.285  27.525  56.040  1.00  0.00     0.052 A 
HETATM    3  C   UNL     1       6.043  26.522  55.418  1.00  0.00     0.046 A 
HETATM    4  C   UNL     1       5.487  25.795  54.315  1.00  0.00     0.099 C 
HETATM    5  N   UNL     1       5.012  25.217  53.429  1.00  0.00    -0.191 NA
HETATM    6  C   UNL     1       7.336  26.245  55.868  1.00  0.00     0.023 A 
HETATM    7  C   UNL     1       7.869  26.970  56.933  1.00  0.00     0.004 A 
HETATM    8  C   UNL     1       7.111  27.972  57.548  1.00  0.00     0.029 A 
ENDROOT
BRANCH   1   9
HETATM    9  N   UNL     1       5.114  29.295  57.757  1.00  0.00    -0.309 N 
HETATM   10  C   UNL     1       4.945  30.575  57.298  1.00  0.00     0.320 C 
HETATM   11  N   UNL     1       4.411  31.402  58.259  1.00  0.00    -0.341 N 
HETATM   12  O   UNL     1       5.176  30.987  56.166  1.00  0.00    -0.247 OA
HETATM   13  H   UNL     1       4.617  31.107  59.207  1.00  0.00     0.164 HD
HETATM   14  H   UNL     1       4.570  29.031  58.570  1.00  0.00     0.170 HD
BRANCH  11  15
HETATM   15  C   UNL     1       4.306  32.849  58.066  1.00  0.00     0.157 C 
BRANCH  15  16
HETATM   16  C   UNL     1       3.155  33.528  58.849  1.00  0.00     0.206 C 
HETATM   17  C   UNL     1       2.954  32.967  60.267  1.00  0.00     0.040 C 
HETATM   18  C   UNL     1       2.647  34.113  61.260  1.00  0.00     0.001 C 
HETATM   19  C   UNL     1       3.906  35.009  61.414  1.00  0.00     0.068 C 
HETATM   20  C   UNL     1       1.522  34.990  60.658  1.00  0.00     0.033 C 
HETATM   21  C   UNL     1       4.390  35.427  60.008  1.00  0.00     0.246 C 
HETATM   22  N   UNL     1       3.317  35.039  58.995  1.00  0.00    -0.065 N 
HETATM   23  C   UNL     1       1.997  35.665  59.365  1.00  0.00     0.236 C 
HETATM   24  H   UNL     1       3.640  35.412  58.075  1.00  0.00     0.280 HD
BRANCH  19  25
HETATM   25  C   UNL     1       4.984  34.374  62.269  1.00  0.00     0.045 A 
HETATM   26  N   UNL     1       4.928  34.562  63.601  1.00  0.00    -0.233 NA
HETATM   27  C   UNL     1       5.882  33.964  64.349  1.00  0.00     0.160 A 
HETATM   28  N   UNL     1       6.905  33.255  63.839  1.00  0.00    -0.233 NA
HETATM   29  C   UNL     1       6.956  33.088  62.504  1.00  0.00     0.043 A 
HETATM   30  C   UNL     1       5.992  33.636  61.674  1.00  0.00     0.055 A 
BRANCH  27  31
HETATM   31  C   UNL     1       5.764  34.054  65.816  1.00  0.00     0.014 A 
HETATM   32  C   UNL     1       6.895  34.195  66.635  1.00  0.00     0.034 A 
HETATM   33  C   UNL     1       6.742  34.248  68.012  1.00  0.00     0.117 A 
HETATM   34  N   UNL     1       5.549  34.176  68.633  1.00  0.00    -0.273 NA
HETATM   35  C   UNL     1       4.465  34.039  67.847  1.00  0.00     0.117 A 
HETATM   36  C   UNL     1       4.522  33.975  66.463  1.00  0.00     0.034 A 
ENDBRANCH  27  31
BRANCH  29  37
HETATM   37  C   UNL     1       8.115  32.299  61.909  1.00  0.00     0.037 C 
BRANCH  37  38
HETATM   38  C   UNL     1       7.959  32.089  60.384  1.00  0.00     0.006 C 
HETATM   39  C   UNL     1       9.210  32.301  59.539  1.00  0.00     0.006 C 
ENDBRANCH  37  38
BRANCH  37  40
HETATM   40  C   UNL     1       8.363  30.981  62.670  1.00  0.00     0.006 C 
HETATM   41  C   UNL     1       9.465  30.125  62.055  1.00  0.00     0.006 C 
ENDBRANCH  37  40
ENDBRANCH  29  37
ENDBRANCH  19  25
ENDBRANCH  15  16
ENDBRANCH  11  15
ENDBRANCH   1   9
TORSDOF 8
ENDMDL
MODEL 9
REMARK VINA RESULT:      -9.0      3.654      6.058
REMARK  8 active torsions:
REMARK  status: ('A' for Active; 'I' for Inactive)
REMARK    1  A    between atoms: C_2  and  C_3 
REMARK    2  A    between atoms: C_3  and  C_4 
REMARK    3  A    between atoms: C_3  and  C_38 
REMARK    4  A    between atoms: C_6  and  C_7 
REMARK    5  A    between atoms: C_14  and  C_15 
REMARK    6  A    between atoms: C_18  and  C_19 
REMARK    7  A    between atoms: C_19  and  N_20 
REMARK       I    between atoms: N_20  and  C_21 
REMARK       I    between atoms: C_21  and  N_22 
REMARK    8  A    between atoms: N_22  and  C_23 
ROOT
HETATM    1  C   UNL     1       4.495  36.226  62.093  1.00  0.00     0.037 A 
HETATM    2  C   UNL     1       5.374  37.147  61.515  1.00  0.00     0.052 A 
HETATM    3  C   UNL     1       6.049  38.083  62.309  1.00  0.00     0.046 A 
HETATM    4  C   UNL     1       6.939  39.024  61.694  1.00  0.00     0.099 C 
HETATM    5  N   UNL     1       7.657  39.771  61.173  1.00  0.00    -0.191 NA
HETATM    6  C   UNL     1       5.845  38.102  63.691  1.00  0.00     0.023 A 
HETATM    7  C   UNL     1       4.967  37.191  64.274  1.00  0.00     0.004 A 
HETATM    8  C   UNL     1       4.291  36.260  63.477  1.00  0.00     0.029 A 
ENDROOT
BRANCH   1   9
HETATM    9  N   UNL     1       3.760  35.281  61.346  1.00  0.00    -0.309 N 
HETATM   10  C   UNL     1       4.201  34.060  60.906  1.00  0.00     0.320 C 
HETATM   11  N   UNL     1       3.321  33.482  60.021  1.00  0.00    -0.341 N 
HETATM   12  O   UNL     1       5.222  33.477  61.256  1.00  0.00    -0.247 OA
HETATM   13  H   UNL     1       2.755  34.154  59.515  1.00  0.00     0.164 HD
HETATM   14  H   UNL     1       2.770  35.467  61.245  1.00  0.00     0.170 HD
BRANCH  11  15
HETATM   15  C   UNL     1       3.655  32.265  59.279  1.00  0.00     0.157 C 
BRANCH  15  16
HETATM   16  C   UNL     1       3.735  32.442  57.742  1.00  0.00     0.206 C 
HETATM   17  C   UNL     1       5.170  32.429  57.190  1.00  0.00     0.040 C 
HETATM   18  C   UNL     1       5.229  31.641  55.861  1.00  0.00     0.001 C 
HETATM   19  C   UNL     1       4.949  30.139  56.142  1.00  0.00     0.068 C 
HETATM   20  C   UNL     1       4.099  32.160  54.938  1.00  0.00     0.033 C 
HETATM   21  C   UNL     1       3.640  30.025  56.955  1.00  0.00     0.246 C 
HETATM   22  N   UNL     1       2.956  31.387  56.960  1.00  0.00    -0.065 N 
HETATM   23  C   UNL     1       2.723  31.862  55.548  1.00  0.00     0.236 C 
HETATM   24  H   UNL     1       2.041  31.249  57.442  1.00  0.00     0.280 HD
BRANCH  19  25
HETATM   25  C   UNL     1       6.126  29.425  56.774  1.00  0.00     0.045 A 
HETATM   26  N   UNL     1       6.213  28.090  56.622  1.00  0.00    -0.233 NA
HETATM   27  C   UNL     1       7.286  27.475  57.169  1.00  0.00     0.160 A 
HETATM   28  N   UNL     1       8.224  28.104  57.900  1.00  0.00    -0.233 NA
HETATM   29  C   UNL     1       8.115  29.437  58.055  1.00  0.00     0.043 A 
HETATM   30  C   UNL     1       7.067  30.144  57.492  1.00  0.00     0.055 A 
BRANCH  27  31
HETATM   31  C   UNL     1       7.463  26.035  56.905  1.00  0.00     0.014 A 
HETATM   32  C   UNL     1       8.495  25.300  57.507  1.00  0.00     0.034 A 
HETATM   33  C   UNL     1       8.643  23.955  57.211  1.00  0.00     0.117 A 
HETATM   34  N   UNL     1       7.838  23.285  56.363  1.00  0.00    -0.273 NA
HETATM   35  C   UNL     1       6.850  23.991  55.783  1.00  0.00     0.117 A 
HETATM   36  C   UNL     1       6.627  25.339  56.018  1.00  0.00     0.034 A 
ENDBRANCH  27  31
BRANCH  29  37
HETATM   37  C   UNL     1       9.162  30.163  58.891  1.00  0.00     0.037 C 
BRANCH  37  38
HETATM   38  C   UNL     1       8.524  31.030  60.003  1.00  0.00     0.006 C 
HETATM   39  C   UNL     1       9.489  31.759  60.932  1.00  0.00     0.006 C 
ENDBRANCH  37  38
BRANCH  37  40
HETATM   40  C   UNL     1      10.152  30.953  58.013  1.00  0.00     0.006 C 
HETATM   41  C   UNL     1      11.217  30.078  57.363  1.00  0.00     0.006 C 
ENDBRANCH  37  40
ENDBRANCH  29  37
ENDBRANCH  19  25
ENDBRANCH  15  16
ENDBRANCH  11  15
ENDBRANCH   1   9
TORSDOF 8
ENDMDL
MODEL 10
REMARK VINA RESULT:      -9.0      3.640      7.705
REMARK  8 active torsions:
REMARK  status: ('A' for Active; 'I' for Inactive)
REMARK    1  A    between atoms: C_2  and  C_3 
REMARK    2  A    between atoms: C_3  and  C_4 
REMARK    3  A    between atoms: C_3  and  C_38 
REMARK    4  A    between atoms: C_6  and  C_7 
REMARK    5  A    between atoms: C_14  and  C_15 
REMARK    6  A    between atoms: C_18  and  C_19 
REMARK    7  A    between atoms: C_19  and  N_20 
REMARK       I    between atoms: N_20  and  C_21 
REMARK       I    between atoms: C_21  and  N_22 
REMARK    8  A    between atoms: N_22  and  C_23 
ROOT
HETATM    1  C   UNL     1       7.945  24.467  54.751  1.00  0.00     0.037 A 
HETATM    2  C   UNL     1       8.406  23.374  55.493  1.00  0.00     0.052 A 
HETATM    3  C   UNL     1       8.669  22.148  54.867  1.00  0.00     0.046 A 
HETATM    4  C   UNL     1       9.132  21.039  55.647  1.00  0.00     0.099 C 
HETATM    5  N   UNL     1       9.511  20.158  56.300  1.00  0.00    -0.191 NA
HETATM    6  C   UNL     1       8.469  22.010  53.491  1.00  0.00     0.023 A 
HETATM    7  C   UNL     1       8.005  23.094  52.746  1.00  0.00     0.004 A 
HETATM    8  C   UNL     1       7.740  24.314  53.376  1.00  0.00     0.029 A 
ENDROOT
BRANCH   1   9
HETATM    9  N   UNL     1       7.630  25.716  55.327  1.00  0.00    -0.309 N 
HETATM   10  C   UNL     1       6.669  25.964  56.272  1.00  0.00     0.320 C 
HETATM   11  N   UNL     1       6.464  27.312  56.458  1.00  0.00    -0.341 N 
HETATM   12  O   UNL     1       6.062  25.133  56.940  1.00  0.00    -0.247 OA
HETATM   13  H   UNL     1       6.690  27.872  55.644  1.00  0.00     0.164 HD
HETATM   14  H   UNL     1       8.268  26.475  55.123  1.00  0.00     0.170 HD
BRANCH  11  15
HETATM   15  C   UNL     1       5.366  27.823  57.281  1.00  0.00     0.157 C 
BRANCH  15  16
HETATM   16  C   UNL     1       5.353  29.360  57.465  1.00  0.00     0.206 C 
HETATM   17  C   UNL     1       6.097  30.125  56.357  1.00  0.00     0.040 C 
HETATM   18  C   UNL     1       5.320  31.405  55.972  1.00  0.00     0.001 C 
HETATM   19  C   UNL     1       3.984  31.008  55.286  1.00  0.00     0.068 C 
HETATM   20  C   UNL     1       4.967  32.169  57.271  1.00  0.00     0.033 C 
HETATM   21  C   UNL     1       3.245  29.999  56.193  1.00  0.00     0.246 C 
HETATM   22  N   UNL     1       3.951  29.959  57.544  1.00  0.00    -0.065 N 
HETATM   23  C   UNL     1       4.015  31.341  58.143  1.00  0.00     0.236 C 
HETATM   24  H   UNL     1       3.375  29.336  58.152  1.00  0.00     0.280 HD
BRANCH  19  25
HETATM   25  C   UNL     1       4.169  30.528  53.861  1.00  0.00     0.045 A 
HETATM   26  N   UNL     1       4.253  31.454  52.887  1.00  0.00    -0.233 NA
HETATM   27  C   UNL     1       4.447  31.008  51.626  1.00  0.00     0.160 A 
HETATM   28  N   UNL     1       4.497  29.707  51.286  1.00  0.00    -0.233 NA
HETATM   29  C   UNL     1       4.397  28.793  52.269  1.00  0.00     0.043 A 
HETATM   30  C   UNL     1       4.237  29.172  53.591  1.00  0.00     0.055 A 
BRANCH  27  31
HETATM   31  C   UNL     1       4.667  32.010  50.567  1.00  0.00     0.014 A 
HETATM   32  C   UNL     1       5.511  33.113  50.766  1.00  0.00     0.034 A 
HETATM   33  C   UNL     1       5.668  34.048  49.754  1.00  0.00     0.117 A 
HETATM   34  N   UNL     1       5.053  33.963  48.559  1.00  0.00    -0.273 NA
HETATM   35  C   UNL     1       4.241  32.906  48.369  1.00  0.00     0.117 A 
HETATM   36  C   UNL     1       4.023  31.924  49.323  1.00  0.00     0.034 A 
ENDBRANCH  27  31
BRANCH  29  37
HETATM   37  C   UNL     1       4.438  27.315  51.900  1.00  0.00     0.037 C 
BRANCH  37  38
HETATM   38  C   UNL     1       4.784  26.418  53.113  1.00  0.00     0.006 C 
HETATM   39  C   UNL     1       4.511  24.927  52.953  1.00  0.00     0.006 C 
ENDBRANCH  37  38
BRANCH  37  40
HETATM   40  C   UNL     1       5.349  27.051  50.685  1.00  0.00     0.006 C 
HETATM   41  C   UNL     1       4.594  26.552  49.458  1.00  0.00     0.006 C 
ENDBRANCH  37  40
ENDBRANCH  29  37
ENDBRANCH  19  25
ENDBRANCH  15  16
ENDBRANCH  11  15
ENDBRANCH   1   9
TORSDOF 8
ENDMDL
