MODEL 1
REMARK VINA RESULT:      -9.8      0.000      0.000
REMARK  6 active torsions:
REMARK  status: ('A' for Active; 'I' for Inactive)
REMARK    1  A    between atoms: C_2  and  O_3 
REMARK    2  A    between atoms: C_2  and  C_4 
REMARK    3  A    between atoms: C_7  and  N_8 
REMARK       I    between atoms: N_8  and  C_9 
REMARK    4  A    between atoms: C_9  and  C_10 
REMARK    5  A    between atoms: C_13  and  C_14 
REMARK    6  A    between atoms: C_19  and  C_20 
ROOT
HETATM    1  C   UNL     1       6.387  28.207  56.018  1.00  0.00     0.096 C 
HETATM    2  C   UNL     1       6.515  29.287  56.873  1.00  0.00     0.138 C 
HETATM    3  N   UNL     1       5.527  30.173  56.506  1.00  0.00    -0.240 N 
HETATM    4  C   UNL     1       5.318  31.474  57.115  1.00  0.00     0.221 C 
HETATM    5  C   UNL     1       6.103  31.594  58.433  1.00  0.00     0.068 C 
HETATM    6  C   UNL     1       7.508  31.000  58.277  1.00  0.00     0.143 C 
HETATM    7  N   UNL     1       7.380  29.584  57.885  1.00  0.00    -0.363 N 
HETATM    8  N   UNL     1       4.898  29.830  55.373  1.00  0.00    -0.181 NA
HETATM    9  C   UNL     1       5.395  28.621  55.097  1.00  0.00     0.160 C 
HETATM   10  H   UNL     1       8.299  29.134  57.862  1.00  0.00     0.162 HD
ENDROOT
BRANCH   1  11
HETATM   11  C   UNL     1       7.104  26.942  55.989  1.00  0.00     0.261 C 
HETATM   12  N   UNL     1       6.601  26.043  55.067  1.00  0.00    -0.323 N 
HETATM   13  H   UNL     1       5.861  26.396  54.472  1.00  0.00     0.169 HD
HETATM   14  O   UNL     1       8.080  26.771  56.708  1.00  0.00    -0.267 OA
BRANCH  12  15
HETATM   15  C   UNL     1       7.087  24.752  54.774  1.00  0.00     0.035 A 
HETATM   16  C   UNL     1       7.179  23.722  55.710  1.00  0.00     0.030 A 
HETATM   17  C   UNL     1       7.699  22.473  55.347  1.00  0.00     0.012 A 
HETATM   18  C   UNL     1       8.138  22.227  54.040  1.00  0.00    -0.030 A 
HETATM   19  C   UNL     1       8.021  23.257  53.097  1.00  0.00     0.012 A 
HETATM   20  C   UNL     1       7.503  24.505  53.461  1.00  0.00     0.030 A 
BRANCH  18  21
HETATM   21  C   UNL     1       8.694  20.868  53.676  1.00  0.00     0.147 C 
HETATM   22  C   UNL     1       8.833  19.972  54.901  1.00  0.00     0.044 C 
BRANCH  21  23
HETATM   23  O   UNL     1       7.848  20.226  52.724  1.00  0.00    -0.391 OA
HETATM   24  H   UNL     1       7.729  19.309  53.023  1.00  0.00     0.210 HD
ENDBRANCH  21  23
ENDBRANCH  18  21
ENDBRANCH  12  15
ENDBRANCH   1  11
BRANCH   4  25
HETATM   25  C   UNL     1       3.849  31.738  57.377  1.00  0.00     0.409 C 
HETATM   26  F   UNL     1       3.200  30.635  57.811  1.00  0.00    -0.169 F 
HETATM   27  F   UNL     1       3.724  32.671  58.359  1.00  0.00    -0.169 F 
HETATM   28  F   UNL     1       3.188  32.228  56.309  1.00  0.00    -0.169 F 
ENDBRANCH   4  25
BRANCH   6  29
HETATM   29  C   UNL     1       8.288  31.203  59.536  1.00  0.00     0.075 A 
HETATM   30  O   UNL     1       8.549  30.083  60.272  1.00  0.00    -0.325 OA
HETATM   31  C   UNL     1       9.273  30.477  61.351  1.00  0.00     0.142 A 
HETATM   32  C   UNL     1       9.485  31.835  61.319  1.00  0.00     0.027 A 
HETATM   33  C   UNL     1       8.847  32.307  60.146  1.00  0.00     0.037 A 
ENDBRANCH   6  29
TORSDOF 6
ENDMDL
MODEL 2
REMARK VINA RESULT:      -9.1      3.095      8.727
REMARK  6 active torsions:
REMARK  status: ('A' for Active; 'I' for Inactive)
REMARK    1  A    between atoms: C_2  and  O_3 
REMARK    2  A    between atoms: C_2  and  C_4 
REMARK    3  A    between atoms: C_7  and  N_8 
REMARK       I    between atoms: N_8  and  C_9 
REMARK    4  A    between atoms: C_9  and  C_10 
REMARK    5  A    between atoms: C_13  and  C_14 
REMARK    6  A    between atoms: C_19  and  C_20 
ROOT
HETATM    1  C   UNL     1       5.544  27.994  55.359  1.00  0.00     0.096 C 
HETATM    2  C   UNL     1       5.726  26.908  54.522  1.00  0.00     0.138 C 
HETATM    3  N   UNL     1       4.980  27.174  53.395  1.00  0.00    -0.240 N 
HETATM    4  C   UNL     1       4.845  26.275  52.263  1.00  0.00     0.221 C 
HETATM    5  C   UNL     1       5.901  25.158  52.324  1.00  0.00     0.068 C 
HETATM    6  C   UNL     1       6.040  24.625  53.755  1.00  0.00     0.143 C 
HETATM    7  N   UNL     1       6.427  25.743  54.638  1.00  0.00    -0.363 N 
HETATM    8  N   UNL     1       4.194  28.253  53.521  1.00  0.00    -0.181 NA
HETATM    9  C   UNL     1       4.562  28.770  54.696  1.00  0.00     0.160 C 
HETATM   10  H   UNL     1       6.617  25.403  55.584  1.00  0.00     0.162 HD
ENDROOT
BRANCH   1  11
HETATM   11  C   UNL     1       6.149  28.301  56.645  1.00  0.00     0.261 C 
HETATM   12  N   UNL     1       6.489  29.633  56.792  1.00  0.00    -0.323 N 
HETATM   13  H   UNL     1       6.204  30.242  56.035  1.00  0.00     0.169 HD
HETATM   14  O   UNL     1       6.274  27.424  57.491  1.00  0.00    -0.267 OA
BRANCH  12  15
HETATM   15  C   UNL     1       7.059  30.253  57.923  1.00  0.00     0.035 A 
HETATM   16  C   UNL     1       8.255  29.846  58.517  1.00  0.00     0.030 A 
HETATM   17  C   UNL     1       8.743  30.498  59.656  1.00  0.00     0.012 A 
HETATM   18  C   UNL     1       8.046  31.570  60.228  1.00  0.00    -0.030 A 
HETATM   19  C   UNL     1       6.858  31.990  59.616  1.00  0.00     0.012 A 
HETATM   20  C   UNL     1       6.370  31.338  58.477  1.00  0.00     0.030 A 
BRANCH  18  21
HETATM   21  C   UNL     1       8.597  32.255  61.459  1.00  0.00     0.147 C 
HETATM   22  C   UNL     1       7.842  31.843  62.717  1.00  0.00     0.044 C 
BRANCH  21  23
HETATM   23  O   UNL     1       9.979  31.940  61.622  1.00  0.00    -0.391 OA
HETATM   24  H   UNL     1      10.430  32.210  60.804  1.00  0.00     0.210 HD
ENDBRANCH  21  23
ENDBRANCH  18  21
ENDBRANCH  12  15
ENDBRANCH   1  11
BRANCH   4  25
HETATM   25  C   UNL     1       4.967  27.014  50.947  1.00  0.00     0.409 C 
HETATM   26  F   UNL     1       5.971  27.919  50.958  1.00  0.00    -0.169 F 
HETATM   27  F   UNL     1       5.257  26.128  49.955  1.00  0.00    -0.169 F 
HETATM   28  F   UNL     1       3.834  27.640  50.570  1.00  0.00    -0.169 F 
ENDBRANCH   4  25
BRANCH   6  29
HETATM   29  C   UNL     1       7.002  23.483  53.782  1.00  0.00     0.075 A 
HETATM   30  O   UNL     1       7.151  22.846  54.980  1.00  0.00    -0.325 OA
HETATM   31  C   UNL     1       8.044  21.841  54.788  1.00  0.00     0.142 A 
HETATM   32  C   UNL     1       8.471  21.820  53.481  1.00  0.00     0.027 A 
HETATM   33  C   UNL     1       7.800  22.883  52.829  1.00  0.00     0.037 A 
ENDBRANCH   6  29
TORSDOF 6
ENDMDL
MODEL 3
REMARK VINA RESULT:      -9.0      5.458      8.164
REMARK  6 active torsions:
REMARK  status: ('A' for Active; 'I' for Inactive)
REMARK    1  A    between atoms: C_2  and  O_3 
REMARK    2  A    between atoms: C_2  and  C_4 
REMARK    3  A    between atoms: C_7  and  N_8 
REMARK       I    between atoms: N_8  and  C_9 
REMARK    4  A    between atoms: C_9  and  C_10 
REMARK    5  A    between atoms: C_13  and  C_14 
REMARK    6  A    between atoms: C_19  and  C_20 
ROOT
HETATM    1  C   UNL     1       5.637  27.212  52.028  1.00  0.00     0.096 C 
HETATM    2  C   UNL     1       4.871  27.795  51.034  1.00  0.00     0.138 C 
HETATM    3  N   UNL     1       5.112  29.149  51.121  1.00  0.00    -0.240 N 
HETATM    4  C   UNL     1       4.478  30.154  50.288  1.00  0.00     0.221 C 
HETATM    5  C   UNL     1       3.778  29.504  49.083  1.00  0.00     0.068 C 
HETATM    6  C   UNL     1       3.030  28.237  49.514  1.00  0.00     0.143 C 
HETATM    7  N   UNL     1       4.000  27.298  50.110  1.00  0.00    -0.363 N 
HETATM    8  N   UNL     1       5.825  29.493  52.202  1.00  0.00    -0.181 NA
HETATM    9  C   UNL     1       6.173  28.317  52.732  1.00  0.00     0.160 C 
HETATM   10  H   UNL     1       3.549  26.405  50.324  1.00  0.00     0.162 HD
ENDROOT
BRANCH   1  11
HETATM   11  C   UNL     1       5.844  25.811  52.354  1.00  0.00     0.261 C 
HETATM   12  N   UNL     1       7.031  25.568  53.020  1.00  0.00    -0.323 N 
HETATM   13  H   UNL     1       7.565  26.391  53.274  1.00  0.00     0.169 HD
HETATM   14  O   UNL     1       4.987  24.981  52.076  1.00  0.00    -0.267 OA
BRANCH  12  15
HETATM   15  C   UNL     1       7.508  24.331  53.501  1.00  0.00     0.035 A 
HETATM   16  C   UNL     1       7.943  23.290  52.679  1.00  0.00     0.030 A 
HETATM   17  C   UNL     1       8.379  22.080  53.232  1.00  0.00     0.012 A 
HETATM   18  C   UNL     1       8.388  21.882  54.618  1.00  0.00    -0.030 A 
HETATM   19  C   UNL     1       7.973  22.938  55.441  1.00  0.00     0.012 A 
HETATM   20  C   UNL     1       7.537  24.148  54.888  1.00  0.00     0.030 A 
BRANCH  18  21
HETATM   21  C   UNL     1       8.865  20.564  55.188  1.00  0.00     0.147 C 
HETATM   22  C   UNL     1       7.977  20.093  56.332  1.00  0.00     0.044 C 
BRANCH  21  23
HETATM   23  O   UNL     1       8.882  19.564  54.170  1.00  0.00    -0.391 OA
HETATM   24  H   UNL     1       8.862  18.702  54.620  1.00  0.00     0.210 HD
ENDBRANCH  21  23
ENDBRANCH  18  21
ENDBRANCH  12  15
ENDBRANCH   1  11
BRANCH   4  25
HETATM   25  C   UNL     1       5.477  31.182  49.797  1.00  0.00     0.409 C 
HETATM   26  F   UNL     1       6.650  30.620  49.426  1.00  0.00    -0.169 F 
HETATM   27  F   UNL     1       4.982  31.805  48.694  1.00  0.00    -0.169 F 
HETATM   28  F   UNL     1       5.737  32.156  50.692  1.00  0.00    -0.169 F 
ENDBRANCH   4  25
BRANCH   6  29
HETATM   29  C   UNL     1       2.283  27.666  48.352  1.00  0.00     0.075 A 
HETATM   30  O   UNL     1       2.797  26.526  47.804  1.00  0.00    -0.325 OA
HETATM   31  C   UNL     1       1.971  26.167  46.788  1.00  0.00     0.142 A 
HETATM   32  C   UNL     1       0.931  27.059  46.674  1.00  0.00     0.027 A 
HETATM   33  C   UNL     1       1.131  28.031  47.685  1.00  0.00     0.037 A 
ENDBRANCH   6  29
TORSDOF 6
ENDMDL
MODEL 4
REMARK VINA RESULT:      -8.8      4.362      9.348
REMARK  6 active torsions:
REMARK  status: ('A' for Active; 'I' for Inactive)
REMARK    1  A    between atoms: C_2  and  O_3 
REMARK    2  A    between atoms: C_2  and  C_4 
REMARK    3  A    between atoms: C_7  and  N_8 
REMARK       I    between atoms: N_8  and  C_9 
REMARK    4  A    between atoms: C_9  and  C_10 
REMARK    5  A    between atoms: C_13  and  C_14 
REMARK    6  A    between atoms: C_19  and  C_20 
ROOT
HETATM    1  C   UNL     1       8.185  25.186  56.545  1.00  0.00     0.096 C 
HETATM    2  C   UNL     1       7.830  24.968  55.226  1.00  0.00     0.138 C 
HETATM    3  N   UNL     1       8.419  23.774  54.873  1.00  0.00    -0.240 N 
HETATM    4  C   UNL     1       8.343  23.176  53.552  1.00  0.00     0.221 C 
HETATM    5  C   UNL     1       7.253  23.855  52.706  1.00  0.00     0.068 C 
HETATM    6  C   UNL     1       7.296  25.377  52.894  1.00  0.00     0.143 C 
HETATM    7  N   UNL     1       7.097  25.681  54.323  1.00  0.00    -0.363 N 
HETATM    8  N   UNL     1       9.267  23.305  55.799  1.00  0.00    -0.181 NA
HETATM    9  C   UNL     1       9.099  24.141  56.826  1.00  0.00     0.160 C 
HETATM   10  H   UNL     1       7.028  26.691  54.469  1.00  0.00     0.162 HD
ENDROOT
BRANCH   1  11
HETATM   11  C   UNL     1       7.789  26.242  57.463  1.00  0.00     0.261 C 
HETATM   12  N   UNL     1       7.595  27.465  56.847  1.00  0.00    -0.323 N 
HETATM   13  H   UNL     1       7.666  27.461  55.837  1.00  0.00     0.169 HD
HETATM   14  O   UNL     1       7.617  25.994  58.649  1.00  0.00    -0.267 OA
BRANCH  12  15
HETATM   15  C   UNL     1       7.179  28.672  57.448  1.00  0.00     0.035 A 
HETATM   16  C   UNL     1       5.923  29.247  57.254  1.00  0.00     0.030 A 
HETATM   17  C   UNL     1       5.594  30.463  57.866  1.00  0.00     0.012 A 
HETATM   18  C   UNL     1       6.513  31.131  58.684  1.00  0.00    -0.030 A 
HETATM   19  C   UNL     1       7.765  30.538  58.896  1.00  0.00     0.012 A 
HETATM   20  C   UNL     1       8.094  29.323  58.283  1.00  0.00     0.030 A 
BRANCH  18  21
HETATM   21  C   UNL     1       6.130  32.443  59.332  1.00  0.00     0.147 C 
HETATM   22  C   UNL     1       5.078  33.185  58.518  1.00  0.00     0.044 C 
BRANCH  21  23
HETATM   23  O   UNL     1       5.625  32.216  60.647  1.00  0.00    -0.391 OA
HETATM   24  H   UNL     1       4.724  32.578  60.671  1.00  0.00     0.210 HD
ENDBRANCH  21  23
ENDBRANCH  18  21
ENDBRANCH  12  15
ENDBRANCH   1  11
BRANCH   4  25
HETATM   25  C   UNL     1       8.069  21.689  53.629  1.00  0.00     0.409 C 
HETATM   26  F   UNL     1       7.344  21.356  54.720  1.00  0.00    -0.169 F 
HETATM   27  F   UNL     1       7.336  21.306  52.547  1.00  0.00    -0.169 F 
HETATM   28  F   UNL     1       9.184  20.930  53.611  1.00  0.00    -0.169 F 
ENDBRANCH   4  25
BRANCH   6  29
HETATM   29  C   UNL     1       6.291  26.028  51.999  1.00  0.00     0.075 A 
HETATM   30  O   UNL     1       6.295  27.393  51.979  1.00  0.00    -0.325 OA
HETATM   31  C   UNL     1       5.334  27.781  51.102  1.00  0.00     0.142 A 
HETATM   32  C   UNL     1       4.710  26.683  50.556  1.00  0.00     0.027 A 
HETATM   33  C   UNL     1       5.327  25.548  51.136  1.00  0.00     0.037 A 
ENDBRANCH   6  29
TORSDOF 6
ENDMDL
MODEL 5
REMARK VINA RESULT:      -8.8      4.826     10.423
REMARK  6 active torsions:
REMARK  status: ('A' for Active; 'I' for Inactive)
REMARK    1  A    between atoms: C_2  and  O_3 
REMARK    2  A    between atoms: C_2  and  C_4 
REMARK    3  A    between atoms: C_7  and  N_8 
REMARK       I    between atoms: N_8  and  C_9 
REMARK    4  A    between atoms: C_9  and  C_10 
REMARK    5  A    between atoms: C_13  and  C_14 
REMARK    6  A    between atoms: C_19  and  C_20 
ROOT
HETATM    1  C   UNL     1       7.255  31.365  59.941  1.00  0.00     0.096 C 
HETATM    2  C   UNL     1       6.823  30.990  58.682  1.00  0.00     0.138 C 
HETATM    3  N   UNL     1       7.742  30.069  58.229  1.00  0.00    -0.240 N 
HETATM    4  C   UNL     1       7.703  29.438  56.923  1.00  0.00     0.221 C 
HETATM    5  C   UNL     1       6.337  29.659  56.250  1.00  0.00     0.068 C 
HETATM    6  C   UNL     1       5.863  31.102  56.455  1.00  0.00     0.143 C 
HETATM    7  N   UNL     1       5.767  31.365  57.903  1.00  0.00    -0.363 N 
HETATM    8  N   UNL     1       8.820  29.963  59.018  1.00  0.00    -0.181 NA
HETATM    9  C   UNL     1       8.509  30.721  60.073  1.00  0.00     0.160 C 
HETATM   10  H   UNL     1       5.365  32.291  58.074  1.00  0.00     0.162 HD
ENDROOT
BRANCH   1  11
HETATM   11  C   UNL     1       6.640  32.244  60.923  1.00  0.00     0.261 C 
HETATM   12  N   UNL     1       6.932  31.903  62.230  1.00  0.00    -0.323 N 
HETATM   13  H   UNL     1       7.597  31.147  62.346  1.00  0.00     0.169 HD
HETATM   14  O   UNL     1       5.974  33.205  60.557  1.00  0.00    -0.267 OA
BRANCH  12  15
HETATM   15  C   UNL     1       6.519  32.568  63.403  1.00  0.00     0.035 A 
HETATM   16  C   UNL     1       5.185  32.760  63.763  1.00  0.00     0.030 A 
HETATM   17  C   UNL     1       4.855  33.455  64.933  1.00  0.00     0.012 A 
HETATM   18  C   UNL     1       5.852  33.975  65.769  1.00  0.00    -0.030 A 
HETATM   19  C   UNL     1       7.190  33.759  65.416  1.00  0.00     0.012 A 
HETATM   20  C   UNL     1       7.520  33.065  64.246  1.00  0.00     0.030 A 
BRANCH  18  21
HETATM   21  C   UNL     1       5.465  34.721  67.027  1.00  0.00     0.147 C 
HETATM   22  C   UNL     1       4.267  35.632  66.793  1.00  0.00     0.044 C 
BRANCH  21  23
HETATM   23  O   UNL     1       5.153  33.801  68.071  1.00  0.00    -0.391 OA
HETATM   24  H   UNL     1       4.313  34.091  68.463  1.00  0.00     0.210 HD
ENDBRANCH  21  23
ENDBRANCH  18  21
ENDBRANCH  12  15
ENDBRANCH   1  11
BRANCH   4  25
HETATM   25  C   UNL     1       7.988  27.954  57.012  1.00  0.00     0.409 C 
HETATM   26  F   UNL     1       7.312  27.361  58.022  1.00  0.00    -0.169 F 
HETATM   27  F   UNL     1       7.581  27.344  55.865  1.00  0.00    -0.169 F 
HETATM   28  F   UNL     1       9.297  27.660  57.147  1.00  0.00    -0.169 F 
ENDBRANCH   4  25
BRANCH   6  29
HETATM   29  C   UNL     1       4.580  31.325  55.722  1.00  0.00     0.075 A 
HETATM   30  O   UNL     1       3.452  31.406  56.487  1.00  0.00    -0.325 OA
HETATM   31  C   UNL     1       2.413  31.626  55.642  1.00  0.00     0.142 A 
HETATM   32  C   UNL     1       2.855  31.690  54.341  1.00  0.00     0.027 A 
HETATM   33  C   UNL     1       4.257  31.494  54.390  1.00  0.00     0.037 A 
ENDBRANCH   6  29
TORSDOF 6
ENDMDL
MODEL 6
REMARK VINA RESULT:      -8.7      5.400      8.725
REMARK  6 active torsions:
REMARK  status: ('A' for Active; 'I' for Inactive)
REMARK    1  A    between atoms: C_2  and  O_3 
REMARK    2  A    between atoms: C_2  and  C_4 
REMARK    3  A    between atoms: C_7  and  N_8 
REMARK       I    between atoms: N_8  and  C_9 
REMARK    4  A    between atoms: C_9  and  C_10 
REMARK    5  A    between atoms: C_13  and  C_14 
REMARK    6  A    between atoms: C_19  and  C_20 
ROOT
HETATM    1  C   UNL     1       5.660  27.021  52.822  1.00  0.00     0.096 C 
HETATM    2  C   UNL     1       6.336  26.085  53.583  1.00  0.00     0.138 C 
HETATM    3  N   UNL     1       6.759  26.753  54.710  1.00  0.00    -0.240 N 
HETATM    4  C   UNL     1       7.551  26.159  55.772  1.00  0.00     0.221 C 
HETATM    5  C   UNL     1       7.564  24.626  55.654  1.00  0.00     0.068 C 
HETATM    6  C   UNL     1       7.741  24.200  54.191  1.00  0.00     0.143 C 
HETATM    7  N   UNL     1       6.632  24.766  53.399  1.00  0.00    -0.363 N 
HETATM    8  N   UNL     1       6.569  28.078  54.646  1.00  0.00    -0.181 NA
HETATM    9  C   UNL     1       5.871  28.237  53.518  1.00  0.00     0.160 C 
HETATM   10  H   UNL     1       6.670  24.425  52.435  1.00  0.00     0.162 HD
ENDROOT
BRANCH   1  11
HETATM   11  C   UNL     1       4.931  26.869  51.573  1.00  0.00     0.261 C 
HETATM   12  N   UNL     1       4.274  28.018  51.173  1.00  0.00    -0.323 N 
HETATM   13  H   UNL     1       4.445  28.838  51.742  1.00  0.00     0.169 HD
HETATM   14  O   UNL     1       4.975  25.810  50.961  1.00  0.00    -0.267 OA
BRANCH  12  15
HETATM   15  C   UNL     1       3.512  28.206  50.002  1.00  0.00     0.035 A 
HETATM   16  C   UNL     1       3.971  27.914  48.717  1.00  0.00     0.030 A 
HETATM   17  C   UNL     1       3.163  28.154  47.599  1.00  0.00     0.012 A 
HETATM   18  C   UNL     1       1.878  28.692  47.740  1.00  0.00    -0.030 A 
HETATM   19  C   UNL     1       1.411  28.961  49.034  1.00  0.00     0.012 A 
HETATM   20  C   UNL     1       2.220  28.722  50.151  1.00  0.00     0.030 A 
BRANCH  18  21
HETATM   21  C   UNL     1       1.027  28.940  46.514  1.00  0.00     0.147 C 
HETATM   22  C   UNL     1       0.042  27.803  46.276  1.00  0.00     0.044 C 
BRANCH  21  23
HETATM   23  O   UNL     1       0.303  30.162  46.654  1.00  0.00    -0.391 OA
HETATM   24  H   UNL     1      -0.445  30.120  46.034  1.00  0.00     0.210 HD
ENDBRANCH  21  23
ENDBRANCH  18  21
ENDBRANCH  12  15
ENDBRANCH   1  11
BRANCH   4  25
HETATM   25  C   UNL     1       7.036  26.556  57.140  1.00  0.00     0.409 C 
HETATM   26  F   UNL     1       5.686  26.615  57.182  1.00  0.00    -0.169 F 
HETATM   27  F   UNL     1       7.410  25.620  58.055  1.00  0.00    -0.169 F 
HETATM   28  F   UNL     1       7.527  27.730  57.585  1.00  0.00    -0.169 F 
ENDBRANCH   4  25
BRANCH   6  29
HETATM   29  C   UNL     1       7.839  22.712  54.102  1.00  0.00     0.075 A 
HETATM   30  O   UNL     1       7.794  22.031  55.285  1.00  0.00    -0.325 OA
HETATM   31  C   UNL     1       7.879  20.709  54.986  1.00  0.00     0.142 A 
HETATM   32  C   UNL     1       7.977  20.529  53.627  1.00  0.00     0.027 A 
HETATM   33  C   UNL     1       7.953  21.823  53.053  1.00  0.00     0.037 A 
ENDBRANCH   6  29
TORSDOF 6
ENDMDL
MODEL 7
REMARK VINA RESULT:      -8.7      4.698      5.844
REMARK  6 active torsions:
REMARK  status: ('A' for Active; 'I' for Inactive)
REMARK    1  A    between atoms: C_2  and  O_3 
REMARK    2  A    between atoms: C_2  and  C_4 
REMARK    3  A    between atoms: C_7  and  N_8 
REMARK       I    between atoms: N_8  and  C_9 
REMARK    4  A    between atoms: C_9  and  C_10 
REMARK    5  A    between atoms: C_13  and  C_14 
REMARK    6  A    between atoms: C_19  and  C_20 
ROOT
HETATM    1  C   UNL     1       4.979  26.408  51.658  1.00  0.00     0.096 C 
HETATM    2  C   UNL     1       4.508  27.669  51.979  1.00  0.00     0.138 C 
HETATM    3  N   UNL     1       4.335  28.321  50.778  1.00  0.00    -0.240 N 
HETATM    4  C   UNL     1       3.892  29.696  50.642  1.00  0.00     0.221 C 
HETATM    5  C   UNL     1       3.314  30.218  51.969  1.00  0.00     0.068 C 
HETATM    6  C   UNL     1       4.187  29.772  53.148  1.00  0.00     0.143 C 
HETATM    7  N   UNL     1       4.245  28.298  53.161  1.00  0.00    -0.363 N 
HETATM    8  N   UNL     1       4.829  27.645  49.731  1.00  0.00    -0.181 NA
HETATM    9  C   UNL     1       5.186  26.472  50.259  1.00  0.00     0.160 C 
HETATM   10  H   UNL     1       4.744  27.966  53.989  1.00  0.00     0.162 HD
ENDROOT
BRANCH   1  11
HETATM   11  C   UNL     1       5.260  25.265  52.511  1.00  0.00     0.261 C 
HETATM   12  N   UNL     1       6.604  24.949  52.586  1.00  0.00    -0.323 N 
HETATM   13  H   UNL     1       7.230  25.592  52.116  1.00  0.00     0.169 HD
HETATM   14  O   UNL     1       4.351  24.709  53.114  1.00  0.00    -0.267 OA
BRANCH  12  15
HETATM   15  C   UNL     1       7.203  23.925  53.348  1.00  0.00     0.035 A 
HETATM   16  C   UNL     1       7.318  23.952  54.738  1.00  0.00     0.030 A 
HETATM   17  C   UNL     1       7.951  22.906  55.421  1.00  0.00     0.012 A 
HETATM   18  C   UNL     1       8.484  21.811  54.730  1.00  0.00    -0.030 A 
HETATM   19  C   UNL     1       8.345  21.776  53.337  1.00  0.00     0.012 A 
HETATM   20  C   UNL     1       7.713  22.821  52.654  1.00  0.00     0.030 A 
BRANCH  18  21
HETATM   21  C   UNL     1       9.162  20.695  55.495  1.00  0.00     0.147 C 
HETATM   22  C   UNL     1       8.541  20.501  56.873  1.00  0.00     0.044 C 
BRANCH  21  23
HETATM   23  O   UNL     1       9.072  19.471  54.768  1.00  0.00    -0.391 OA
HETATM   24  H   UNL     1       8.391  19.596  54.086  1.00  0.00     0.210 HD
ENDBRANCH  21  23
ENDBRANCH  18  21
ENDBRANCH  12  15
ENDBRANCH   1  11
BRANCH   4  25
HETATM   25  C   UNL     1       2.855  29.843  49.548  1.00  0.00     0.409 C 
HETATM   26  F   UNL     1       3.413  29.897  48.317  1.00  0.00    -0.169 F 
HETATM   27  F   UNL     1       2.035  28.756  49.552  1.00  0.00    -0.169 F 
HETATM   28  F   UNL     1       2.054  30.916  49.700  1.00  0.00    -0.169 F 
ENDBRANCH   4  25
BRANCH   6  29
HETATM   29  C   UNL     1       3.664  30.359  54.419  1.00  0.00     0.075 A 
HETATM   30  O   UNL     1       2.840  31.440  54.292  1.00  0.00    -0.325 OA
HETATM   31  C   UNL     1       2.465  31.805  55.545  1.00  0.00     0.142 A 
HETATM   32  C   UNL     1       3.036  30.972  56.479  1.00  0.00     0.027 A 
HETATM   33  C   UNL     1       3.813  30.037  55.753  1.00  0.00     0.037 A 
ENDBRANCH   6  29
TORSDOF 6
ENDMDL
MODEL 8
REMARK VINA RESULT:      -8.5      5.294      7.190
REMARK  6 active torsions:
REMARK  status: ('A' for Active; 'I' for Inactive)
REMARK    1  A    between atoms: C_2  and  O_3 
REMARK    2  A    between atoms: C_2  and  C_4 
REMARK    3  A    between atoms: C_7  and  N_8 
REMARK       I    between atoms: N_8  and  C_9 
REMARK    4  A    between atoms: C_9  and  C_10 
REMARK    5  A    between atoms: C_13  and  C_14 
REMARK    6  A    between atoms: C_19  and  C_20 
ROOT
HETATM    1  C   UNL     1       6.188  26.138  53.615  1.00  0.00     0.096 C 
HETATM    2  C   UNL     1       6.587  26.430  54.907  1.00  0.00     0.138 C 
HETATM    3  N   UNL     1       6.879  25.218  55.492  1.00  0.00    -0.240 N 
HETATM    4  C   UNL     1       7.300  25.049  56.871  1.00  0.00     0.221 C 
HETATM    5  C   UNL     1       7.710  26.397  57.488  1.00  0.00     0.068 C 
HETATM    6  C   UNL     1       6.720  27.496  57.084  1.00  0.00     0.143 C 
HETATM    7  N   UNL     1       6.698  27.593  55.612  1.00  0.00    -0.363 N 
HETATM    8  N   UNL     1       6.526  24.166  54.741  1.00  0.00    -0.181 NA
HETATM    9  C   UNL     1       6.140  24.723  53.590  1.00  0.00     0.160 C 
HETATM   10  H   UNL     1       6.116  28.379  55.313  1.00  0.00     0.162 HD
ENDROOT
BRANCH   1  11
HETATM   11  C   UNL     1       5.840  27.023  52.516  1.00  0.00     0.261 C 
HETATM   12  N   UNL     1       4.915  26.482  51.642  1.00  0.00    -0.323 N 
HETATM   13  H   UNL     1       4.531  25.584  51.914  1.00  0.00     0.169 HD
HETATM   14  O   UNL     1       6.323  28.146  52.454  1.00  0.00    -0.267 OA
BRANCH  12  15
HETATM   15  C   UNL     1       4.351  27.093  50.503  1.00  0.00     0.035 A 
HETATM   16  C   UNL     1       3.673  28.312  50.527  1.00  0.00     0.030 A 
HETATM   17  C   UNL     1       3.117  28.842  49.356  1.00  0.00     0.012 A 
HETATM   18  C   UNL     1       3.226  28.164  48.135  1.00  0.00    -0.030 A 
HETATM   19  C   UNL     1       3.929  26.952  48.111  1.00  0.00     0.012 A 
HETATM   20  C   UNL     1       4.483  26.423  49.282  1.00  0.00     0.030 A 
BRANCH  18  21
HETATM   21  C   UNL     1       2.617  28.761  46.886  1.00  0.00     0.147 C 
HETATM   22  C   UNL     1       1.095  28.689  46.914  1.00  0.00     0.044 C 
BRANCH  21  23
HETATM   23  O   UNL     1       3.015  30.123  46.743  1.00  0.00    -0.391 OA
HETATM   24  H   UNL     1       2.418  30.653  47.298  1.00  0.00     0.210 HD
ENDBRANCH  21  23
ENDBRANCH  18  21
ENDBRANCH  12  15
ENDBRANCH   1  11
BRANCH   4  25
HETATM   25  C   UNL     1       8.451  24.071  56.986  1.00  0.00     0.409 C 
HETATM   26  F   UNL     1       9.241  24.077  55.889  1.00  0.00    -0.169 F 
HETATM   27  F   UNL     1       9.244  24.424  58.034  1.00  0.00    -0.169 F 
HETATM   28  F   UNL     1       8.063  22.802  57.223  1.00  0.00    -0.169 F 
ENDBRANCH   4  25
BRANCH   6  29
HETATM   29  C   UNL     1       7.080  28.779  57.761  1.00  0.00     0.075 A 
HETATM   30  O   UNL     1       8.188  28.752  58.558  1.00  0.00    -0.325 OA
HETATM   31  C   UNL     1       8.349  30.004  59.057  1.00  0.00     0.142 A 
HETATM   32  C   UNL     1       7.361  30.839  58.591  1.00  0.00     0.027 A 
HETATM   33  C   UNL     1       6.537  30.048  57.754  1.00  0.00     0.037 A 
ENDBRANCH   6  29
TORSDOF 6
ENDMDL
MODEL 9
REMARK VINA RESULT:      -8.4      5.393     10.653
REMARK  6 active torsions:
REMARK  status: ('A' for Active; 'I' for Inactive)
REMARK    1  A    between atoms: C_2  and  O_3 
REMARK    2  A    between atoms: C_2  and  C_4 
REMARK    3  A    between atoms: C_7  and  N_8 
REMARK       I    between atoms: N_8  and  C_9 
REMARK    4  A    between atoms: C_9  and  C_10 
REMARK    5  A    between atoms: C_13  and  C_14 
REMARK    6  A    between atoms: C_19  and  C_20 
ROOT
HETATM    1  C   UNL     1       8.463  31.557  60.839  1.00  0.00     0.096 C 
HETATM    2  C   UNL     1       8.056  31.113  59.594  1.00  0.00     0.138 C 
HETATM    3  N   UNL     1       9.173  31.178  58.790  1.00  0.00    -0.240 N 
HETATM    4  C   UNL     1       9.193  30.843  57.377  1.00  0.00     0.221 C 
HETATM    5  C   UNL     1       7.916  30.085  56.977  1.00  0.00     0.068 C 
HETATM    6  C   UNL     1       6.684  30.724  57.629  1.00  0.00     0.143 C 
HETATM    7  N   UNL     1       6.858  30.695  59.094  1.00  0.00    -0.363 N 
HETATM    8  N   UNL     1      10.210  31.797  59.369  1.00  0.00    -0.181 NA
HETATM    9  C   UNL     1       9.793  31.995  60.623  1.00  0.00     0.160 C 
HETATM   10  H   UNL     1       6.013  31.031  59.562  1.00  0.00     0.162 HD
ENDROOT
BRANCH   1  11
HETATM   11  C   UNL     1       7.735  31.628  62.095  1.00  0.00     0.261 C 
HETATM   12  N   UNL     1       7.364  32.913  62.447  1.00  0.00    -0.323 N 
HETATM   13  H   UNL     1       7.565  33.628  61.759  1.00  0.00     0.169 HD
HETATM   14  O   UNL     1       7.469  30.604  62.711  1.00  0.00    -0.267 OA
BRANCH  12  15
HETATM   15  C   UNL     1       6.626  33.312  63.580  1.00  0.00     0.035 A 
HETATM   16  C   UNL     1       5.249  33.537  63.574  1.00  0.00     0.030 A 
HETATM   17  C   UNL     1       4.591  33.959  64.736  1.00  0.00     0.012 A 
HETATM   18  C   UNL     1       5.294  34.166  65.929  1.00  0.00    -0.030 A 
HETATM   19  C   UNL     1       6.673  33.916  65.937  1.00  0.00     0.012 A 
HETATM   20  C   UNL     1       7.331  33.495  64.775  1.00  0.00     0.030 A 
BRANCH  18  21
HETATM   21  C   UNL     1       4.557  34.621  67.169  1.00  0.00     0.147 C 
HETATM   22  C   UNL     1       3.189  35.199  66.828  1.00  0.00     0.044 C 
BRANCH  21  23
HETATM   23  O   UNL     1       4.388  33.530  68.073  1.00  0.00    -0.391 OA
HETATM   24  H   UNL     1       3.758  33.820  68.753  1.00  0.00     0.210 HD
ENDBRANCH  21  23
ENDBRANCH  18  21
ENDBRANCH  12  15
ENDBRANCH   1  11
BRANCH   4  25
HETATM   25  C   UNL     1      10.407  30.010  57.019  1.00  0.00     0.409 C 
HETATM   26  F   UNL     1      10.280  28.723  57.412  1.00  0.00    -0.169 F 
HETATM   27  F   UNL     1      10.558  29.988  55.667  1.00  0.00    -0.169 F 
HETATM   28  F   UNL     1      11.562  30.495  57.517  1.00  0.00    -0.169 F 
ENDBRANCH   4  25
BRANCH   6  29
HETATM   29  C   UNL     1       5.444  30.034  57.161  1.00  0.00     0.075 A 
HETATM   30  O   UNL     1       4.294  30.769  57.190  1.00  0.00    -0.325 OA
HETATM   31  C   UNL     1       3.302  29.975  56.715  1.00  0.00     0.142 A 
HETATM   32  C   UNL     1       3.796  28.736  56.378  1.00  0.00     0.027 A 
HETATM   33  C   UNL     1       5.182  28.772  56.667  1.00  0.00     0.037 A 
ENDBRANCH   6  29
TORSDOF 6
ENDMDL
MODEL 10
REMARK VINA RESULT:      -8.3      6.550      8.674
REMARK  6 active torsions:
REMARK  status: ('A' for Active; 'I' for Inactive)
REMARK    1  A    between atoms: C_2  and  O_3 
REMARK    2  A    between atoms: C_2  and  C_4 
REMARK    3  A    between atoms: C_7  and  N_8 
REMARK       I    between atoms: N_8  and  C_9 
REMARK    4  A    between atoms: C_9  and  C_10 
REMARK    5  A    between atoms: C_13  and  C_14 
REMARK    6  A    between atoms: C_19  and  C_20 
ROOT
HETATM    1  C   UNL     1       4.643  26.543  50.004  1.00  0.00     0.096 C 
HETATM    2  C   UNL     1       4.366  27.636  49.202  1.00  0.00     0.138 C 
HETATM    3  N   UNL     1       3.465  27.192  48.260  1.00  0.00    -0.240 N 
HETATM    4  C   UNL     1       2.929  28.004  47.183  1.00  0.00     0.221 C 
HETATM    5  C   UNL     1       3.220  29.495  47.426  1.00  0.00     0.068 C 
HETATM    6  C   UNL     1       4.652  29.688  47.936  1.00  0.00     0.143 C 
HETATM    7  N   UNL     1       4.813  28.925  49.189  1.00  0.00    -0.363 N 
HETATM    8  N   UNL     1       3.285  25.864  48.282  1.00  0.00    -0.181 NA
HETATM    9  C   UNL     1       3.970  25.475  49.361  1.00  0.00     0.160 C 
HETATM   10  H   UNL     1       5.730  29.107  49.604  1.00  0.00     0.162 HD
ENDROOT
BRANCH   1  11
HETATM   11  C   UNL     1       5.459  26.439  51.202  1.00  0.00     0.261 C 
HETATM   12  N   UNL     1       5.534  25.156  51.711  1.00  0.00    -0.323 N 
HETATM   13  H   UNL     1       5.090  24.438  51.150  1.00  0.00     0.169 HD
HETATM   14  O   UNL     1       6.035  27.426  51.641  1.00  0.00    -0.267 OA
BRANCH  12  15
HETATM   15  C   UNL     1       6.265  24.719  52.834  1.00  0.00     0.035 A 
HETATM   16  C   UNL     1       5.868  24.934  54.155  1.00  0.00     0.030 A 
HETATM   17  C   UNL     1       6.664  24.492  55.219  1.00  0.00     0.012 A 
HETATM   18  C   UNL     1       7.874  23.826  54.987  1.00  0.00    -0.030 A 
HETATM   19  C   UNL     1       8.257  23.591  53.660  1.00  0.00     0.012 A 
HETATM   20  C   UNL     1       7.462  24.034  52.596  1.00  0.00     0.030 A 
BRANCH  18  21
HETATM   21  C   UNL     1       8.712  23.359  56.157  1.00  0.00     0.147 C 
HETATM   22  C   UNL     1       8.719  24.382  57.286  1.00  0.00     0.044 C 
BRANCH  21  23
HETATM   23  O   UNL     1       8.216  22.118  56.656  1.00  0.00    -0.391 OA
HETATM   24  H   UNL     1       7.905  22.281  57.563  1.00  0.00     0.210 HD
ENDBRANCH  21  23
ENDBRANCH  18  21
ENDBRANCH  12  15
ENDBRANCH   1  11
BRANCH   4  25
HETATM   25  C   UNL     1       1.438  27.800  47.019  1.00  0.00     0.409 C 
HETATM   26  F   UNL     1       0.806  27.658  48.206  1.00  0.00    -0.169 F 
HETATM   27  F   UNL     1       0.893  28.895  46.421  1.00  0.00    -0.169 F 
HETATM   28  F   UNL     1       1.116  26.749  46.238  1.00  0.00    -0.169 F 
ENDBRANCH   4  25
BRANCH   6  29
HETATM   29  C   UNL     1       4.948  31.146  48.083  1.00  0.00     0.075 A 
HETATM   30  O   UNL     1       5.668  31.509  49.185  1.00  0.00    -0.325 OA
HETATM   31  C   UNL     1       5.842  32.854  49.121  1.00  0.00     0.142 A 
HETATM   32  C   UNL     1       5.245  33.363  47.991  1.00  0.00     0.027 A 
HETATM   33  C   UNL     1       4.665  32.260  47.319  1.00  0.00     0.037 A 
ENDBRANCH   6  29
TORSDOF 6
ENDMDL
