MODEL 1
REMARK VINA RESULT:      -8.3      0.000      0.000
REMARK  5 active torsions:
REMARK  status: ('A' for Active; 'I' for Inactive)
REMARK    1  A    between atoms: C_9  and  C_10 
REMARK    2  A    between atoms: C_11  and  O_12 
REMARK    3  A    between atoms: O_12  and  C_13 
REMARK    4  A    between atoms: C_20  and  C_21 
REMARK       I    between atoms: C_21  and  N_22 
REMARK    5  A    between atoms: N_22  and  C_23 
ROOT
HETATM    1  C   UNL     1       3.836  30.086  55.662  1.00  0.00     0.070 C 
HETATM    2  C   UNL     1       5.020  29.374  56.266  1.00  0.00     0.037 C 
HETATM    3  N   UNL     1       5.208  28.060  55.843  1.00  0.00    -0.192 N 
HETATM    4  C   UNL     1       6.007  27.193  56.496  1.00  0.00     0.725 A 
HETATM    5  N   UNL     1       6.825  27.651  57.492  1.00  0.00    -0.084 N 
HETATM    6  N   UNL     1       7.451  26.630  58.120  1.00  0.00    -0.149 NA
HETATM    7  C   UNL     1       7.014  25.594  57.396  1.00  0.00     0.275 A 
HETATM    8  N   UNL     1       6.127  25.894  56.394  1.00  0.00    -0.054 NA
HETATM    9  C   UNL     1       6.940  29.063  57.875  1.00  0.00     0.205 C 
HETATM   10  C   UNL     1       5.836  29.893  57.218  1.00  0.00     0.063 C 
HETATM   11  H   UNL     1       4.515  27.671  55.208  1.00  0.00     0.184 HD
ENDROOT
BRANCH   9  12
HETATM   12  C   UNL     1       8.353  29.553  57.544  1.00  0.00     0.005 A 
HETATM   13  C   UNL     1       9.129  30.209  58.522  1.00  0.00     0.083 A 
HETATM   14  C   UNL     1      10.425  30.636  58.213  1.00  0.00     0.037 A 
HETATM   15  C   UNL     1      10.976  30.379  56.958  1.00  0.00     0.003 A 
HETATM   16  C   UNL     1      10.236  29.695  56.000  1.00  0.00     0.001 A 
HETATM   17  C   UNL     1       8.936  29.282  56.288  1.00  0.00     0.012 A 
BRANCH  13  18
HETATM   18  O   UNL     1       8.533  30.412  59.735  1.00  0.00    -0.290 OA
BRANCH  18  19
HETATM   19  C   UNL     1       9.362  30.810  60.822  1.00  0.00     0.505 C 
HETATM   20  F   UNL     1       9.471  32.159  60.881  1.00  0.00    -0.184 F 
HETATM   21  F   UNL     1       8.814  30.382  61.986  1.00  0.00    -0.184 F 
ENDBRANCH  18  19
ENDBRANCH  13  18
ENDBRANCH   9  12
BRANCH  10  22
HETATM   22  C   UNL     1       5.660  31.245  57.816  1.00  0.00     0.256 C 
HETATM   23  N   UNL     1       5.360  31.217  59.161  1.00  0.00    -0.323 N 
HETATM   24  H   UNL     1       5.247  30.308  59.590  1.00  0.00     0.169 HD
HETATM   25  O   UNL     1       5.771  32.227  57.094  1.00  0.00    -0.267 OA
BRANCH  23  26
HETATM   26  C   UNL     1       5.246  32.322  60.032  1.00  0.00     0.035 A 
HETATM   27  C   UNL     1       6.203  32.663  60.990  1.00  0.00     0.029 A 
HETATM   28  C   UNL     1       6.001  33.758  61.838  1.00  0.00     0.002 A 
HETATM   29  C   UNL     1       4.838  34.517  61.738  1.00  0.00     0.000 A 
HETATM   30  C   UNL     1       3.879  34.188  60.784  1.00  0.00     0.002 A 
HETATM   31  C   UNL     1       4.084  33.099  59.933  1.00  0.00     0.029 A 
ENDBRANCH  23  26
ENDBRANCH  10  22
TORSDOF 5
ENDMDL
MODEL 2
REMARK VINA RESULT:      -8.0      5.232      8.186
REMARK  5 active torsions:
REMARK  status: ('A' for Active; 'I' for Inactive)
REMARK    1  A    between atoms: C_9  and  C_10 
REMARK    2  A    between atoms: C_11  and  O_12 
REMARK    3  A    between atoms: O_12  and  C_13 
REMARK    4  A    between atoms: C_20  and  C_21 
REMARK       I    between atoms: C_21  and  N_22 
REMARK    5  A    between atoms: N_22  and  C_23 
ROOT
HETATM    1  C   UNL     1       3.768  30.246  54.802  1.00  0.00     0.070 C 
HETATM    2  C   UNL     1       5.063  29.549  55.135  1.00  0.00     0.037 C 
HETATM    3  N   UNL     1       5.745  30.051  56.241  1.00  0.00    -0.192 N 
HETATM    4  C   UNL     1       7.039  29.763  56.490  1.00  0.00     0.725 A 
HETATM    5  N   UNL     1       7.664  28.790  55.759  1.00  0.00    -0.084 N 
HETATM    6  N   UNL     1       8.983  28.729  56.052  1.00  0.00    -0.149 NA
HETATM    7  C   UNL     1       9.060  29.648  57.022  1.00  0.00     0.275 A 
HETATM    8  N   UNL     1       7.893  30.305  57.319  1.00  0.00    -0.054 NA
HETATM    9  C   UNL     1       6.998  27.978  54.734  1.00  0.00     0.205 C 
HETATM   10  C   UNL     1       5.618  28.550  54.403  1.00  0.00     0.063 C 
HETATM   11  H   UNL     1       5.351  30.867  56.702  1.00  0.00     0.184 HD
ENDROOT
BRANCH   9  12
HETATM   12  C   UNL     1       6.960  26.521  55.203  1.00  0.00     0.005 A 
HETATM   13  C   UNL     1       7.467  25.493  54.382  1.00  0.00     0.083 A 
HETATM   14  C   UNL     1       7.443  24.167  54.828  1.00  0.00     0.037 A 
HETATM   15  C   UNL     1       6.965  23.856  56.101  1.00  0.00     0.003 A 
HETATM   16  C   UNL     1       6.503  24.867  56.937  1.00  0.00     0.001 A 
HETATM   17  C   UNL     1       6.502  26.189  56.495  1.00  0.00     0.012 A 
BRANCH  13  18
HETATM   18  O   UNL     1       7.937  25.871  53.155  1.00  0.00    -0.290 OA
BRANCH  18  19
HETATM   19  C   UNL     1       7.380  25.237  52.008  1.00  0.00     0.505 C 
HETATM   20  F   UNL     1       8.075  24.121  51.684  1.00  0.00    -0.184 F 
HETATM   21  F   UNL     1       6.101  24.873  52.273  1.00  0.00    -0.184 F 
ENDBRANCH  18  19
ENDBRANCH  13  18
ENDBRANCH   9  12
BRANCH  10  22
HETATM   22  C   UNL     1       5.027  28.013  53.148  1.00  0.00     0.256 C 
HETATM   23  N   UNL     1       5.561  28.570  52.006  1.00  0.00    -0.323 N 
HETATM   24  H   UNL     1       6.250  29.300  52.127  1.00  0.00     0.169 HD
HETATM   25  O   UNL     1       4.141  27.172  53.227  1.00  0.00    -0.267 OA
BRANCH  23  26
HETATM   26  C   UNL     1       5.296  28.196  50.670  1.00  0.00     0.035 A 
HETATM   27  C   UNL     1       4.808  26.944  50.293  1.00  0.00     0.029 A 
HETATM   28  C   UNL     1       4.601  26.639  48.943  1.00  0.00     0.002 A 
HETATM   29  C   UNL     1       4.886  27.584  47.959  1.00  0.00     0.000 A 
HETATM   30  C   UNL     1       5.370  28.837  48.325  1.00  0.00     0.002 A 
HETATM   31  C   UNL     1       5.569  29.143  49.674  1.00  0.00     0.029 A 
ENDBRANCH  23  26
ENDBRANCH  10  22
TORSDOF 5
ENDMDL
MODEL 3
REMARK VINA RESULT:      -8.0      5.410      8.830
REMARK  5 active torsions:
REMARK  status: ('A' for Active; 'I' for Inactive)
REMARK    1  A    between atoms: C_9  and  C_10 
REMARK    2  A    between atoms: C_11  and  O_12 
REMARK    3  A    between atoms: O_12  and  C_13 
REMARK    4  A    between atoms: C_20  and  C_21 
REMARK       I    between atoms: C_21  and  N_22 
REMARK    5  A    between atoms: N_22  and  C_23 
ROOT
HETATM    1  C   UNL     1       3.827  25.529  49.070  1.00  0.00     0.070 C 
HETATM    2  C   UNL     1       4.359  26.797  49.688  1.00  0.00     0.037 C 
HETATM    3  N   UNL     1       4.162  27.955  48.940  1.00  0.00    -0.192 N 
HETATM    4  C   UNL     1       4.831  29.101  49.184  1.00  0.00     0.725 A 
HETATM    5  N   UNL     1       5.581  29.213  50.322  1.00  0.00    -0.084 N 
HETATM    6  N   UNL     1       6.281  30.370  50.335  1.00  0.00    -0.149 NA
HETATM    7  C   UNL     1       5.840  30.934  49.205  1.00  0.00     0.275 A 
HETATM    8  N   UNL     1       4.953  30.190  48.470  1.00  0.00    -0.054 NA
HETATM    9  C   UNL     1       5.672  28.170  51.350  1.00  0.00     0.205 C 
HETATM   10  C   UNL     1       5.056  26.862  50.851  1.00  0.00     0.063 C 
HETATM   11  H   UNL     1       3.728  27.853  48.026  1.00  0.00     0.184 HD
ENDROOT
BRANCH   9  12
HETATM   12  C   UNL     1       5.036  28.691  52.642  1.00  0.00     0.005 A 
HETATM   13  C   UNL     1       5.772  28.704  53.845  1.00  0.00     0.083 A 
HETATM   14  C   UNL     1       5.186  29.199  55.016  1.00  0.00     0.037 A 
HETATM   15  C   UNL     1       3.895  29.725  54.995  1.00  0.00     0.003 A 
HETATM   16  C   UNL     1       3.175  29.757  53.805  1.00  0.00     0.001 A 
HETATM   17  C   UNL     1       3.740  29.248  52.637  1.00  0.00     0.012 A 
BRANCH  13  18
HETATM   18  O   UNL     1       7.038  28.190  53.790  1.00  0.00    -0.290 OA
BRANCH  18  19
HETATM   19  C   UNL     1       7.970  28.621  54.776  1.00  0.00     0.505 C 
HETATM   20  F   UNL     1       8.116  27.688  55.747  1.00  0.00    -0.184 F 
HETATM   21  F   UNL     1       9.180  28.814  54.195  1.00  0.00    -0.184 F 
ENDBRANCH  18  19
ENDBRANCH  13  18
ENDBRANCH   9  12
BRANCH  10  22
HETATM   22  C   UNL     1       5.412  25.673  51.672  1.00  0.00     0.256 C 
HETATM   23  N   UNL     1       6.753  25.604  51.988  1.00  0.00    -0.323 N 
HETATM   24  H   UNL     1       7.354  26.321  51.605  1.00  0.00     0.169 HD
HETATM   25  O   UNL     1       4.531  24.879  51.972  1.00  0.00    -0.267 OA
BRANCH  23  26
HETATM   26  C   UNL     1       7.380  24.670  52.840  1.00  0.00     0.035 A 
HETATM   27  C   UNL     1       7.860  23.428  52.420  1.00  0.00     0.029 A 
HETATM   28  C   UNL     1       8.442  22.545  53.335  1.00  0.00     0.002 A 
HETATM   29  C   UNL     1       8.545  22.894  54.680  1.00  0.00     0.000 A 
HETATM   30  C   UNL     1       8.073  24.131  55.109  1.00  0.00     0.002 A 
HETATM   31  C   UNL     1       7.498  25.016  54.193  1.00  0.00     0.029 A 
ENDBRANCH  23  26
ENDBRANCH  10  22
TORSDOF 5
ENDMDL
MODEL 4
REMARK VINA RESULT:      -8.0      4.975      8.095
REMARK  5 active torsions:
REMARK  status: ('A' for Active; 'I' for Inactive)
REMARK    1  A    between atoms: C_9  and  C_10 
REMARK    2  A    between atoms: C_11  and  O_12 
REMARK    3  A    between atoms: O_12  and  C_13 
REMARK    4  A    between atoms: C_20  and  C_21 
REMARK       I    between atoms: C_21  and  N_22 
REMARK    5  A    between atoms: N_22  and  C_23 
ROOT
HETATM    1  C   UNL     1       3.440  29.619  53.964  1.00  0.00     0.070 C 
HETATM    2  C   UNL     1       4.723  28.922  54.341  1.00  0.00     0.037 C 
HETATM    3  N   UNL     1       5.005  28.886  55.704  1.00  0.00    -0.192 N 
HETATM    4  C   UNL     1       6.230  28.588  56.186  1.00  0.00     0.725 A 
HETATM    5  N   UNL     1       7.188  28.107  55.336  1.00  0.00    -0.084 N 
HETATM    6  N   UNL     1       8.382  27.991  55.960  1.00  0.00    -0.149 NA
HETATM    7  C   UNL     1       8.043  28.352  57.204  1.00  0.00     0.275 A 
HETATM    8  N   UNL     1       6.736  28.726  57.384  1.00  0.00    -0.054 NA
HETATM    9  C   UNL     1       6.960  27.834  53.913  1.00  0.00     0.205 C 
HETATM   10  C   UNL     1       5.620  28.414  53.458  1.00  0.00     0.063 C 
HETATM   11  H   UNL     1       4.363  29.368  56.328  1.00  0.00     0.184 HD
ENDROOT
BRANCH   9  12
HETATM   12  C   UNL     1       7.086  26.327  53.672  1.00  0.00     0.005 A 
HETATM   13  C   UNL     1       6.354  25.414  54.459  1.00  0.00     0.083 A 
HETATM   14  C   UNL     1       6.464  24.040  54.218  1.00  0.00     0.037 A 
HETATM   15  C   UNL     1       7.256  23.565  53.174  1.00  0.00     0.003 A 
HETATM   16  C   UNL     1       7.949  24.457  52.363  1.00  0.00     0.001 A 
HETATM   17  C   UNL     1       7.864  25.827  52.606  1.00  0.00     0.012 A 
BRANCH  13  18
HETATM   18  O   UNL     1       5.584  25.950  55.453  1.00  0.00    -0.290 OA
BRANCH  18  19
HETATM   19  C   UNL     1       5.458  25.212  56.665  1.00  0.00     0.505 C 
HETATM   20  F   UNL     1       6.590  25.297  57.404  1.00  0.00    -0.184 F 
HETATM   21  F   UNL     1       4.438  25.723  57.397  1.00  0.00    -0.184 F 
ENDBRANCH  18  19
ENDBRANCH  13  18
ENDBRANCH   9  12
BRANCH  10  22
HETATM   22  C   UNL     1       5.466  28.495  51.980  1.00  0.00     0.256 C 
HETATM   23  N   UNL     1       4.658  27.509  51.456  1.00  0.00    -0.323 N 
HETATM   24  H   UNL     1       4.294  26.820  52.101  1.00  0.00     0.169 HD
HETATM   25  O   UNL     1       6.058  29.378  51.374  1.00  0.00    -0.267 OA
BRANCH  23  26
HETATM   26  C   UNL     1       4.228  27.381  50.117  1.00  0.00     0.035 A 
HETATM   27  C   UNL     1       4.692  26.402  49.238  1.00  0.00     0.029 A 
HETATM   28  C   UNL     1       4.239  26.363  47.915  1.00  0.00     0.002 A 
HETATM   29  C   UNL     1       3.320  27.306  47.459  1.00  0.00     0.000 A 
HETATM   30  C   UNL     1       2.848  28.284  48.329  1.00  0.00     0.002 A 
HETATM   31  C   UNL     1       3.296  28.319  49.652  1.00  0.00     0.029 A 
ENDBRANCH  23  26
ENDBRANCH  10  22
TORSDOF 5
ENDMDL
MODEL 5
REMARK VINA RESULT:      -7.6      4.585      8.736
REMARK  5 active torsions:
REMARK  status: ('A' for Active; 'I' for Inactive)
REMARK    1  A    between atoms: C_9  and  C_10 
REMARK    2  A    between atoms: C_11  and  O_12 
REMARK    3  A    between atoms: O_12  and  C_13 
REMARK    4  A    between atoms: C_20  and  C_21 
REMARK       I    between atoms: C_21  and  N_22 
REMARK    5  A    between atoms: N_22  and  C_23 
ROOT
HETATM    1  C   UNL     1       7.963  31.844  62.995  1.00  0.00     0.070 C 
HETATM    2  C   UNL     1       7.046  32.822  63.685  1.00  0.00     0.037 C 
HETATM    3  N   UNL     1       7.473  33.261  64.936  1.00  0.00    -0.192 N 
HETATM    4  C   UNL     1       6.650  33.876  65.811  1.00  0.00     0.725 A 
HETATM    5  N   UNL     1       5.406  34.272  65.400  1.00  0.00    -0.084 N 
HETATM    6  N   UNL     1       4.678  34.747  66.436  1.00  0.00    -0.149 NA
HETATM    7  C   UNL     1       5.579  34.673  67.422  1.00  0.00     0.275 A 
HETATM    8  N   UNL     1       6.798  34.144  67.082  1.00  0.00    -0.054 NA
HETATM    9  C   UNL     1       4.908  34.120  64.028  1.00  0.00     0.205 C 
HETATM   10  C   UNL     1       5.839  33.224  63.210  1.00  0.00     0.063 C 
HETATM   11  H   UNL     1       8.330  32.858  65.305  1.00  0.00     0.184 HD
ENDROOT
BRANCH   9  12
HETATM   12  C   UNL     1       4.707  35.511  63.419  1.00  0.00     0.005 A 
HETATM   13  C   UNL     1       3.472  35.862  62.835  1.00  0.00     0.083 A 
HETATM   14  C   UNL     1       3.293  37.141  62.297  1.00  0.00     0.037 A 
HETATM   15  C   UNL     1       4.312  38.091  62.373  1.00  0.00     0.003 A 
HETATM   16  C   UNL     1       5.519  37.770  62.984  1.00  0.00     0.001 A 
HETATM   17  C   UNL     1       5.716  36.492  63.506  1.00  0.00     0.012 A 
BRANCH  13  18
HETATM   18  O   UNL     1       2.512  34.889  62.811  1.00  0.00    -0.290 OA
BRANCH  18  19
HETATM   19  C   UNL     1       1.717  34.772  61.636  1.00  0.00     0.505 C 
HETATM   20  F   UNL     1       2.129  33.733  60.871  1.00  0.00    -0.184 F 
HETATM   21  F   UNL     1       0.426  34.549  61.987  1.00  0.00    -0.184 F 
ENDBRANCH  18  19
ENDBRANCH  13  18
ENDBRANCH   9  12
BRANCH  10  22
HETATM   22  C   UNL     1       5.243  32.734  61.938  1.00  0.00     0.256 C 
HETATM   23  N   UNL     1       5.782  33.324  60.815  1.00  0.00    -0.323 N 
HETATM   24  H   UNL     1       6.477  34.044  60.960  1.00  0.00     0.169 HD
HETATM   25  O   UNL     1       4.350  31.899  61.989  1.00  0.00    -0.267 OA
BRANCH  23  26
HETATM   26  C   UNL     1       5.513  32.997  59.468  1.00  0.00     0.035 A 
HETATM   27  C   UNL     1       4.651  33.724  58.645  1.00  0.00     0.029 A 
HETATM   28  C   UNL     1       4.414  33.314  57.328  1.00  0.00     0.002 A 
HETATM   29  C   UNL     1       5.032  32.172  56.825  1.00  0.00     0.000 A 
HETATM   30  C   UNL     1       5.896  31.442  57.637  1.00  0.00     0.002 A 
HETATM   31  C   UNL     1       6.139  31.855  58.950  1.00  0.00     0.029 A 
ENDBRANCH  23  26
ENDBRANCH  10  22
TORSDOF 5
ENDMDL
MODEL 6
REMARK VINA RESULT:      -7.6      5.396      7.271
REMARK  5 active torsions:
REMARK  status: ('A' for Active; 'I' for Inactive)
REMARK    1  A    between atoms: C_9  and  C_10 
REMARK    2  A    between atoms: C_11  and  O_12 
REMARK    3  A    between atoms: O_12  and  C_13 
REMARK    4  A    between atoms: C_20  and  C_21 
REMARK       I    between atoms: C_21  and  N_22 
REMARK    5  A    between atoms: N_22  and  C_23 
ROOT
HETATM    1  C   UNL     1       4.136  36.962  59.200  1.00  0.00     0.070 C 
HETATM    2  C   UNL     1       4.204  35.635  59.913  1.00  0.00     0.037 C 
HETATM    3  N   UNL     1       4.008  34.514  59.110  1.00  0.00    -0.192 N 
HETATM    4  C   UNL     1       3.729  33.296  59.617  1.00  0.00     0.725 A 
HETATM    5  N   UNL     1       3.835  33.088  60.965  1.00  0.00    -0.084 N 
HETATM    6  N   UNL     1       3.393  31.856  61.306  1.00  0.00    -0.149 NA
HETATM    7  C   UNL     1       3.107  31.357  60.098  1.00  0.00     0.275 A 
HETATM    8  N   UNL     1       3.296  32.206  59.038  1.00  0.00    -0.054 NA
HETATM    9  C   UNL     1       4.294  34.104  61.919  1.00  0.00     0.205 C 
HETATM   10  C   UNL     1       4.362  35.480  61.252  1.00  0.00     0.063 C 
HETATM   11  H   UNL     1       3.788  34.674  58.130  1.00  0.00     0.184 HD
ENDROOT
BRANCH   9  12
HETATM   12  C   UNL     1       5.626  33.651  62.523  1.00  0.00     0.005 A 
HETATM   13  C   UNL     1       5.792  33.593  63.923  1.00  0.00     0.083 A 
HETATM   14  C   UNL     1       7.007  33.160  64.464  1.00  0.00     0.037 A 
HETATM   15  C   UNL     1       8.044  32.741  63.631  1.00  0.00     0.003 A 
HETATM   16  C   UNL     1       7.878  32.752  62.251  1.00  0.00     0.001 A 
HETATM   17  C   UNL     1       6.679  33.201  61.699  1.00  0.00     0.012 A 
BRANCH  13  18
HETATM   18  O   UNL     1       4.728  34.002  64.679  1.00  0.00    -0.290 OA
BRANCH  18  19
HETATM   19  C   UNL     1       5.005  34.626  65.928  1.00  0.00     0.505 C 
HETATM   20  F   UNL     1       4.507  35.885  65.962  1.00  0.00    -0.184 F 
HETATM   21  F   UNL     1       4.421  33.916  66.924  1.00  0.00    -0.184 F 
ENDBRANCH  18  19
ENDBRANCH  13  18
ENDBRANCH   9  12
BRANCH  10  22
HETATM   22  C   UNL     1       4.473  36.612  62.212  1.00  0.00     0.256 C 
HETATM   23  N   UNL     1       5.734  37.167  62.264  1.00  0.00    -0.323 N 
HETATM   24  H   UNL     1       6.451  36.738  61.695  1.00  0.00     0.169 HD
HETATM   25  O   UNL     1       3.487  36.931  62.863  1.00  0.00    -0.267 OA
BRANCH  23  26
HETATM   26  C   UNL     1       6.130  38.316  62.983  1.00  0.00     0.035 A 
HETATM   27  C   UNL     1       5.780  38.565  64.311  1.00  0.00     0.029 A 
HETATM   28  C   UNL     1       6.187  39.745  64.944  1.00  0.00     0.002 A 
HETATM   29  C   UNL     1       6.942  40.688  64.252  1.00  0.00     0.000 A 
HETATM   30  C   UNL     1       7.300  40.448  62.928  1.00  0.00     0.002 A 
HETATM   31  C   UNL     1       6.899  39.267  62.298  1.00  0.00     0.029 A 
ENDBRANCH  23  26
ENDBRANCH  10  22
TORSDOF 5
ENDMDL
MODEL 7
REMARK VINA RESULT:      -7.5      3.658      8.179
REMARK  5 active torsions:
REMARK  status: ('A' for Active; 'I' for Inactive)
REMARK    1  A    between atoms: C_9  and  C_10 
REMARK    2  A    between atoms: C_11  and  O_12 
REMARK    3  A    between atoms: O_12  and  C_13 
REMARK    4  A    between atoms: C_20  and  C_21 
REMARK       I    between atoms: C_21  and  N_22 
REMARK    5  A    between atoms: N_22  and  C_23 
ROOT
HETATM    1  C   UNL     1       2.910  34.894  59.154  1.00  0.00     0.070 C 
HETATM    2  C   UNL     1       3.672  35.430  60.340  1.00  0.00     0.037 C 
HETATM    3  N   UNL     1       3.460  36.777  60.626  1.00  0.00    -0.192 N 
HETATM    4  C   UNL     1       4.275  37.484  61.435  1.00  0.00     0.725 A 
HETATM    5  N   UNL     1       5.229  36.831  62.168  1.00  0.00    -0.084 N 
HETATM    6  N   UNL     1       6.032  37.705  62.815  1.00  0.00    -0.149 NA
HETATM    7  C   UNL     1       5.452  38.864  62.480  1.00  0.00     0.275 A 
HETATM    8  N   UNL     1       4.375  38.773  61.636  1.00  0.00    -0.054 NA
HETATM    9  C   UNL     1       5.399  35.374  62.179  1.00  0.00     0.205 C 
HETATM   10  C   UNL     1       4.572  34.724  61.069  1.00  0.00     0.063 C 
HETATM   11  H   UNL     1       2.859  37.300  59.995  1.00  0.00     0.184 HD
ENDROOT
BRANCH   9  12
HETATM   12  C   UNL     1       5.066  34.847  63.578  1.00  0.00     0.005 A 
HETATM   13  C   UNL     1       6.038  34.158  64.332  1.00  0.00     0.083 A 
HETATM   14  C   UNL     1       5.728  33.696  65.616  1.00  0.00     0.037 A 
HETATM   15  C   UNL     1       4.478  33.952  66.178  1.00  0.00     0.003 A 
HETATM   16  C   UNL     1       3.525  34.668  65.461  1.00  0.00     0.001 A 
HETATM   17  C   UNL     1       3.815  35.115  64.173  1.00  0.00     0.012 A 
BRANCH  13  18
HETATM   18  O   UNL     1       7.248  33.958  63.727  1.00  0.00    -0.290 OA
BRANCH  18  19
HETATM   19  C   UNL     1       7.752  32.627  63.676  1.00  0.00     0.505 C 
HETATM   20  F   UNL     1       6.848  31.787  63.118  1.00  0.00    -0.184 F 
HETATM   21  F   UNL     1       8.875  32.601  62.917  1.00  0.00    -0.184 F 
ENDBRANCH  18  19
ENDBRANCH  13  18
ENDBRANCH   9  12
BRANCH  10  22
HETATM   22  C   UNL     1       4.950  33.313  60.781  1.00  0.00     0.256 C 
HETATM   23  N   UNL     1       5.972  33.193  59.864  1.00  0.00    -0.323 N 
HETATM   24  H   UNL     1       6.327  34.047  59.454  1.00  0.00     0.169 HD
HETATM   25  O   UNL     1       4.337  32.414  61.341  1.00  0.00    -0.267 OA
BRANCH  23  26
HETATM   26  C   UNL     1       6.629  32.007  59.470  1.00  0.00     0.035 A 
HETATM   27  C   UNL     1       7.806  31.535  60.054  1.00  0.00     0.029 A 
HETATM   28  C   UNL     1       8.413  30.365  59.583  1.00  0.00     0.002 A 
HETATM   29  C   UNL     1       7.850  29.660  58.522  1.00  0.00     0.000 A 
HETATM   30  C   UNL     1       6.674  30.120  57.935  1.00  0.00     0.002 A 
HETATM   31  C   UNL     1       6.065  31.285  58.410  1.00  0.00     0.029 A 
ENDBRANCH  23  26
ENDBRANCH  10  22
TORSDOF 5
ENDMDL
MODEL 8
REMARK VINA RESULT:      -7.2      3.194      4.354
REMARK  5 active torsions:
REMARK  status: ('A' for Active; 'I' for Inactive)
REMARK    1  A    between atoms: C_9  and  C_10 
REMARK    2  A    between atoms: C_11  and  O_12 
REMARK    3  A    between atoms: O_12  and  C_13 
REMARK    4  A    between atoms: C_20  and  C_21 
REMARK       I    between atoms: C_21  and  N_22 
REMARK    5  A    between atoms: N_22  and  C_23 
ROOT
HETATM    1  C   UNL     1       4.714  33.555  56.402  1.00  0.00     0.070 C 
HETATM    2  C   UNL     1       4.864  32.093  56.065  1.00  0.00     0.037 C 
HETATM    3  N   UNL     1       4.686  31.768  54.723  1.00  0.00    -0.192 N 
HETATM    4  C   UNL     1       4.478  30.503  54.303  1.00  0.00     0.725 A 
HETATM    5  N   UNL     1       4.644  29.467  55.180  1.00  0.00    -0.084 N 
HETATM    6  N   UNL     1       4.268  28.292  54.627  1.00  0.00    -0.149 NA
HETATM    7  C   UNL     1       3.957  28.694  53.389  1.00  0.00     0.275 A 
HETATM    8  N   UNL     1       4.069  30.040  53.150  1.00  0.00    -0.054 NA
HETATM    9  C   UNL     1       5.096  29.630  56.567  1.00  0.00     0.205 C 
HETATM   10  C   UNL     1       5.081  31.106  56.970  1.00  0.00     0.063 C 
HETATM   11  H   UNL     1       4.422  32.520  54.091  1.00  0.00     0.184 HD
ENDROOT
BRANCH   9  12
HETATM   12  C   UNL     1       6.468  28.968  56.722  1.00  0.00     0.005 A 
HETATM   13  C   UNL     1       6.569  27.618  57.118  1.00  0.00     0.083 A 
HETATM   14  C   UNL     1       7.827  27.018  57.239  1.00  0.00     0.037 A 
HETATM   15  C   UNL     1       8.985  27.731  56.926  1.00  0.00     0.003 A 
HETATM   16  C   UNL     1       8.896  29.049  56.494  1.00  0.00     0.001 A 
HETATM   17  C   UNL     1       7.649  29.664  56.389  1.00  0.00     0.012 A 
BRANCH  13  18
HETATM   18  O   UNL     1       5.394  26.975  57.390  1.00  0.00    -0.290 OA
BRANCH  18  19
HETATM   19  C   UNL     1       5.316  25.585  57.094  1.00  0.00     0.505 C 
HETATM   20  F   UNL     1       4.263  25.012  57.725  1.00  0.00    -0.184 F 
HETATM   21  F   UNL     1       5.147  25.419  55.759  1.00  0.00    -0.184 F 
ENDBRANCH  18  19
ENDBRANCH  13  18
ENDBRANCH   9  12
BRANCH  10  22
HETATM   22  C   UNL     1       5.181  31.332  58.438  1.00  0.00     0.256 C 
HETATM   23  N   UNL     1       6.472  31.531  58.877  1.00  0.00    -0.323 N 
HETATM   24  H   UNL     1       7.209  31.462  58.188  1.00  0.00     0.169 HD
HETATM   25  O   UNL     1       4.158  31.304  59.109  1.00  0.00    -0.267 OA
BRANCH  23  26
HETATM   26  C   UNL     1       6.884  31.881  60.181  1.00  0.00     0.035 A 
HETATM   27  C   UNL     1       6.326  32.924  60.923  1.00  0.00     0.029 A 
HETATM   28  C   UNL     1       6.813  33.228  62.199  1.00  0.00     0.002 A 
HETATM   29  C   UNL     1       7.866  32.496  62.741  1.00  0.00     0.000 A 
HETATM   30  C   UNL     1       8.428  31.452  62.011  1.00  0.00     0.002 A 
HETATM   31  C   UNL     1       7.937  31.144  60.740  1.00  0.00     0.029 A 
ENDBRANCH  23  26
ENDBRANCH  10  22
TORSDOF 5
ENDMDL
MODEL 9
REMARK VINA RESULT:      -6.7      6.937      8.938
REMARK  5 active torsions:
REMARK  status: ('A' for Active; 'I' for Inactive)
REMARK    1  A    between atoms: C_9  and  C_10 
REMARK    2  A    between atoms: C_11  and  O_12 
REMARK    3  A    between atoms: O_12  and  C_13 
REMARK    4  A    between atoms: C_20  and  C_21 
REMARK       I    between atoms: C_21  and  N_22 
REMARK    5  A    between atoms: N_22  and  C_23 
ROOT
HETATM    1  C   UNL     1       4.507  37.993  59.413  1.00  0.00     0.070 C 
HETATM    2  C   UNL     1       4.247  37.014  60.530  1.00  0.00     0.037 C 
HETATM    3  N   UNL     1       3.260  36.064  60.275  1.00  0.00    -0.192 N 
HETATM    4  C   UNL     1       2.691  35.327  61.250  1.00  0.00     0.725 A 
HETATM    5  N   UNL     1       3.223  35.352  62.510  1.00  0.00    -0.084 N 
HETATM    6  N   UNL     1       2.451  34.664  63.381  1.00  0.00    -0.149 NA
HETATM    7  C   UNL     1       1.511  34.192  62.554  1.00  0.00     0.275 A 
HETATM    8  N   UNL     1       1.620  34.576  61.242  1.00  0.00    -0.054 NA
HETATM    9  C   UNL     1       4.432  36.099  62.875  1.00  0.00     0.205 C 
HETATM   10  C   UNL     1       4.841  37.050  61.750  1.00  0.00     0.063 C 
HETATM   11  H   UNL     1       2.763  36.133  59.390  1.00  0.00     0.184 HD
ENDROOT
BRANCH   9  12
HETATM   12  C   UNL     1       5.530  35.105  63.265  1.00  0.00     0.005 A 
HETATM   13  C   UNL     1       5.872  34.913  64.620  1.00  0.00     0.083 A 
HETATM   14  C   UNL     1       6.864  33.988  64.965  1.00  0.00     0.037 A 
HETATM   15  C   UNL     1       7.488  33.219  63.983  1.00  0.00     0.003 A 
HETATM   16  C   UNL     1       7.130  33.368  62.648  1.00  0.00     0.001 A 
HETATM   17  C   UNL     1       6.157  34.301  62.290  1.00  0.00     0.012 A 
BRANCH  13  18
HETATM   18  O   UNL     1       5.207  35.687  65.530  1.00  0.00    -0.290 OA
BRANCH  18  19
HETATM   19  C   UNL     1       4.324  35.033  66.435  1.00  0.00     0.505 C 
HETATM   20  F   UNL     1       3.145  35.694  66.526  1.00  0.00    -0.184 F 
HETATM   21  F   UNL     1       4.068  33.780  65.986  1.00  0.00    -0.184 F 
ENDBRANCH  18  19
ENDBRANCH  13  18
ENDBRANCH   9  12
BRANCH  10  22
HETATM   22  C   UNL     1       5.829  38.085  62.162  1.00  0.00     0.256 C 
HETATM   23  N   UNL     1       5.280  39.098  62.919  1.00  0.00    -0.323 N 
HETATM   24  H   UNL     1       4.282  39.065  63.080  1.00  0.00     0.169 HD
HETATM   25  O   UNL     1       6.990  37.969  61.795  1.00  0.00    -0.267 OA
BRANCH  23  26
HETATM   26  C   UNL     1       5.967  40.156  63.553  1.00  0.00     0.035 A 
HETATM   27  C   UNL     1       6.583  41.207  62.869  1.00  0.00     0.029 A 
HETATM   28  C   UNL     1       7.272  42.202  63.570  1.00  0.00     0.002 A 
HETATM   29  C   UNL     1       7.357  42.152  64.960  1.00  0.00     0.000 A 
HETATM   30  C   UNL     1       6.744  41.111  65.651  1.00  0.00     0.002 A 
HETATM   31  C   UNL     1       6.049  40.120  64.951  1.00  0.00     0.029 A 
ENDBRANCH  23  26
ENDBRANCH  10  22
TORSDOF 5
ENDMDL
MODEL 10
REMARK VINA RESULT:      -6.6      5.020      8.357
REMARK  5 active torsions:
REMARK  status: ('A' for Active; 'I' for Inactive)
REMARK    1  A    between atoms: C_9  and  C_10 
REMARK    2  A    between atoms: C_11  and  O_12 
REMARK    3  A    between atoms: O_12  and  C_13 
REMARK    4  A    between atoms: C_20  and  C_21 
REMARK       I    between atoms: C_21  and  N_22 
REMARK    5  A    between atoms: N_22  and  C_23 
ROOT
HETATM    1  C   UNL     1       3.878  34.087  64.663  1.00  0.00     0.070 C 
HETATM    2  C   UNL     1       3.318  34.476  63.318  1.00  0.00     0.037 C 
HETATM    3  N   UNL     1       1.944  34.699  63.285  1.00  0.00    -0.192 N 
HETATM    4  C   UNL     1       1.242  34.746  62.134  1.00  0.00     0.725 A 
HETATM    5  N   UNL     1       1.909  34.779  60.940  1.00  0.00    -0.084 N 
HETATM    6  N   UNL     1       1.052  34.692  59.898  1.00  0.00    -0.149 NA
HETATM    7  C   UNL     1      -0.119  34.683  60.545  1.00  0.00     0.275 A 
HETATM    8  N   UNL     1      -0.047  34.714  61.915  1.00  0.00    -0.054 NA
HETATM    9  C   UNL     1       3.371  34.823  60.818  1.00  0.00     0.205 C 
HETATM   10  C   UNL     1       4.035  34.544  62.168  1.00  0.00     0.063 C 
HETATM   11  H   UNL     1       1.423  34.537  64.143  1.00  0.00     0.184 HD
ENDROOT
BRANCH   9  12
HETATM   12  C   UNL     1       3.777  36.165  60.202  1.00  0.00     0.005 A 
HETATM   13  C   UNL     1       4.151  36.243  58.844  1.00  0.00     0.083 A 
HETATM   14  C   UNL     1       4.502  37.478  58.287  1.00  0.00     0.037 A 
HETATM   15  C   UNL     1       4.444  38.642  59.052  1.00  0.00     0.003 A 
HETATM   16  C   UNL     1       4.036  38.584  60.380  1.00  0.00     0.001 A 
HETATM   17  C   UNL     1       3.702  37.357  60.952  1.00  0.00     0.012 A 
BRANCH  13  18
HETATM   18  O   UNL     1       4.169  35.066  58.149  1.00  0.00    -0.290 OA
BRANCH  18  19
HETATM   19  C   UNL     1       3.294  34.942  57.033  1.00  0.00     0.505 C 
HETATM   20  F   UNL     1       2.798  33.685  56.940  1.00  0.00    -0.184 F 
HETATM   21  F   UNL     1       2.251  35.795  57.183  1.00  0.00    -0.184 F 
ENDBRANCH  18  19
ENDBRANCH  13  18
ENDBRANCH   9  12
BRANCH  10  22
HETATM   22  C   UNL     1       5.485  34.222  62.073  1.00  0.00     0.256 C 
HETATM   23  N   UNL     1       5.737  32.899  61.778  1.00  0.00    -0.323 N 
HETATM   24  H   UNL     1       4.938  32.283  61.702  1.00  0.00     0.169 HD
HETATM   25  O   UNL     1       6.300  35.112  62.274  1.00  0.00    -0.267 OA
BRANCH  23  26
HETATM   26  C   UNL     1       6.991  32.309  61.511  1.00  0.00     0.035 A 
HETATM   27  C   UNL     1       7.720  32.520  60.339  1.00  0.00     0.029 A 
HETATM   28  C   UNL     1       8.943  31.872  60.137  1.00  0.00     0.002 A 
HETATM   29  C   UNL     1       9.445  31.003  61.103  1.00  0.00     0.000 A 
HETATM   30  C   UNL     1       8.729  30.788  62.277  1.00  0.00     0.002 A 
HETATM   31  C   UNL     1       7.510  31.441  62.482  1.00  0.00     0.029 A 
ENDBRANCH  23  26
ENDBRANCH  10  22
TORSDOF 5
ENDMDL
