MODEL 1
REMARK VINA RESULT:      -8.1      0.000      0.000
REMARK  8 active torsions:
REMARK  status: ('A' for Active; 'I' for Inactive)
REMARK    1  A    between atoms: C_2  and  N_3 
REMARK    2  A    between atoms: C_2  and  C_17 
REMARK    3  A    between atoms: N_3  and  C_6 
REMARK    4  A    between atoms: C_6  and  C_7 
REMARK    5  A    between atoms: C_7  and  O_8 
REMARK    6  A    between atoms: C_7  and  C_9 
REMARK    7  A    between atoms: C_11  and  O_12 
REMARK    8  A    between atoms: C_17  and  C_18 
ROOT
HETATM    1  N   UNL     1       4.446  25.676  53.597  1.00  0.00    -0.068 N 
HETATM    2  H   UNL     1       4.397  25.080  54.450  1.00  0.00     0.277 HD
HETATM    3  H   UNL     1       3.465  25.757  53.277  1.00  0.00     0.277 HD
ENDROOT
BRANCH   1   4
HETATM    4  C   UNL     1       5.036  26.997  54.008  1.00  0.00     0.188 C 
HETATM    5  C   UNL     1       4.114  28.127  53.563  1.00  0.00     0.040 C 
BRANCH   4   6
HETATM    6  C   UNL     1       5.229  27.036  55.540  1.00  0.00     0.099 C 
BRANCH   6   7
HETATM    7  C   UNL     1       6.464  27.793  55.923  1.00  0.00     0.078 A 
HETATM    8  S   UNL     1       7.685  28.113  54.769  1.00  0.00    -0.073 SA
HETATM    9  C   UNL     1       8.595  28.954  55.964  1.00  0.00     0.035 A 
HETATM   10  C   UNL     1       7.891  28.932  57.171  1.00  0.00     0.074 A 
HETATM   11  C   UNL     1       9.843  29.586  55.842  1.00  0.00     0.021 A 
HETATM   12  N   UNL     1       6.662  28.280  57.132  1.00  0.00    -0.245 NA
HETATM   13  C   UNL     1       8.463  29.554  58.299  1.00  0.00     0.033 A 
HETATM   14  C   UNL     1       9.705  30.187  58.189  1.00  0.00     0.002 A 
HETATM   15  C   UNL     1      10.384  30.203  56.974  1.00  0.00     0.002 A 
ENDBRANCH   6   7
ENDBRANCH   4   6
ENDBRANCH   1   4
BRANCH   1  16
HETATM   16  C   UNL     1       5.169  24.875  52.550  1.00  0.00     0.269 C 
BRANCH  16  17
HETATM   17  C   UNL     1       6.686  25.125  52.701  1.00  0.00     0.177 C 
BRANCH  17  18
HETATM   18  O   UNL     1       7.222  25.262  51.374  1.00  0.00    -0.389 OA
HETATM   19  H   UNL     1       6.649  24.723  50.790  1.00  0.00     0.210 HD
ENDBRANCH  17  18
BRANCH  17  20
HETATM   20  C   UNL     1       7.387  24.015  53.454  1.00  0.00    -0.025 A 
HETATM   21  C   UNL     1       7.666  24.190  54.825  1.00  0.00     0.046 A 
HETATM   22  C   UNL     1       8.303  23.186  55.560  1.00  0.00     0.068 A 
HETATM   23  C   UNL     1       8.666  22.000  54.923  1.00  0.00     0.037 A 
HETATM   24  C   UNL     1       8.399  21.811  53.568  1.00  0.00     0.003 A 
HETATM   25  C   UNL     1       7.757  22.810  52.838  1.00  0.00     0.010 A 
BRANCH  22  26
HETATM   26  O   UNL     1       8.615  23.236  56.887  1.00  0.00    -0.356 OA
HETATM   27  C   UNL     1       8.901  24.511  57.449  1.00  0.00     0.210 C 
ENDBRANCH  22  26
ENDBRANCH  17  20
ENDBRANCH  16  17
ENDBRANCH   1  16
TORSDOF 8
ENDMDL
MODEL 2
REMARK VINA RESULT:      -8.1      2.683      7.014
REMARK  8 active torsions:
REMARK  status: ('A' for Active; 'I' for Inactive)
REMARK    1  A    between atoms: C_2  and  N_3 
REMARK    2  A    between atoms: C_2  and  C_17 
REMARK    3  A    between atoms: N_3  and  C_6 
REMARK    4  A    between atoms: C_6  and  C_7 
REMARK    5  A    between atoms: C_7  and  O_8 
REMARK    6  A    between atoms: C_7  and  C_9 
REMARK    7  A    between atoms: C_11  and  O_12 
REMARK    8  A    between atoms: C_17  and  C_18 
ROOT
HETATM    1  N   UNL     1       5.967  26.964  55.825  1.00  0.00    -0.068 N 
HETATM    2  H   UNL     1       4.961  26.892  56.090  1.00  0.00     0.277 HD
HETATM    3  H   UNL     1       6.396  26.095  56.190  1.00  0.00     0.277 HD
ENDROOT
BRANCH   1   4
HETATM    4  C   UNL     1       6.026  27.058  54.324  1.00  0.00     0.188 C 
HETATM    5  C   UNL     1       5.760  28.496  53.894  1.00  0.00     0.040 C 
BRANCH   4   6
HETATM    6  C   UNL     1       7.411  26.596  53.820  1.00  0.00     0.099 C 
BRANCH   6   7
HETATM    7  C   UNL     1       7.556  25.106  53.887  1.00  0.00     0.078 A 
HETATM    8  S   UNL     1       7.820  24.189  52.467  1.00  0.00    -0.073 SA
HETATM    9  C   UNL     1       7.878  22.749  53.407  1.00  0.00     0.035 A 
HETATM   10  C   UNL     1       7.694  23.076  54.753  1.00  0.00     0.074 A 
HETATM   11  C   UNL     1       8.073  21.425  52.984  1.00  0.00     0.021 A 
HETATM   12  N   UNL     1       7.528  24.432  55.019  1.00  0.00    -0.245 NA
HETATM   13  C   UNL     1       7.691  22.038  55.707  1.00  0.00     0.033 A 
HETATM   14  C   UNL     1       7.884  20.715  55.296  1.00  0.00     0.002 A 
HETATM   15  C   UNL     1       8.075  20.415  53.951  1.00  0.00     0.002 A 
ENDBRANCH   6   7
ENDBRANCH   4   6
ENDBRANCH   1   4
BRANCH   1  16
HETATM   16  C   UNL     1       6.547  28.095  56.627  1.00  0.00     0.269 C 
BRANCH  16  17
HETATM   17  C   UNL     1       7.988  27.718  57.037  1.00  0.00     0.177 C 
BRANCH  17  18
HETATM   18  O   UNL     1       7.885  26.831  58.163  1.00  0.00    -0.389 OA
HETATM   19  H   UNL     1       8.645  27.038  58.745  1.00  0.00     0.210 HD
ENDBRANCH  17  18
BRANCH  17  20
HETATM   20  C   UNL     1       8.831  28.928  57.378  1.00  0.00    -0.025 A 
HETATM   21  C   UNL     1       8.275  29.943  58.183  1.00  0.00     0.046 A 
HETATM   22  C   UNL     1       9.022  31.073  58.528  1.00  0.00     0.068 A 
HETATM   23  C   UNL     1      10.332  31.192  58.066  1.00  0.00     0.037 A 
HETATM   24  C   UNL     1      10.897  30.199  57.268  1.00  0.00     0.003 A 
HETATM   25  C   UNL     1      10.154  29.069  56.931  1.00  0.00     0.010 A 
BRANCH  22  26
HETATM   26  O   UNL     1       8.597  32.111  59.306  1.00  0.00    -0.356 OA
HETATM   27  C   UNL     1       9.261  32.320  60.546  1.00  0.00     0.210 C 
ENDBRANCH  22  26
ENDBRANCH  17  20
ENDBRANCH  16  17
ENDBRANCH   1  16
TORSDOF 8
ENDMDL
MODEL 3
REMARK VINA RESULT:      -8.0      2.453      6.352
REMARK  8 active torsions:
REMARK  status: ('A' for Active; 'I' for Inactive)
REMARK    1  A    between atoms: C_2  and  N_3 
REMARK    2  A    between atoms: C_2  and  C_17 
REMARK    3  A    between atoms: N_3  and  C_6 
REMARK    4  A    between atoms: C_6  and  C_7 
REMARK    5  A    between atoms: C_7  and  O_8 
REMARK    6  A    between atoms: C_7  and  C_9 
REMARK    7  A    between atoms: C_11  and  O_12 
REMARK    8  A    between atoms: C_17  and  C_18 
ROOT
HETATM    1  N   UNL     1       4.643  25.944  53.569  1.00  0.00    -0.068 N 
HETATM    2  H   UNL     1       3.643  25.971  53.277  1.00  0.00     0.277 HD
HETATM    3  H   UNL     1       4.662  25.299  54.379  1.00  0.00     0.277 HD
ENDROOT
BRANCH   1   4
HETATM    4  C   UNL     1       5.436  25.432  52.398  1.00  0.00     0.188 C 
HETATM    5  C   UNL     1       5.145  26.291  51.172  1.00  0.00     0.040 C 
BRANCH   4   6
HETATM    6  C   UNL     1       6.945  25.463  52.727  1.00  0.00     0.099 C 
BRANCH   6   7
HETATM    7  C   UNL     1       7.375  24.233  53.468  1.00  0.00     0.078 A 
HETATM    8  S   UNL     1       7.558  24.257  55.168  1.00  0.00    -0.073 SA
HETATM    9  C   UNL     1       8.000  22.594  55.144  1.00  0.00     0.035 A 
HETATM   10  C   UNL     1       7.971  22.134  53.825  1.00  0.00     0.074 A 
HETATM   11  C   UNL     1       8.347  21.756  56.216  1.00  0.00     0.021 A 
HETATM   12  N   UNL     1       7.593  23.077  52.874  1.00  0.00    -0.245 NA
HETATM   13  C   UNL     1       8.315  20.791  53.569  1.00  0.00     0.033 A 
HETATM   14  C   UNL     1       8.663  19.948  54.630  1.00  0.00     0.002 A 
HETATM   15  C   UNL     1       8.675  20.426  55.936  1.00  0.00     0.002 A 
ENDBRANCH   6   7
ENDBRANCH   4   6
ENDBRANCH   1   4
BRANCH   1  16
HETATM   16  C   UNL     1       4.974  27.309  54.105  1.00  0.00     0.269 C 
BRANCH  16  17
HETATM   17  C   UNL     1       5.293  27.182  55.611  1.00  0.00     0.177 C 
BRANCH  17  18
HETATM   18  O   UNL     1       4.150  27.684  56.324  1.00  0.00    -0.389 OA
HETATM   19  H   UNL     1       3.365  27.434  55.794  1.00  0.00     0.210 HD
ENDBRANCH  17  18
BRANCH  17  20
HETATM   20  C   UNL     1       6.548  27.931  56.005  1.00  0.00    -0.025 A 
HETATM   21  C   UNL     1       6.748  28.265  57.360  1.00  0.00     0.046 A 
HETATM   22  C   UNL     1       7.897  28.947  57.767  1.00  0.00     0.068 A 
HETATM   23  C   UNL     1       8.853  29.302  56.816  1.00  0.00     0.037 A 
HETATM   24  C   UNL     1       8.671  28.982  55.472  1.00  0.00     0.003 A 
HETATM   25  C   UNL     1       7.527  28.295  55.068  1.00  0.00     0.010 A 
BRANCH  22  26
HETATM   26  O   UNL     1       8.204  29.314  59.046  1.00  0.00    -0.356 OA
HETATM   27  C   UNL     1       8.130  30.696  59.370  1.00  0.00     0.210 C 
ENDBRANCH  22  26
ENDBRANCH  17  20
ENDBRANCH  16  17
ENDBRANCH   1  16
TORSDOF 8
ENDMDL
MODEL 4
REMARK VINA RESULT:      -8.0      3.233      7.267
REMARK  8 active torsions:
REMARK  status: ('A' for Active; 'I' for Inactive)
REMARK    1  A    between atoms: C_2  and  N_3 
REMARK    2  A    between atoms: C_2  and  C_17 
REMARK    3  A    between atoms: N_3  and  C_6 
REMARK    4  A    between atoms: C_6  and  C_7 
REMARK    5  A    between atoms: C_7  and  O_8 
REMARK    6  A    between atoms: C_7  and  C_9 
REMARK    7  A    between atoms: C_11  and  O_12 
REMARK    8  A    between atoms: C_17  and  C_18 
ROOT
HETATM    1  N   UNL     1       5.159  25.786  53.891  1.00  0.00    -0.068 N 
HETATM    2  H   UNL     1       5.775  25.023  53.537  1.00  0.00     0.277 HD
HETATM    3  H   UNL     1       4.246  25.329  54.058  1.00  0.00     0.277 HD
ENDROOT
BRANCH   1   4
HETATM    4  C   UNL     1       5.785  26.318  55.151  1.00  0.00     0.188 C 
HETATM    5  C   UNL     1       5.188  25.603  56.357  1.00  0.00     0.040 C 
BRANCH   4   6
HETATM    6  C   UNL     1       7.315  26.111  55.109  1.00  0.00     0.099 C 
BRANCH   6   7
HETATM    7  C   UNL     1       7.673  24.666  54.941  1.00  0.00     0.078 A 
HETATM    8  S   UNL     1       8.324  23.769  56.244  1.00  0.00    -0.073 SA
HETATM    9  C   UNL     1       8.391  22.368  55.247  1.00  0.00     0.035 A 
HETATM   10  C   UNL     1       7.903  22.688  53.978  1.00  0.00     0.074 A 
HETATM   11  C   UNL     1       8.844  21.078  55.565  1.00  0.00     0.021 A 
HETATM   12  N   UNL     1       7.477  24.004  53.818  1.00  0.00    -0.245 NA
HETATM   13  C   UNL     1       7.880  21.685  52.988  1.00  0.00     0.033 A 
HETATM   14  C   UNL     1       8.329  20.396  53.294  1.00  0.00     0.002 A 
HETATM   15  C   UNL     1       8.803  20.098  54.568  1.00  0.00     0.002 A 
ENDBRANCH   6   7
ENDBRANCH   4   6
ENDBRANCH   1   4
BRANCH   1  16
HETATM   16  C   UNL     1       4.954  26.741  52.747  1.00  0.00     0.269 C 
BRANCH  16  17
HETATM   17  C   UNL     1       5.278  26.004  51.428  1.00  0.00     0.177 C 
BRANCH  17  18
HETATM   18  O   UNL     1       6.657  25.603  51.501  1.00  0.00    -0.389 OA
HETATM   19  H   UNL     1       6.681  24.660  51.236  1.00  0.00     0.210 HD
ENDBRANCH  17  18
BRANCH  17  20
HETATM   20  C   UNL     1       5.029  26.862  50.206  1.00  0.00    -0.025 A 
HETATM   21  C   UNL     1       4.288  26.326  49.134  1.00  0.00     0.046 A 
HETATM   22  C   UNL     1       4.027  27.088  47.992  1.00  0.00     0.068 A 
HETATM   23  C   UNL     1       4.512  28.393  47.917  1.00  0.00     0.037 A 
HETATM   24  C   UNL     1       5.248  28.939  48.967  1.00  0.00     0.003 A 
HETATM   25  C   UNL     1       5.501  28.181  50.109  1.00  0.00     0.010 A 
BRANCH  22  26
HETATM   26  O   UNL     1       3.316  26.683  46.899  1.00  0.00    -0.356 OA
HETATM   27  C   UNL     1       2.789  25.362  46.910  1.00  0.00     0.210 C 
ENDBRANCH  22  26
ENDBRANCH  17  20
ENDBRANCH  16  17
ENDBRANCH   1  16
TORSDOF 8
ENDMDL
MODEL 5
REMARK VINA RESULT:      -8.0      2.616      3.718
REMARK  8 active torsions:
REMARK  status: ('A' for Active; 'I' for Inactive)
REMARK    1  A    between atoms: C_2  and  N_3 
REMARK    2  A    between atoms: C_2  and  C_17 
REMARK    3  A    between atoms: N_3  and  C_6 
REMARK    4  A    between atoms: C_6  and  C_7 
REMARK    5  A    between atoms: C_7  and  O_8 
REMARK    6  A    between atoms: C_7  and  C_9 
REMARK    7  A    between atoms: C_11  and  O_12 
REMARK    8  A    between atoms: C_17  and  C_18 
ROOT
HETATM    1  N   UNL     1       6.316  27.344  56.039  1.00  0.00    -0.068 N 
HETATM    2  H   UNL     1       5.635  26.625  56.366  1.00  0.00     0.277 HD
HETATM    3  H   UNL     1       5.731  28.145  55.747  1.00  0.00     0.277 HD
ENDROOT
BRANCH   1   4
HETATM    4  C   UNL     1       7.213  27.670  57.202  1.00  0.00     0.188 C 
HETATM    5  C   UNL     1       8.243  26.559  57.377  1.00  0.00     0.040 C 
BRANCH   4   6
HETATM    6  C   UNL     1       7.920  29.021  56.961  1.00  0.00     0.099 C 
BRANCH   6   7
HETATM    7  C   UNL     1       7.883  29.890  58.182  1.00  0.00     0.078 A 
HETATM    8  S   UNL     1       6.713  31.127  58.339  1.00  0.00    -0.073 SA
HETATM    9  C   UNL     1       7.347  31.533  59.886  1.00  0.00     0.035 A 
HETATM   10  C   UNL     1       8.417  30.682  60.177  1.00  0.00     0.074 A 
HETATM   11  C   UNL     1       6.929  32.532  60.779  1.00  0.00     0.021 A 
HETATM   12  N   UNL     1       8.704  29.732  59.201  1.00  0.00    -0.245 NA
HETATM   13  C   UNL     1       9.100  30.847  61.398  1.00  0.00     0.033 A 
HETATM   14  C   UNL     1       8.692  31.840  62.295  1.00  0.00     0.002 A 
HETATM   15  C   UNL     1       7.618  32.669  61.988  1.00  0.00     0.002 A 
ENDBRANCH   6   7
ENDBRANCH   4   6
ENDBRANCH   1   4
BRANCH   1  16
HETATM   16  C   UNL     1       6.950  26.801  54.788  1.00  0.00     0.269 C 
BRANCH  16  17
HETATM   17  C   UNL     1       6.063  25.660  54.243  1.00  0.00     0.177 C 
BRANCH  17  18
HETATM   18  O   UNL     1       4.924  25.562  55.114  1.00  0.00    -0.389 OA
HETATM   19  H   UNL     1       4.446  26.414  55.037  1.00  0.00     0.210 HD
ENDBRANCH  17  18
BRANCH  17  20
HETATM   20  C   UNL     1       6.798  24.339  54.164  1.00  0.00    -0.025 A 
HETATM   21  C   UNL     1       7.101  23.653  55.358  1.00  0.00     0.046 A 
HETATM   22  C   UNL     1       7.770  22.427  55.329  1.00  0.00     0.068 A 
HETATM   23  C   UNL     1       8.143  21.882  54.101  1.00  0.00     0.037 A 
HETATM   24  C   UNL     1       7.853  22.547  52.911  1.00  0.00     0.003 A 
HETATM   25  C   UNL     1       7.179  23.767  52.941  1.00  0.00     0.010 A 
BRANCH  22  26
HETATM   26  O   UNL     1       8.107  21.668  56.413  1.00  0.00    -0.356 OA
HETATM   27  C   UNL     1       8.333  20.280  56.200  1.00  0.00     0.210 C 
ENDBRANCH  22  26
ENDBRANCH  17  20
ENDBRANCH  16  17
ENDBRANCH   1  16
TORSDOF 8
ENDMDL
MODEL 6
REMARK VINA RESULT:      -8.0      2.489      6.638
REMARK  8 active torsions:
REMARK  status: ('A' for Active; 'I' for Inactive)
REMARK    1  A    between atoms: C_2  and  N_3 
REMARK    2  A    between atoms: C_2  and  C_17 
REMARK    3  A    between atoms: N_3  and  C_6 
REMARK    4  A    between atoms: C_6  and  C_7 
REMARK    5  A    between atoms: C_7  and  O_8 
REMARK    6  A    between atoms: C_7  and  C_9 
REMARK    7  A    between atoms: C_11  and  O_12 
REMARK    8  A    between atoms: C_17  and  C_18 
ROOT
HETATM    1  N   UNL     1       5.977  26.803  55.518  1.00  0.00    -0.068 N 
HETATM    2  H   UNL     1       6.733  26.392  54.929  1.00  0.00     0.277 HD
HETATM    3  H   UNL     1       5.098  26.489  55.071  1.00  0.00     0.277 HD
ENDROOT
BRANCH   1   4
HETATM    4  C   UNL     1       6.150  26.261  56.910  1.00  0.00     0.188 C 
HETATM    5  C   UNL     1       5.099  25.188  57.174  1.00  0.00     0.040 C 
BRANCH   4   6
HETATM    6  C   UNL     1       7.568  25.672  57.076  1.00  0.00     0.099 C 
BRANCH   6   7
HETATM    7  C   UNL     1       7.753  24.433  56.252  1.00  0.00     0.078 A 
HETATM    8  S   UNL     1       8.217  22.959  56.983  1.00  0.00    -0.073 SA
HETATM    9  C   UNL     1       8.163  22.180  55.449  1.00  0.00     0.035 A 
HETATM   10  C   UNL     1       7.785  23.112  54.479  1.00  0.00     0.074 A 
HETATM   11  C   UNL     1       8.435  20.841  55.128  1.00  0.00     0.021 A 
HETATM   12  N   UNL     1       7.535  24.397  54.953  1.00  0.00    -0.245 NA
HETATM   13  C   UNL     1       7.690  22.691  53.137  1.00  0.00     0.033 A 
HETATM   14  C   UNL     1       7.959  21.359  52.806  1.00  0.00     0.002 A 
HETATM   15  C   UNL     1       8.324  20.447  53.791  1.00  0.00     0.002 A 
ENDBRANCH   6   7
ENDBRANCH   4   6
ENDBRANCH   1   4
BRANCH   1  16
HETATM   16  C   UNL     1       6.042  28.293  55.327  1.00  0.00     0.269 C 
BRANCH  16  17
HETATM   17  C   UNL     1       7.429  28.654  54.750  1.00  0.00     0.177 C 
BRANCH  17  18
HETATM   18  O   UNL     1       7.940  27.470  54.115  1.00  0.00    -0.389 OA
HETATM   19  H   UNL     1       8.883  27.407  54.373  1.00  0.00     0.210 HD
ENDBRANCH  17  18
BRANCH  17  20
HETATM   20  C   UNL     1       8.387  29.156  55.809  1.00  0.00    -0.025 A 
HETATM   21  C   UNL     1       7.899  29.411  57.106  1.00  0.00     0.046 A 
HETATM   22  C   UNL     1       8.751  29.867  58.116  1.00  0.00     0.068 A 
HETATM   23  C   UNL     1      10.100  30.072  57.828  1.00  0.00     0.037 A 
HETATM   24  C   UNL     1      10.600  29.826  56.551  1.00  0.00     0.003 A 
HETATM   25  C   UNL     1       9.750  29.365  55.547  1.00  0.00     0.010 A 
BRANCH  22  26
HETATM   26  O   UNL     1       8.398  30.137  59.406  1.00  0.00    -0.356 OA
HETATM   27  C   UNL     1       7.646  31.320  59.649  1.00  0.00     0.210 C 
ENDBRANCH  22  26
ENDBRANCH  17  20
ENDBRANCH  16  17
ENDBRANCH   1  16
TORSDOF 8
ENDMDL
MODEL 7
REMARK VINA RESULT:      -7.9      1.282      2.251
REMARK  8 active torsions:
REMARK  status: ('A' for Active; 'I' for Inactive)
REMARK    1  A    between atoms: C_2  and  N_3 
REMARK    2  A    between atoms: C_2  and  C_17 
REMARK    3  A    between atoms: N_3  and  C_6 
REMARK    4  A    between atoms: C_6  and  C_7 
REMARK    5  A    between atoms: C_7  and  O_8 
REMARK    6  A    between atoms: C_7  and  C_9 
REMARK    7  A    between atoms: C_11  and  O_12 
REMARK    8  A    between atoms: C_17  and  C_18 
ROOT
HETATM    1  N   UNL     1       4.329  26.373  53.149  1.00  0.00    -0.068 N 
HETATM    2  H   UNL     1       3.655  26.127  53.905  1.00  0.00     0.277 HD
HETATM    3  H   UNL     1       3.734  26.590  52.330  1.00  0.00     0.277 HD
ENDROOT
BRANCH   1   4
HETATM    4  C   UNL     1       5.121  27.560  53.625  1.00  0.00     0.188 C 
HETATM    5  C   UNL     1       4.601  28.824  52.949  1.00  0.00     0.040 C 
BRANCH   4   6
HETATM    6  C   UNL     1       5.010  27.689  55.159  1.00  0.00     0.099 C 
BRANCH   6   7
HETATM    7  C   UNL     1       6.243  28.298  55.754  1.00  0.00     0.078 A 
HETATM    8  S   UNL     1       6.260  28.826  57.381  1.00  0.00    -0.073 SA
HETATM    9  C   UNL     1       7.905  29.302  57.210  1.00  0.00     0.035 A 
HETATM   10  C   UNL     1       8.329  29.017  55.910  1.00  0.00     0.074 A 
HETATM   11  C   UNL     1       8.759  29.886  58.160  1.00  0.00     0.021 A 
HETATM   12  N   UNL     1       7.374  28.424  55.089  1.00  0.00    -0.245 NA
HETATM   13  C   UNL     1       9.651  29.341  55.543  1.00  0.00     0.033 A 
HETATM   14  C   UNL     1      10.510  29.923  56.481  1.00  0.00     0.002 A 
HETATM   15  C   UNL     1      10.068  30.190  57.773  1.00  0.00     0.002 A 
ENDBRANCH   6   7
ENDBRANCH   4   6
ENDBRANCH   1   4
BRANCH   1  16
HETATM   16  C   UNL     1       5.077  25.113  52.810  1.00  0.00     0.269 C 
BRANCH  16  17
HETATM   17  C   UNL     1       6.590  25.427  52.802  1.00  0.00     0.177 C 
BRANCH  17  18
HETATM   18  O   UNL     1       7.040  25.285  51.445  1.00  0.00    -0.389 OA
HETATM   19  H   UNL     1       7.135  26.193  51.091  1.00  0.00     0.210 HD
ENDBRANCH  17  18
BRANCH  17  20
HETATM   20  C   UNL     1       7.375  24.526  53.730  1.00  0.00    -0.025 A 
HETATM   21  C   UNL     1       7.829  23.280  53.252  1.00  0.00     0.046 A 
HETATM   22  C   UNL     1       8.565  22.422  54.073  1.00  0.00     0.068 A 
HETATM   23  C   UNL     1       8.848  22.808  55.382  1.00  0.00     0.037 A 
HETATM   24  C   UNL     1       8.406  24.035  55.873  1.00  0.00     0.003 A 
HETATM   25  C   UNL     1       7.678  24.893  55.051  1.00  0.00     0.010 A 
BRANCH  22  26
HETATM   26  O   UNL     1       9.064  21.202  53.719  1.00  0.00    -0.356 OA
HETATM   27  C   UNL     1       8.311  20.425  52.797  1.00  0.00     0.210 C 
ENDBRANCH  22  26
ENDBRANCH  17  20
ENDBRANCH  16  17
ENDBRANCH   1  16
TORSDOF 8
ENDMDL
MODEL 8
REMARK VINA RESULT:      -7.6      4.539      8.968
REMARK  8 active torsions:
REMARK  status: ('A' for Active; 'I' for Inactive)
REMARK    1  A    between atoms: C_2  and  N_3 
REMARK    2  A    between atoms: C_2  and  C_17 
REMARK    3  A    between atoms: N_3  and  C_6 
REMARK    4  A    between atoms: C_6  and  C_7 
REMARK    5  A    between atoms: C_7  and  O_8 
REMARK    6  A    between atoms: C_7  and  C_9 
REMARK    7  A    between atoms: C_11  and  O_12 
REMARK    8  A    between atoms: C_17  and  C_18 
ROOT
HETATM    1  N   UNL     1       7.438  29.941  57.950  1.00  0.00    -0.068 N 
HETATM    2  H   UNL     1       7.310  30.816  57.398  1.00  0.00     0.277 HD
HETATM    3  H   UNL     1       6.505  29.746  58.353  1.00  0.00     0.277 HD
ENDROOT
BRANCH   1   4
HETATM    4  C   UNL     1       7.895  28.873  56.993  1.00  0.00     0.188 C 
HETATM    5  C   UNL     1       9.415  28.762  57.043  1.00  0.00     0.040 C 
BRANCH   4   6
HETATM    6  C   UNL     1       7.247  27.521  57.362  1.00  0.00     0.099 C 
BRANCH   6   7
HETATM    7  C   UNL     1       7.402  26.516  56.261  1.00  0.00     0.078 A 
HETATM    8  S   UNL     1       7.117  26.952  54.632  1.00  0.00    -0.073 SA
HETATM    9  C   UNL     1       7.517  25.355  54.133  1.00  0.00     0.035 A 
HETATM   10  C   UNL     1       7.847  24.595  55.258  1.00  0.00     0.074 A 
HETATM   11  C   UNL     1       7.537  24.813  52.838  1.00  0.00     0.021 A 
HETATM   12  N   UNL     1       7.796  25.275  56.472  1.00  0.00    -0.245 NA
HETATM   13  C   UNL     1       8.195  23.241  55.082  1.00  0.00     0.033 A 
HETATM   14  C   UNL     1       8.218  22.691  53.796  1.00  0.00     0.002 A 
HETATM   15  C   UNL     1       7.895  23.469  52.690  1.00  0.00     0.002 A 
ENDBRANCH   6   7
ENDBRANCH   4   6
ENDBRANCH   1   4
BRANCH   1  16
HETATM   16  C   UNL     1       8.337  30.286  59.105  1.00  0.00     0.269 C 
BRANCH  16  17
HETATM   17  C   UNL     1       8.295  31.815  59.321  1.00  0.00     0.177 C 
BRANCH  17  18
HETATM   18  O   UNL     1       9.609  32.317  59.027  1.00  0.00    -0.389 OA
HETATM   19  H   UNL     1      10.238  31.624  59.319  1.00  0.00     0.210 HD
ENDBRANCH  17  18
BRANCH  17  20
HETATM   20  C   UNL     1       7.873  32.192  60.725  1.00  0.00    -0.025 A 
HETATM   21  C   UNL     1       6.599  32.761  60.927  1.00  0.00     0.046 A 
HETATM   22  C   UNL     1       6.168  33.115  62.208  1.00  0.00     0.068 A 
HETATM   23  C   UNL     1       7.014  32.903  63.296  1.00  0.00     0.037 A 
HETATM   24  C   UNL     1       8.278  32.344  63.114  1.00  0.00     0.003 A 
HETATM   25  C   UNL     1       8.704  31.984  61.837  1.00  0.00     0.010 A 
BRANCH  22  26
HETATM   26  O   UNL     1       4.958  33.660  62.527  1.00  0.00    -0.356 OA
HETATM   27  C   UNL     1       4.599  33.707  63.903  1.00  0.00     0.210 C 
ENDBRANCH  22  26
ENDBRANCH  17  20
ENDBRANCH  16  17
ENDBRANCH   1  16
TORSDOF 8
ENDMDL
MODEL 9
REMARK VINA RESULT:      -7.5      2.947      6.547
REMARK  8 active torsions:
REMARK  status: ('A' for Active; 'I' for Inactive)
REMARK    1  A    between atoms: C_2  and  N_3 
REMARK    2  A    between atoms: C_2  and  C_17 
REMARK    3  A    between atoms: N_3  and  C_6 
REMARK    4  A    between atoms: C_6  and  C_7 
REMARK    5  A    between atoms: C_7  and  O_8 
REMARK    6  A    between atoms: C_7  and  C_9 
REMARK    7  A    between atoms: C_11  and  O_12 
REMARK    8  A    between atoms: C_17  and  C_18 
ROOT
HETATM    1  N   UNL     1       6.807  27.017  55.511  1.00  0.00    -0.068 N 
HETATM    2  H   UNL     1       7.767  27.008  55.105  1.00  0.00     0.277 HD
HETATM    3  H   UNL     1       6.250  26.415  54.880  1.00  0.00     0.277 HD
ENDROOT
BRANCH   1   4
HETATM    4  C   UNL     1       6.906  26.466  56.907  1.00  0.00     0.188 C 
HETATM    5  C   UNL     1       5.697  25.582  57.193  1.00  0.00     0.040 C 
BRANCH   4   6
HETATM    6  C   UNL     1       8.211  25.654  57.063  1.00  0.00     0.099 C 
BRANCH   6   7
HETATM    7  C   UNL     1       8.186  24.403  56.239  1.00  0.00     0.078 A 
HETATM    8  S   UNL     1       8.318  22.867  56.979  1.00  0.00    -0.073 SA
HETATM    9  C   UNL     1       8.182  22.112  55.438  1.00  0.00     0.035 A 
HETATM   10  C   UNL     1       8.040  23.098  54.459  1.00  0.00     0.074 A 
HETATM   11  C   UNL     1       8.201  20.745  55.119  1.00  0.00     0.021 A 
HETATM   12  N   UNL     1       8.025  24.408  54.931  1.00  0.00    -0.245 NA
HETATM   13  C   UNL     1       7.926  22.702  53.111  1.00  0.00     0.033 A 
HETATM   14  C   UNL     1       7.943  21.343  52.782  1.00  0.00     0.002 A 
HETATM   15  C   UNL     1       8.076  20.378  53.776  1.00  0.00     0.002 A 
ENDBRANCH   6   7
ENDBRANCH   4   6
ENDBRANCH   1   4
BRANCH   1  16
HETATM   16  C   UNL     1       6.279  28.415  55.340  1.00  0.00     0.269 C 
BRANCH  16  17
HETATM   17  C   UNL     1       4.948  28.346  54.558  1.00  0.00     0.177 C 
BRANCH  17  18
HETATM   18  O   UNL     1       3.940  27.910  55.485  1.00  0.00    -0.389 OA
HETATM   19  H   UNL     1       3.142  28.444  55.292  1.00  0.00     0.210 HD
ENDBRANCH  17  18
BRANCH  17  20
HETATM   20  C   UNL     1       5.023  27.417  53.365  1.00  0.00    -0.025 A 
HETATM   21  C   UNL     1       5.153  27.971  52.075  1.00  0.00     0.046 A 
HETATM   22  C   UNL     1       5.234  27.149  50.948  1.00  0.00     0.068 A 
HETATM   23  C   UNL     1       5.183  25.765  51.108  1.00  0.00     0.037 A 
HETATM   24  C   UNL     1       5.052  25.200  52.375  1.00  0.00     0.003 A 
HETATM   25  C   UNL     1       4.979  26.021  53.500  1.00  0.00     0.010 A 
BRANCH  22  26
HETATM   26  O   UNL     1       5.371  27.567  49.656  1.00  0.00    -0.356 OA
HETATM   27  C   UNL     1       4.464  28.555  49.183  1.00  0.00     0.210 C 
ENDBRANCH  22  26
ENDBRANCH  17  20
ENDBRANCH  16  17
ENDBRANCH   1  16
TORSDOF 8
ENDMDL
MODEL 10
REMARK VINA RESULT:      -7.4      3.618      6.504
REMARK  8 active torsions:
REMARK  status: ('A' for Active; 'I' for Inactive)
REMARK    1  A    between atoms: C_2  and  N_3 
REMARK    2  A    between atoms: C_2  and  C_17 
REMARK    3  A    between atoms: N_3  and  C_6 
REMARK    4  A    between atoms: C_6  and  C_7 
REMARK    5  A    between atoms: C_7  and  O_8 
REMARK    6  A    between atoms: C_7  and  C_9 
REMARK    7  A    between atoms: C_11  and  O_12 
REMARK    8  A    between atoms: C_17  and  C_18 
ROOT
HETATM    1  N   UNL     1       6.095  26.441  53.910  1.00  0.00    -0.068 N 
HETATM    2  H   UNL     1       6.999  26.831  53.569  1.00  0.00     0.277 HD
HETATM    3  H   UNL     1       6.072  26.678  54.917  1.00  0.00     0.277 HD
ENDROOT
BRANCH   1   4
HETATM    4  C   UNL     1       4.997  27.109  53.128  1.00  0.00     0.188 C 
HETATM    5  C   UNL     1       4.333  28.175  53.993  1.00  0.00     0.040 C 
BRANCH   4   6
HETATM    6  C   UNL     1       5.573  27.745  51.844  1.00  0.00     0.099 C 
BRANCH   6   7
HETATM    7  C   UNL     1       4.674  27.524  50.666  1.00  0.00     0.078 A 
HETATM    8  S   UNL     1       3.480  28.675  50.250  1.00  0.00    -0.073 SA
HETATM    9  C   UNL     1       3.008  27.703  48.911  1.00  0.00     0.035 A 
HETATM   10  C   UNL     1       3.807  26.558  48.875  1.00  0.00     0.074 A 
HETATM   11  C   UNL     1       2.002  27.937  47.960  1.00  0.00     0.021 A 
HETATM   12  N   UNL     1       4.772  26.474  49.875  1.00  0.00    -0.245 NA
HETATM   13  C   UNL     1       3.582  25.607  47.860  1.00  0.00     0.033 A 
HETATM   14  C   UNL     1       2.582  25.830  46.908  1.00  0.00     0.002 A 
HETATM   15  C   UNL     1       1.805  26.983  46.958  1.00  0.00     0.002 A 
ENDBRANCH   6   7
ENDBRANCH   4   6
ENDBRANCH   1   4
BRANCH   1  16
HETATM   16  C   UNL     1       6.211  24.944  53.827  1.00  0.00     0.269 C 
BRANCH  16  17
HETATM   17  C   UNL     1       7.707  24.572  53.732  1.00  0.00     0.177 C 
BRANCH  17  18
HETATM   18  O   UNL     1       8.170  25.021  52.447  1.00  0.00    -0.389 OA
HETATM   19  H   UNL     1       7.651  24.524  51.781  1.00  0.00     0.210 HD
ENDBRANCH  17  18
BRANCH  17  20
HETATM   20  C   UNL     1       7.949  23.088  53.905  1.00  0.00    -0.025 A 
HETATM   21  C   UNL     1       8.272  22.592  55.184  1.00  0.00     0.046 A 
HETATM   22  C   UNL     1       8.494  21.228  55.389  1.00  0.00     0.068 A 
HETATM   23  C   UNL     1       8.396  20.351  54.309  1.00  0.00     0.037 A 
HETATM   24  C   UNL     1       8.079  20.824  53.037  1.00  0.00     0.003 A 
HETATM   25  C   UNL     1       7.850  22.184  52.835  1.00  0.00     0.010 A 
BRANCH  22  26
HETATM   26  O   UNL     1       8.802  20.632  56.578  1.00  0.00    -0.356 OA
HETATM   27  C   UNL     1       8.414  21.303  57.770  1.00  0.00     0.210 C 
ENDBRANCH  22  26
ENDBRANCH  17  20
ENDBRANCH  16  17
ENDBRANCH   1  16
TORSDOF 8
ENDMDL
