MODEL 1
REMARK VINA RESULT:      -7.7      0.000      0.000
REMARK  3 active torsions:
REMARK  status: ('A' for Active; 'I' for Inactive)
REMARK    1  A    between atoms: C_8  and  N_9 
REMARK       I    between atoms: N_9  and  C_10 
REMARK       I    between atoms: C_10  and  N_11 
REMARK    2  A    between atoms: N_11  and  C_12 
REMARK    3  A    between atoms: C_13  and  O_14 
ROOT
HETATM    1  N   UNL     1       5.750  26.830  50.819  1.00  0.00    -0.305 N 
HETATM    2  C   UNL     1       5.806  25.746  51.675  1.00  0.00     0.325 C 
HETATM    3  N   UNL     1       7.121  25.384  51.898  1.00  0.00    -0.306 N 
HETATM    4  O   UNL     1       4.836  25.191  52.174  1.00  0.00    -0.247 OA
HETATM    5  H   UNL     1       6.523  27.475  50.891  1.00  0.00     0.171 HD
HETATM    6  H   UNL     1       7.773  25.581  51.148  1.00  0.00     0.171 HD
ENDROOT
BRANCH   1   7
HETATM    7  C   UNL     1       4.599  27.307  50.216  1.00  0.00     0.086 A 
HETATM    8  C   UNL     1       3.745  28.204  50.829  1.00  0.00     0.052 A 
HETATM    9  C   UNL     1       3.741  28.837  52.167  1.00  0.00     0.072 C 
HETATM   10  N   UNL     1       2.750  28.441  49.923  1.00  0.00    -0.280 N 
HETATM   11  H   UNL     1       1.935  29.035  50.029  1.00  0.00     0.189 HD
HETATM   12  N   UNL     1       2.907  27.799  48.762  1.00  0.00    -0.177 NA
HETATM   13  C   UNL     1       4.039  27.099  48.923  1.00  0.00     0.079 A 
HETATM   14  C   UNL     1       4.557  26.307  47.777  1.00  0.00     0.075 C 
ENDBRANCH   1   7
BRANCH   3  15
HETATM   15  C   UNL     1       7.594  24.452  52.849  1.00  0.00     0.071 A 
HETATM   16  C   UNL     1       7.805  24.919  54.161  1.00  0.00     0.095 A 
HETATM   17  C   UNL     1       8.218  24.036  55.162  1.00  0.00     0.040 A 
HETATM   18  C   UNL     1       8.446  22.693  54.854  1.00  0.00     0.022 A 
HETATM   19  C   UNL     1       8.252  22.239  53.550  1.00  0.00     0.013 A 
HETATM   20 BR   UNL     1       8.549  20.414  53.148  1.00  0.00    -0.051 Br
HETATM   21  C   UNL     1       7.826  23.108  52.547  1.00  0.00     0.051 A 
BRANCH  16  22
HETATM   22  O   UNL     1       7.556  26.254  54.384  1.00  0.00    -0.354 OA
HETATM   23  C   UNL     1       6.537  26.503  55.350  1.00  0.00     0.210 C 
ENDBRANCH  16  22
ENDBRANCH   3  15
TORSDOF 3
ENDMDL
MODEL 2
REMARK VINA RESULT:      -7.6      0.257      1.831
REMARK  3 active torsions:
REMARK  status: ('A' for Active; 'I' for Inactive)
REMARK    1  A    between atoms: C_8  and  N_9 
REMARK       I    between atoms: N_9  and  C_10 
REMARK       I    between atoms: C_10  and  N_11 
REMARK    2  A    between atoms: N_11  and  C_12 
REMARK    3  A    between atoms: C_13  and  O_14 
ROOT
HETATM    1  N   UNL     1       5.737  27.038  50.715  1.00  0.00    -0.305 N 
HETATM    2  C   UNL     1       5.752  25.980  51.605  1.00  0.00     0.325 C 
HETATM    3  N   UNL     1       7.046  25.529  51.785  1.00  0.00    -0.306 N 
HETATM    4  O   UNL     1       4.767  25.515  52.164  1.00  0.00    -0.247 OA
HETATM    5  H   UNL     1       6.556  27.625  50.731  1.00  0.00     0.171 HD
HETATM    6  H   UNL     1       7.676  25.654  51.002  1.00  0.00     0.171 HD
ENDROOT
BRANCH   1   7
HETATM    7  C   UNL     1       4.598  27.580  50.146  1.00  0.00     0.086 A 
HETATM    8  C   UNL     1       4.179  27.277  48.864  1.00  0.00     0.052 A 
HETATM    9  C   UNL     1       4.747  26.426  47.795  1.00  0.00     0.072 C 
HETATM   10  N   UNL     1       3.026  27.986  48.677  1.00  0.00    -0.280 N 
HETATM   11  H   UNL     1       2.444  28.027  47.847  1.00  0.00     0.189 HD
HETATM   12  N   UNL     1       2.645  28.697  49.743  1.00  0.00    -0.177 NA
HETATM   13  C   UNL     1       3.598  28.458  50.656  1.00  0.00     0.079 A 
HETATM   14  C   UNL     1       3.451  29.049  52.011  1.00  0.00     0.075 C 
ENDBRANCH   1   7
BRANCH   3  15
HETATM   15  C   UNL     1       7.492  24.595  52.747  1.00  0.00     0.071 A 
HETATM   16  C   UNL     1       7.717  25.072  54.053  1.00  0.00     0.095 A 
HETATM   17  C   UNL     1       8.104  24.190  55.065  1.00  0.00     0.040 A 
HETATM   18  C   UNL     1       8.293  22.837  54.774  1.00  0.00     0.022 A 
HETATM   19  C   UNL     1       8.086  22.372  53.476  1.00  0.00     0.013 A 
HETATM   20 BR   UNL     1       8.329  20.535  53.096  1.00  0.00    -0.051 Br
HETATM   21  C   UNL     1       7.684  23.241  52.462  1.00  0.00     0.051 A 
BRANCH  16  22
HETATM   22  O   UNL     1       7.507  26.416  54.261  1.00  0.00    -0.354 OA
HETATM   23  C   UNL     1       6.579  26.708  55.303  1.00  0.00     0.210 C 
ENDBRANCH  16  22
ENDBRANCH   3  15
TORSDOF 3
ENDMDL
MODEL 3
REMARK VINA RESULT:      -7.4      8.481     10.852
REMARK  3 active torsions:
REMARK  status: ('A' for Active; 'I' for Inactive)
REMARK    1  A    between atoms: C_8  and  N_9 
REMARK       I    between atoms: N_9  and  C_10 
REMARK       I    between atoms: C_10  and  N_11 
REMARK    2  A    between atoms: N_11  and  C_12 
REMARK    3  A    between atoms: C_13  and  O_14 
ROOT
HETATM    1  N   UNL     1       8.022  29.778  58.504  1.00  0.00    -0.305 N 
HETATM    2  C   UNL     1       8.018  30.974  59.197  1.00  0.00     0.325 C 
HETATM    3  N   UNL     1       7.252  30.858  60.342  1.00  0.00    -0.306 N 
HETATM    4  O   UNL     1       8.612  31.989  58.856  1.00  0.00    -0.247 OA
HETATM    5  H   UNL     1       7.962  28.950  59.077  1.00  0.00     0.171 HD
HETATM    6  H   UNL     1       6.490  30.191  60.304  1.00  0.00     0.171 HD
ENDROOT
BRANCH   1   7
HETATM    7  C   UNL     1       8.503  29.607  57.218  1.00  0.00     0.086 A 
HETATM    8  C   UNL     1       7.683  29.355  56.135  1.00  0.00     0.052 A 
HETATM    9  C   UNL     1       6.221  29.162  56.003  1.00  0.00     0.072 C 
HETATM   10  N   UNL     1       8.515  29.266  55.055  1.00  0.00    -0.280 N 
HETATM   11  H   UNL     1       8.272  29.072  54.090  1.00  0.00     0.189 HD
HETATM   12  N   UNL     1       9.804  29.474  55.344  1.00  0.00    -0.177 NA
HETATM   13  C   UNL     1       9.815  29.687  56.668  1.00  0.00     0.079 A 
HETATM   14  C   UNL     1      11.104  30.024  57.325  1.00  0.00     0.075 C 
ENDBRANCH   1   7
BRANCH   3  15
HETATM   15  C   UNL     1       7.154  31.794  61.395  1.00  0.00     0.071 A 
HETATM   16  C   UNL     1       7.855  31.507  62.582  1.00  0.00     0.095 A 
HETATM   17  C   UNL     1       7.846  32.419  63.640  1.00  0.00     0.040 A 
HETATM   18  C   UNL     1       7.118  33.606  63.530  1.00  0.00     0.022 A 
HETATM   19  C   UNL     1       6.411  33.878  62.359  1.00  0.00     0.013 A 
HETATM   20 BR   UNL     1       5.442  35.496  62.214  1.00  0.00    -0.051 Br
HETATM   21  C   UNL     1       6.426  32.982  61.291  1.00  0.00     0.051 A 
BRANCH  16  22
HETATM   22  O   UNL     1       8.550  30.320  62.612  1.00  0.00    -0.354 OA
HETATM   23  C   UNL     1       9.899  30.421  62.159  1.00  0.00     0.210 C 
ENDBRANCH  16  22
ENDBRANCH   3  15
TORSDOF 3
ENDMDL
MODEL 4
REMARK VINA RESULT:      -7.2      3.535      5.415
REMARK  3 active torsions:
REMARK  status: ('A' for Active; 'I' for Inactive)
REMARK    1  A    between atoms: C_8  and  N_9 
REMARK       I    between atoms: N_9  and  C_10 
REMARK       I    between atoms: C_10  and  N_11 
REMARK    2  A    between atoms: N_11  and  C_12 
REMARK    3  A    between atoms: C_13  and  O_14 
ROOT
HETATM    1  N   UNL     1       7.156  27.693  56.101  1.00  0.00    -0.305 N 
HETATM    2  C   UNL     1       6.765  26.405  55.786  1.00  0.00     0.325 C 
HETATM    3  N   UNL     1       7.687  25.822  54.937  1.00  0.00    -0.306 N 
HETATM    4  O   UNL     1       5.755  25.852  56.204  1.00  0.00    -0.247 OA
HETATM    5  H   UNL     1       8.153  27.841  56.142  1.00  0.00     0.171 HD
HETATM    6  H   UNL     1       8.196  26.454  54.329  1.00  0.00     0.171 HD
ENDROOT
BRANCH   1   7
HETATM    7  C   UNL     1       6.364  28.628  56.744  1.00  0.00     0.086 A 
HETATM    8  C   UNL     1       6.812  29.395  57.803  1.00  0.00     0.052 A 
HETATM    9  C   UNL     1       8.096  29.441  58.539  1.00  0.00     0.072 C 
HETATM   10  N   UNL     1       5.761  30.196  58.148  1.00  0.00    -0.280 N 
HETATM   11  H   UNL     1       5.714  30.880  58.895  1.00  0.00     0.189 HD
HETATM   12  N   UNL     1       4.680  30.036  57.378  1.00  0.00    -0.177 NA
HETATM   13  C   UNL     1       5.032  29.078  56.509  1.00  0.00     0.079 A 
HETATM   14  C   UNL     1       4.071  28.692  55.444  1.00  0.00     0.075 C 
ENDBRANCH   1   7
BRANCH   3  15
HETATM   15  C   UNL     1       7.738  24.467  54.541  1.00  0.00     0.071 A 
HETATM   16  C   UNL     1       7.762  24.198  53.159  1.00  0.00     0.095 A 
HETATM   17  C   UNL     1       7.870  22.883  52.702  1.00  0.00     0.040 A 
HETATM   18  C   UNL     1       7.926  21.831  53.618  1.00  0.00     0.022 A 
HETATM   19  C   UNL     1       7.885  22.100  54.986  1.00  0.00     0.013 A 
HETATM   20 BR   UNL     1       7.978  20.668  56.218  1.00  0.00    -0.051 Br
HETATM   21  C   UNL     1       7.793  23.410  55.453  1.00  0.00     0.051 A 
BRANCH  16  22
HETATM   22  O   UNL     1       7.705  25.289  52.321  1.00  0.00    -0.354 OA
HETATM   23  C   UNL     1       6.416  25.528  51.760  1.00  0.00     0.210 C 
ENDBRANCH  16  22
ENDBRANCH   3  15
TORSDOF 3
ENDMDL
MODEL 5
REMARK VINA RESULT:      -7.2      3.753      6.126
REMARK  3 active torsions:
REMARK  status: ('A' for Active; 'I' for Inactive)
REMARK    1  A    between atoms: C_8  and  N_9 
REMARK       I    between atoms: N_9  and  C_10 
REMARK       I    between atoms: C_10  and  N_11 
REMARK    2  A    between atoms: N_11  and  C_12 
REMARK    3  A    between atoms: C_13  and  O_14 
ROOT
HETATM    1  N   UNL     1       7.345  28.128  55.882  1.00  0.00    -0.305 N 
HETATM    2  C   UNL     1       7.652  26.783  55.976  1.00  0.00     0.325 C 
HETATM    3  N   UNL     1       7.177  26.109  54.866  1.00  0.00    -0.306 N 
HETATM    4  O   UNL     1       8.264  26.262  56.899  1.00  0.00    -0.247 OA
HETATM    5  H   UNL     1       7.326  28.500  54.945  1.00  0.00     0.171 HD
HETATM    6  H   UNL     1       6.354  26.501  54.424  1.00  0.00     0.171 HD
ENDROOT
BRANCH   1   7
HETATM    7  C   UNL     1       7.477  29.046  56.910  1.00  0.00     0.086 A 
HETATM    8  C   UNL     1       6.398  29.560  57.603  1.00  0.00     0.052 A 
HETATM    9  C   UNL     1       4.935  29.369  57.474  1.00  0.00     0.072 C 
HETATM   10  N   UNL     1       6.929  30.407  58.535  1.00  0.00    -0.280 N 
HETATM   11  H   UNL     1       6.438  30.978  59.214  1.00  0.00     0.189 HD
HETATM   12  N   UNL     1       8.264  30.458  58.525  1.00  0.00    -0.177 NA
HETATM   13  C   UNL     1       8.619  29.627  57.534  1.00  0.00     0.079 A 
HETATM   14  C   UNL     1      10.064  29.388  57.286  1.00  0.00     0.075 C 
ENDBRANCH   1   7
BRANCH   3  15
HETATM   15  C   UNL     1       7.449  24.771  54.507  1.00  0.00     0.071 A 
HETATM   16  C   UNL     1       7.647  24.496  53.140  1.00  0.00     0.095 A 
HETATM   17  C   UNL     1       7.976  23.204  52.724  1.00  0.00     0.040 A 
HETATM   18  C   UNL     1       8.082  22.177  53.665  1.00  0.00     0.022 A 
HETATM   19  C   UNL     1       7.868  22.449  55.015  1.00  0.00     0.013 A 
HETATM   20 BR   UNL     1       8.030  21.053  56.282  1.00  0.00    -0.051 Br
HETATM   21  C   UNL     1       7.554  23.738  55.443  1.00  0.00     0.051 A 
BRANCH  16  22
HETATM   22  O   UNL     1       7.528  25.562  52.278  1.00  0.00    -0.354 OA
HETATM   23  C   UNL     1       6.274  25.630  51.603  1.00  0.00     0.210 C 
ENDBRANCH  16  22
ENDBRANCH   3  15
TORSDOF 3
ENDMDL
MODEL 6
REMARK VINA RESULT:      -7.2      3.213      7.028
REMARK  3 active torsions:
REMARK  status: ('A' for Active; 'I' for Inactive)
REMARK    1  A    between atoms: C_8  and  N_9 
REMARK       I    between atoms: N_9  and  C_10 
REMARK       I    between atoms: C_10  and  N_11 
REMARK    2  A    between atoms: N_11  and  C_12 
REMARK    3  A    between atoms: C_13  and  O_14 
ROOT
HETATM    1  N   UNL     1       8.226  23.419  53.671  1.00  0.00    -0.305 N 
HETATM    2  C   UNL     1       7.145  24.271  53.537  1.00  0.00     0.325 C 
HETATM    3  N   UNL     1       7.461  25.308  52.679  1.00  0.00    -0.306 N 
HETATM    4  O   UNL     1       6.060  24.126  54.086  1.00  0.00    -0.247 OA
HETATM    5  H   UNL     1       8.811  23.335  52.854  1.00  0.00     0.171 HD
HETATM    6  H   UNL     1       8.437  25.578  52.645  1.00  0.00     0.171 HD
ENDROOT
BRANCH   1   7
HETATM    7  C   UNL     1       8.329  22.411  54.614  1.00  0.00     0.086 A 
HETATM    8  C   UNL     1       8.374  21.071  54.281  1.00  0.00     0.052 A 
HETATM    9  C   UNL     1       8.293  20.351  52.990  1.00  0.00     0.072 C 
HETATM   10  N   UNL     1       8.492  20.401  55.466  1.00  0.00    -0.280 N 
HETATM   11  H   UNL     1       8.537  19.399  55.618  1.00  0.00     0.189 HD
HETATM   12  N   UNL     1       8.561  21.198  56.537  1.00  0.00    -0.177 NA
HETATM   13  C   UNL     1       8.464  22.437  56.032  1.00  0.00     0.079 A 
HETATM   14  C   UNL     1       8.575  23.595  56.957  1.00  0.00     0.075 C 
ENDBRANCH   1   7
BRANCH   3  15
HETATM   15  C   UNL     1       6.573  26.269  52.148  1.00  0.00     0.071 A 
HETATM   16  C   UNL     1       6.498  27.512  52.805  1.00  0.00     0.095 A 
HETATM   17  C   UNL     1       5.682  28.527  52.298  1.00  0.00     0.040 A 
HETATM   18  C   UNL     1       4.919  28.297  51.151  1.00  0.00     0.022 A 
HETATM   19  C   UNL     1       4.982  27.059  50.513  1.00  0.00     0.013 A 
HETATM   20 BR   UNL     1       3.956  26.764  48.951  1.00  0.00    -0.051 Br
HETATM   21  C   UNL     1       5.805  26.045  51.002  1.00  0.00     0.051 A 
BRANCH  16  22
HETATM   22  O   UNL     1       7.282  27.662  53.926  1.00  0.00    -0.354 OA
HETATM   23  C   UNL     1       6.547  27.828  55.136  1.00  0.00     0.210 C 
ENDBRANCH  16  22
ENDBRANCH   3  15
TORSDOF 3
ENDMDL
MODEL 7
REMARK VINA RESULT:      -7.1     11.930     14.345
REMARK  3 active torsions:
REMARK  status: ('A' for Active; 'I' for Inactive)
REMARK    1  A    between atoms: C_8  and  N_9 
REMARK       I    between atoms: N_9  and  C_10 
REMARK       I    between atoms: C_10  and  N_11 
REMARK    2  A    between atoms: N_11  and  C_12 
REMARK    3  A    between atoms: C_13  and  O_14 
ROOT
HETATM    1  N   UNL     1       6.511  31.669  62.107  1.00  0.00    -0.305 N 
HETATM    2  C   UNL     1       6.307  32.830  62.831  1.00  0.00     0.325 C 
HETATM    3  N   UNL     1       5.363  32.614  63.818  1.00  0.00    -0.306 N 
HETATM    4  O   UNL     1       6.883  33.892  62.638  1.00  0.00    -0.247 OA
HETATM    5  H   UNL     1       6.406  30.813  62.629  1.00  0.00     0.171 HD
HETATM    6  H   UNL     1       4.665  31.906  63.622  1.00  0.00     0.171 HD
ENDROOT
BRANCH   1   7
HETATM    7  C   UNL     1       7.217  31.589  60.920  1.00  0.00     0.086 A 
HETATM    8  C   UNL     1       8.468  31.009  60.825  1.00  0.00     0.052 A 
HETATM    9  C   UNL     1       9.373  30.402  61.827  1.00  0.00     0.072 C 
HETATM   10  N   UNL     1       8.821  31.108  59.509  1.00  0.00    -0.280 N 
HETATM   11  H   UNL     1       9.682  30.805  59.067  1.00  0.00     0.189 HD
HETATM   12  N   UNL     1       7.887  31.673  58.737  1.00  0.00    -0.177 NA
HETATM   13  C   UNL     1       6.894  31.973  59.586  1.00  0.00     0.079 A 
HETATM   14  C   UNL     1       5.645  32.565  59.042  1.00  0.00     0.075 C 
ENDBRANCH   1   7
BRANCH   3  15
HETATM   15  C   UNL     1       5.022  33.492  64.871  1.00  0.00     0.071 A 
HETATM   16  C   UNL     1       3.772  34.137  64.794  1.00  0.00     0.095 A 
HETATM   17  C   UNL     1       3.350  34.974  65.830  1.00  0.00     0.040 A 
HETATM   18  C   UNL     1       4.180  35.191  66.931  1.00  0.00     0.022 A 
HETATM   19  C   UNL     1       5.424  34.564  66.995  1.00  0.00     0.013 A 
HETATM   20 BR   UNL     1       6.534  34.852  68.500  1.00  0.00    -0.051 Br
HETATM   21  C   UNL     1       5.849  33.714  65.974  1.00  0.00     0.051 A 
BRANCH  16  22
HETATM   22  O   UNL     1       3.012  33.869  63.679  1.00  0.00    -0.354 OA
HETATM   23  C   UNL     1       2.818  34.992  62.821  1.00  0.00     0.210 C 
ENDBRANCH  16  22
ENDBRANCH   3  15
TORSDOF 3
ENDMDL
MODEL 8
REMARK VINA RESULT:      -7.1      1.889      2.194
REMARK  3 active torsions:
REMARK  status: ('A' for Active; 'I' for Inactive)
REMARK    1  A    between atoms: C_8  and  N_9 
REMARK       I    between atoms: N_9  and  C_10 
REMARK       I    between atoms: C_10  and  N_11 
REMARK    2  A    between atoms: N_11  and  C_12 
REMARK    3  A    between atoms: C_13  and  O_14 
ROOT
HETATM    1  N   UNL     1       4.315  26.458  50.780  1.00  0.00    -0.305 N 
HETATM    2  C   UNL     1       5.372  25.971  51.527  1.00  0.00     0.325 C 
HETATM    3  N   UNL     1       5.022  25.910  52.862  1.00  0.00    -0.306 N 
HETATM    4  O   UNL     1       6.458  25.632  51.074  1.00  0.00    -0.247 OA
HETATM    5  H   UNL     1       3.398  26.220  51.127  1.00  0.00     0.171 HD
HETATM    6  H   UNL     1       4.335  26.586  53.176  1.00  0.00     0.171 HD
ENDROOT
BRANCH   1   7
HETATM    7  C   UNL     1       4.393  26.851  49.455  1.00  0.00     0.086 A 
HETATM    8  C   UNL     1       5.040  28.002  49.048  1.00  0.00     0.052 A 
HETATM    9  C   UNL     1       5.735  29.081  49.787  1.00  0.00     0.072 C 
HETATM   10  N   UNL     1       4.915  28.033  47.688  1.00  0.00    -0.280 N 
HETATM   11  H   UNL     1       5.251  28.741  47.044  1.00  0.00     0.189 HD
HETATM   12  N   UNL     1       4.269  26.980  47.177  1.00  0.00    -0.177 NA
HETATM   13  C   UNL     1       3.942  26.242  48.248  1.00  0.00     0.079 A 
HETATM   14  C   UNL     1       3.261  24.939  48.036  1.00  0.00     0.075 C 
ENDBRANCH   1   7
BRANCH   3  15
HETATM   15  C   UNL     1       5.756  25.300  53.904  1.00  0.00     0.071 A 
HETATM   16  C   UNL     1       5.766  25.950  55.153  1.00  0.00     0.095 A 
HETATM   17  C   UNL     1       6.425  25.371  56.240  1.00  0.00     0.040 A 
HETATM   18  C   UNL     1       7.098  24.158  56.080  1.00  0.00     0.022 A 
HETATM   19  C   UNL     1       7.100  23.526  54.837  1.00  0.00     0.013 A 
HETATM   20 BR   UNL     1       8.001  21.875  54.635  1.00  0.00    -0.051 Br
HETATM   21  C   UNL     1       6.432  24.087  53.749  1.00  0.00     0.051 A 
BRANCH  16  22
HETATM   22  O   UNL     1       5.077  27.139  55.231  1.00  0.00    -0.354 OA
HETATM   23  C   UNL     1       5.209  27.809  56.483  1.00  0.00     0.210 C 
ENDBRANCH  16  22
ENDBRANCH   3  15
TORSDOF 3
ENDMDL
MODEL 9
REMARK VINA RESULT:      -7.0      1.280      1.572
REMARK  3 active torsions:
REMARK  status: ('A' for Active; 'I' for Inactive)
REMARK    1  A    between atoms: C_8  and  N_9 
REMARK       I    between atoms: N_9  and  C_10 
REMARK       I    between atoms: C_10  and  N_11 
REMARK    2  A    between atoms: N_11  and  C_12 
REMARK    3  A    between atoms: C_13  and  O_14 
ROOT
HETATM    1  N   UNL     1       5.858  27.289  52.583  1.00  0.00    -0.305 N 
HETATM    2  C   UNL     1       5.883  25.965  52.978  1.00  0.00     0.325 C 
HETATM    3  N   UNL     1       7.172  25.591  53.307  1.00  0.00    -0.306 N 
HETATM    4  O   UNL     1       4.906  25.229  53.041  1.00  0.00    -0.247 OA
HETATM    5  H   UNL     1       6.535  27.885  53.034  1.00  0.00     0.171 HD
HETATM    6  H   UNL     1       7.917  26.080  52.824  1.00  0.00     0.171 HD
ENDROOT
BRANCH   1   7
HETATM    7  C   UNL     1       4.781  27.918  51.983  1.00  0.00     0.086 A 
HETATM    8  C   UNL     1       3.942  28.784  52.658  1.00  0.00     0.052 A 
HETATM    9  C   UNL     1       3.887  29.237  54.066  1.00  0.00     0.072 C 
HETATM   10  N   UNL     1       3.027  29.204  51.735  1.00  0.00    -0.280 N 
HETATM   11  H   UNL     1       2.244  29.834  51.872  1.00  0.00     0.189 HD
HETATM   12  N   UNL     1       3.223  28.709  50.509  1.00  0.00    -0.177 NA
HETATM   13  C   UNL     1       4.298  27.918  50.642  1.00  0.00     0.079 A 
HETATM   14  C   UNL     1       4.844  27.248  49.433  1.00  0.00     0.075 C 
ENDBRANCH   1   7
BRANCH   3  15
HETATM   15  C   UNL     1       7.574  24.387  53.926  1.00  0.00     0.071 A 
HETATM   16  C   UNL     1       7.755  24.407  55.323  1.00  0.00     0.095 A 
HETATM   17  C   UNL     1       8.096  23.236  56.004  1.00  0.00     0.040 A 
HETATM   18  C   UNL     1       8.284  22.049  55.294  1.00  0.00     0.022 A 
HETATM   19  C   UNL     1       8.121  22.036  53.909  1.00  0.00     0.013 A 
HETATM   20 BR   UNL     1       8.362  20.418  52.959  1.00  0.00    -0.051 Br
HETATM   21  C   UNL     1       7.765  23.196  53.221  1.00  0.00     0.051 A 
BRANCH  16  22
HETATM   22  O   UNL     1       7.548  25.615  55.950  1.00  0.00    -0.354 OA
HETATM   23  C   UNL     1       8.233  25.752  57.193  1.00  0.00     0.210 C 
ENDBRANCH  16  22
ENDBRANCH   3  15
TORSDOF 3
ENDMDL
MODEL 10
REMARK VINA RESULT:      -7.0      3.297      4.926
REMARK  3 active torsions:
REMARK  status: ('A' for Active; 'I' for Inactive)
REMARK    1  A    between atoms: C_8  and  N_9 
REMARK       I    between atoms: N_9  and  C_10 
REMARK       I    between atoms: C_10  and  N_11 
REMARK    2  A    between atoms: N_11  and  C_12 
REMARK    3  A    between atoms: C_13  and  O_14 
ROOT
HETATM    1  N   UNL     1       5.454  27.198  55.359  1.00  0.00    -0.305 N 
HETATM    2  C   UNL     1       6.497  26.324  55.113  1.00  0.00     0.325 C 
HETATM    3  N   UNL     1       6.037  25.021  55.125  1.00  0.00    -0.306 N 
HETATM    4  O   UNL     1       7.657  26.653  54.903  1.00  0.00    -0.247 OA
HETATM    5  H   UNL     1       4.553  26.900  55.017  1.00  0.00     0.171 HD
HETATM    6  H   UNL     1       5.234  24.835  55.715  1.00  0.00     0.171 HD
ENDROOT
BRANCH   1   7
HETATM    7  C   UNL     1       5.596  28.547  55.633  1.00  0.00     0.086 A 
HETATM    8  C   UNL     1       4.948  29.534  54.915  1.00  0.00     0.052 A 
HETATM    9  C   UNL     1       4.043  29.497  53.744  1.00  0.00     0.072 C 
HETATM   10  N   UNL     1       5.326  30.715  55.489  1.00  0.00    -0.280 N 
HETATM   11  H   UNL     1       5.063  31.656  55.218  1.00  0.00     0.189 HD
HETATM   12  N   UNL     1       6.139  30.573  56.541  1.00  0.00    -0.177 NA
HETATM   13  C   UNL     1       6.315  29.248  56.645  1.00  0.00     0.079 A 
HETATM   14  C   UNL     1       7.126  28.723  57.774  1.00  0.00     0.075 C 
ENDBRANCH   1   7
BRANCH   3  15
HETATM   15  C   UNL     1       6.752  23.866  54.737  1.00  0.00     0.071 A 
HETATM   16  C   UNL     1       6.912  23.640  53.356  1.00  0.00     0.095 A 
HETATM   17  C   UNL     1       7.657  22.547  52.905  1.00  0.00     0.040 A 
HETATM   18  C   UNL     1       8.223  21.664  53.827  1.00  0.00     0.022 A 
HETATM   19  C   UNL     1       8.049  21.883  55.193  1.00  0.00     0.013 A 
HETATM   20 BR   UNL     1       8.834  20.689  56.433  1.00  0.00    -0.051 Br
HETATM   21  C   UNL     1       7.320  22.978  55.654  1.00  0.00     0.051 A 
BRANCH  16  22
HETATM   22  O   UNL     1       6.327  24.556  52.513  1.00  0.00    -0.354 OA
HETATM   23  C   UNL     1       7.250  25.265  51.689  1.00  0.00     0.210 C 
ENDBRANCH  16  22
ENDBRANCH   3  15
TORSDOF 3
ENDMDL
