MODEL 1
REMARK VINA RESULT:     -11.0      0.000      0.000
REMARK  8 active torsions:
REMARK  status: ('A' for Active; 'I' for Inactive)
REMARK    1  A    between atoms: C_4  and  C_5 
REMARK    2  A    between atoms: C_5  and  N_6 
REMARK    3  A    between atoms: C_5  and  C_33 
REMARK    4  A    between atoms: N_10  and  C_11 
REMARK    5  A    between atoms: C_13  and  N_14 
REMARK    6  A    between atoms: N_14  and  C_15 
REMARK    7  A    between atoms: C_22  and  N_23 
REMARK    8  A    between atoms: N_23  and  C_24 
ROOT
HETATM    1  C   UNL     1       6.841  27.841  57.693  1.00  0.00     0.756 A 
HETATM    2  N   UNL     1       7.785  28.556  58.228  1.00  0.00     0.131 NA
HETATM    3  C   UNL     1       7.785  29.905  58.014  1.00  0.00     0.757 A 
HETATM    4  N   UNL     1       6.795  30.423  57.243  1.00  0.00    -0.016 N 
HETATM    5  C   UNL     1       5.790  29.654  56.770  1.00  0.00     0.735 A 
HETATM    6  N   UNL     1       5.781  28.379  57.005  1.00  0.00     0.129 NA
HETATM    7  H   UNL     1       6.720  31.426  57.209  1.00  0.00     0.203 HD
ENDROOT
BRANCH   1   8
HETATM    8  N   UNL     1       6.857  26.460  57.848  1.00  0.00    -0.210 N 
HETATM    9  C   UNL     1       8.136  25.745  57.743  1.00  0.00     0.169 C 
HETATM   10  C   UNL     1       8.437  25.467  56.258  1.00  0.00     0.256 C 
HETATM   11  N   UNL     1       7.275  24.673  55.640  1.00  0.00    -0.056 N 
HETATM   12  H   UNL     1       7.190  23.816  56.196  1.00  0.00     0.281 HD
HETATM   13  C   UNL     1       5.936  25.397  55.835  1.00  0.00     0.256 C 
HETATM   14  C   UNL     1       5.715  25.682  57.338  1.00  0.00     0.169 C 
BRANCH  11  15
HETATM   15  C   UNL     1       7.583  24.175  54.230  1.00  0.00     0.254 C 
BRANCH  15  16
HETATM   16  C   UNL     1       6.692  24.733  53.124  1.00  0.00    -0.023 A 
HETATM   17  C   UNL     1       7.129  25.866  52.404  1.00  0.00     0.009 A 
HETATM   18  C   UNL     1       6.335  26.440  51.409  1.00  0.00     0.001 A 
HETATM   19  C   UNL     1       5.094  25.894  51.105  1.00  0.00     0.000 A 
HETATM   20  C   UNL     1       4.646  24.772  51.794  1.00  0.00     0.001 A 
HETATM   21  C   UNL     1       5.436  24.197  52.793  1.00  0.00     0.009 A 
ENDBRANCH  15  16
BRANCH  15  22
HETATM   22  C   UNL     1       7.911  22.682  54.215  1.00  0.00    -0.023 A 
HETATM   23  C   UNL     1       7.823  21.964  55.429  1.00  0.00     0.009 A 
HETATM   24  C   UNL     1       8.076  20.592  55.482  1.00  0.00     0.001 A 
HETATM   25  C   UNL     1       8.419  19.907  54.322  1.00  0.00     0.000 A 
HETATM   26  C   UNL     1       8.515  20.593  53.116  1.00  0.00     0.001 A 
HETATM   27  C   UNL     1       8.262  21.967  53.061  1.00  0.00     0.009 A 
ENDBRANCH  15  22
ENDBRANCH  11  15
ENDBRANCH   1   8
BRANCH   3  28
HETATM   28  N   UNL     1       8.753  30.539  58.594  1.00  0.00    -0.062 NA
BRANCH  28  29
HETATM   29  C   UNL     1       8.560  31.090  59.867  1.00  0.00     0.076 A 
HETATM   30  C   UNL     1       9.166  30.496  60.975  1.00  0.00     0.032 A 
HETATM   31  C   UNL     1       8.991  31.033  62.252  1.00  0.00     0.002 A 
HETATM   32  C   UNL     1       8.210  32.175  62.427  1.00  0.00     0.000 A 
HETATM   33  C   UNL     1       7.618  32.788  61.324  1.00  0.00     0.002 A 
HETATM   34  C   UNL     1       7.803  32.254  60.048  1.00  0.00     0.032 A 
ENDBRANCH  28  29
ENDBRANCH   3  28
BRANCH   5  35
HETATM   35  N   UNL     1       4.846  30.349  56.058  1.00  0.00    -0.189 N 
HETATM   36  H   UNL     1       4.872  31.356  56.164  1.00  0.00     0.184 HD
BRANCH  35  37
HETATM   37  C   UNL     1       4.303  29.941  54.821  1.00  0.00     0.049 A 
HETATM   38  C   UNL     1       4.130  28.588  54.497  1.00  0.00     0.030 A 
HETATM   39  C   UNL     1       3.598  28.207  53.263  1.00  0.00     0.002 A 
HETATM   40  C   UNL     1       3.243  29.176  52.328  1.00  0.00     0.000 A 
HETATM   41  C   UNL     1       3.413  30.524  52.632  1.00  0.00     0.002 A 
HETATM   42  C   UNL     1       3.935  30.905  53.872  1.00  0.00     0.030 A 
ENDBRANCH  35  37
ENDBRANCH   5  35
TORSDOF 8
ENDMDL
MODEL 2
REMARK VINA RESULT:     -10.8      0.459      5.348
REMARK  8 active torsions:
REMARK  status: ('A' for Active; 'I' for Inactive)
REMARK    1  A    between atoms: C_4  and  C_5 
REMARK    2  A    between atoms: C_5  and  N_6 
REMARK    3  A    between atoms: C_5  and  C_33 
REMARK    4  A    between atoms: N_10  and  C_11 
REMARK    5  A    between atoms: C_13  and  N_14 
REMARK    6  A    between atoms: N_14  and  C_15 
REMARK    7  A    between atoms: C_22  and  N_23 
REMARK    8  A    between atoms: N_23  and  C_24 
ROOT
HETATM    1  C   UNL     1       6.389  27.726  57.580  1.00  0.00     0.756 A 
HETATM    2  N   UNL     1       5.286  28.145  57.036  1.00  0.00     0.131 NA
HETATM    3  C   UNL     1       5.075  29.491  56.940  1.00  0.00     0.757 A 
HETATM    4  N   UNL     1       6.034  30.318  57.430  1.00  0.00    -0.016 N 
HETATM    5  C   UNL     1       7.199  29.841  57.918  1.00  0.00     0.735 A 
HETATM    6  N   UNL     1       7.405  28.561  57.976  1.00  0.00     0.129 NA
HETATM    7  H   UNL     1       5.938  31.300  57.227  1.00  0.00     0.203 HD
ENDROOT
BRANCH   1   8
HETATM    8  N   UNL     1       6.595  26.361  57.743  1.00  0.00    -0.210 N 
HETATM    9  C   UNL     1       7.956  25.825  57.614  1.00  0.00     0.169 C 
HETATM   10  C   UNL     1       8.262  25.577  56.125  1.00  0.00     0.256 C 
HETATM   11  N   UNL     1       7.205  24.627  55.537  1.00  0.00    -0.056 N 
HETATM   12  H   UNL     1       7.248  23.772  56.099  1.00  0.00     0.281 HD
HETATM   13  C   UNL     1       5.785  25.166  55.757  1.00  0.00     0.256 C 
HETATM   14  C   UNL     1       5.558  25.431  57.263  1.00  0.00     0.169 C 
BRANCH  11  15
HETATM   15  C   UNL     1       7.549  24.163  54.123  1.00  0.00     0.254 C 
BRANCH  15  16
HETATM   16  C   UNL     1       6.652  24.707  53.015  1.00  0.00    -0.023 A 
HETATM   17  C   UNL     1       7.103  25.802  52.249  1.00  0.00     0.009 A 
HETATM   18  C   UNL     1       6.306  26.363  51.248  1.00  0.00     0.001 A 
HETATM   19  C   UNL     1       5.046  25.839  50.985  1.00  0.00     0.000 A 
HETATM   20  C   UNL     1       4.583  24.753  51.720  1.00  0.00     0.001 A 
HETATM   21  C   UNL     1       5.377  24.192  52.724  1.00  0.00     0.009 A 
ENDBRANCH  15  16
BRANCH  15  22
HETATM   22  C   UNL     1       7.931  22.684  54.090  1.00  0.00    -0.023 A 
HETATM   23  C   UNL     1       7.996  21.981  55.314  1.00  0.00     0.009 A 
HETATM   24  C   UNL     1       8.306  20.620  55.354  1.00  0.00     0.001 A 
HETATM   25  C   UNL     1       8.553  19.932  54.172  1.00  0.00     0.000 A 
HETATM   26  C   UNL     1       8.497  20.603  52.955  1.00  0.00     0.001 A 
HETATM   27  C   UNL     1       8.188  21.966  52.913  1.00  0.00     0.009 A 
ENDBRANCH  15  22
ENDBRANCH  11  15
ENDBRANCH   1   8
BRANCH   3  28
HETATM   28  N   UNL     1       3.958  29.819  56.373  1.00  0.00    -0.062 NA
BRANCH  28  29
HETATM   29  C   UNL     1       3.862  29.821  54.976  1.00  0.00     0.076 A 
HETATM   30  C   UNL     1       3.784  31.036  54.293  1.00  0.00     0.032 A 
HETATM   31  C   UNL     1       3.693  31.062  52.900  1.00  0.00     0.002 A 
HETATM   32  C   UNL     1       3.685  29.867  52.180  1.00  0.00     0.000 A 
HETATM   33  C   UNL     1       3.783  28.650  52.851  1.00  0.00     0.002 A 
HETATM   34  C   UNL     1       3.884  28.629  54.243  1.00  0.00     0.032 A 
ENDBRANCH  28  29
ENDBRANCH   3  28
BRANCH   5  35
HETATM   35  N   UNL     1       8.076  30.816  58.318  1.00  0.00    -0.189 N 
HETATM   36  H   UNL     1       8.262  31.543  57.637  1.00  0.00     0.184 HD
BRANCH  35  37
HETATM   37  C   UNL     1       8.249  31.253  59.649  1.00  0.00     0.049 A 
HETATM   38  C   UNL     1       9.260  30.739  60.473  1.00  0.00     0.030 A 
HETATM   39  C   UNL     1       9.407  31.180  61.790  1.00  0.00     0.002 A 
HETATM   40  C   UNL     1       8.535  32.135  62.306  1.00  0.00     0.000 A 
HETATM   41  C   UNL     1       7.522  32.653  61.503  1.00  0.00     0.002 A 
HETATM   42  C   UNL     1       7.383  32.218  60.181  1.00  0.00     0.030 A 
ENDBRANCH  35  37
ENDBRANCH   5  35
TORSDOF 8
ENDMDL
MODEL 3
REMARK VINA RESULT:      -9.9      3.034      9.189
REMARK  8 active torsions:
REMARK  status: ('A' for Active; 'I' for Inactive)
REMARK    1  A    between atoms: C_4  and  C_5 
REMARK    2  A    between atoms: C_5  and  N_6 
REMARK    3  A    between atoms: C_5  and  C_33 
REMARK    4  A    between atoms: N_10  and  C_11 
REMARK    5  A    between atoms: C_13  and  N_14 
REMARK    6  A    between atoms: N_14  and  C_15 
REMARK    7  A    between atoms: C_22  and  N_23 
REMARK    8  A    between atoms: N_23  and  C_24 
ROOT
HETATM    1  C   UNL     1       4.926  29.112  56.365  1.00  0.00     0.756 A 
HETATM    2  N   UNL     1       5.916  29.173  57.204  1.00  0.00     0.131 NA
HETATM    3  C   UNL     1       6.666  28.051  57.413  1.00  0.00     0.757 A 
HETATM    4  N   UNL     1       6.326  26.926  56.732  1.00  0.00    -0.016 N 
HETATM    5  C   UNL     1       5.336  26.927  55.812  1.00  0.00     0.735 A 
HETATM    6  N   UNL     1       4.649  28.007  55.597  1.00  0.00     0.129 NA
HETATM    7  H   UNL     1       6.965  26.151  56.782  1.00  0.00     0.203 HD
ENDROOT
BRANCH   1   8
HETATM    8  N   UNL     1       4.113  30.225  56.184  1.00  0.00    -0.210 N 
HETATM    9  C   UNL     1       4.703  31.460  55.653  1.00  0.00     0.169 C 
HETATM   10  C   UNL     1       5.337  32.255  56.810  1.00  0.00     0.256 C 
HETATM   11  N   UNL     1       4.272  32.534  57.883  1.00  0.00    -0.056 N 
HETATM   12  H   UNL     1       3.522  33.049  57.411  1.00  0.00     0.281 HD
HETATM   13  C   UNL     1       3.609  31.236  58.364  1.00  0.00     0.256 C 
HETATM   14  C   UNL     1       3.030  30.469  57.153  1.00  0.00     0.169 C 
BRANCH  11  15
HETATM   15  C   UNL     1       4.760  33.494  58.965  1.00  0.00     0.254 C 
BRANCH  15  16
HETATM   16  C   UNL     1       5.303  32.837  60.232  1.00  0.00    -0.023 A 
HETATM   17  C   UNL     1       4.430  32.635  61.322  1.00  0.00     0.009 A 
HETATM   18  C   UNL     1       4.883  32.073  62.518  1.00  0.00     0.001 A 
HETATM   19  C   UNL     1       6.214  31.695  62.650  1.00  0.00     0.000 A 
HETATM   20  C   UNL     1       7.092  31.875  61.586  1.00  0.00     0.001 A 
HETATM   21  C   UNL     1       6.641  32.440  60.389  1.00  0.00     0.009 A 
ENDBRANCH  15  16
BRANCH  15  22
HETATM   22  C   UNL     1       3.836  34.701  59.112  1.00  0.00    -0.023 A 
HETATM   23  C   UNL     1       2.628  34.714  58.378  1.00  0.00     0.009 A 
HETATM   24  C   UNL     1       1.721  35.769  58.489  1.00  0.00     0.001 A 
HETATM   25  C   UNL     1       2.000  36.834  59.339  1.00  0.00     0.000 A 
HETATM   26  C   UNL     1       3.183  36.845  60.069  1.00  0.00     0.001 A 
HETATM   27  C   UNL     1       4.093  35.789  59.959  1.00  0.00     0.009 A 
ENDBRANCH  15  22
ENDBRANCH  11  15
ENDBRANCH   1   8
BRANCH   3  28
HETATM   28  N   UNL     1       7.638  28.205  58.254  1.00  0.00    -0.062 NA
BRANCH  28  29
HETATM   29  C   UNL     1       8.689  29.080  57.949  1.00  0.00     0.076 A 
HETATM   30  C   UNL     1       8.884  30.221  58.730  1.00  0.00     0.032 A 
HETATM   31  C   UNL     1       9.929  31.102  58.448  1.00  0.00     0.002 A 
HETATM   32  C   UNL     1      10.790  30.844  57.381  1.00  0.00     0.000 A 
HETATM   33  C   UNL     1      10.616  29.697  56.608  1.00  0.00     0.002 A 
HETATM   34  C   UNL     1       9.577  28.812  56.901  1.00  0.00     0.032 A 
ENDBRANCH  28  29
ENDBRANCH   3  28
BRANCH   5  35
HETATM   35  N   UNL     1       5.163  25.724  55.179  1.00  0.00    -0.189 N 
HETATM   36  H   UNL     1       4.210  25.498  54.923  1.00  0.00     0.184 HD
BRANCH  35  37
HETATM   37  C   UNL     1       6.118  25.102  54.347  1.00  0.00     0.049 A 
HETATM   38  C   UNL     1       6.880  24.008  54.781  1.00  0.00     0.030 A 
HETATM   39  C   UNL     1       7.826  23.414  53.942  1.00  0.00     0.002 A 
HETATM   40  C   UNL     1       8.033  23.916  52.660  1.00  0.00     0.000 A 
HETATM   41  C   UNL     1       7.288  25.004  52.215  1.00  0.00     0.002 A 
HETATM   42  C   UNL     1       6.333  25.591  53.051  1.00  0.00     0.030 A 
ENDBRANCH  35  37
ENDBRANCH   5  35
TORSDOF 8
ENDMDL
MODEL 4
REMARK VINA RESULT:      -9.9      1.194      3.364
REMARK  8 active torsions:
REMARK  status: ('A' for Active; 'I' for Inactive)
REMARK    1  A    between atoms: C_4  and  C_5 
REMARK    2  A    between atoms: C_5  and  N_6 
REMARK    3  A    between atoms: C_5  and  C_33 
REMARK    4  A    between atoms: N_10  and  C_11 
REMARK    5  A    between atoms: C_13  and  N_14 
REMARK    6  A    between atoms: N_14  and  C_15 
REMARK    7  A    between atoms: C_22  and  N_23 
REMARK    8  A    between atoms: N_23  and  C_24 
ROOT
HETATM    1  C   UNL     1       7.247  27.700  57.397  1.00  0.00     0.756 A 
HETATM    2  N   UNL     1       8.078  28.521  57.967  1.00  0.00     0.131 NA
HETATM    3  C   UNL     1       8.155  29.802  57.500  1.00  0.00     0.757 A 
HETATM    4  N   UNL     1       7.359  30.144  56.455  1.00  0.00    -0.016 N 
HETATM    5  C   UNL     1       6.455  29.281  55.941  1.00  0.00     0.735 A 
HETATM    6  N   UNL     1       6.366  28.076  56.412  1.00  0.00     0.129 NA
HETATM    7  H   UNL     1       7.317  31.120  56.212  1.00  0.00     0.203 HD
ENDROOT
BRANCH   1   8
HETATM    8  N   UNL     1       7.197  26.376  57.816  1.00  0.00    -0.210 N 
HETATM    9  C   UNL     1       8.322  25.486  57.504  1.00  0.00     0.169 C 
HETATM   10  C   UNL     1       8.138  24.921  56.082  1.00  0.00     0.256 C 
HETATM   11  N   UNL     1       6.783  24.201  55.989  1.00  0.00    -0.056 N 
HETATM   12  H   UNL     1       6.800  23.471  56.707  1.00  0.00     0.281 HD
HETATM   13  C   UNL     1       5.629  25.125  56.401  1.00  0.00     0.256 C 
HETATM   14  C   UNL     1       5.895  25.688  57.816  1.00  0.00     0.169 C 
BRANCH  11  15
HETATM   15  C   UNL     1       6.610  23.434  54.680  1.00  0.00     0.254 C 
BRANCH  15  16
HETATM   16  C   UNL     1       7.480  22.190  54.525  1.00  0.00    -0.023 A 
HETATM   17  C   UNL     1       7.832  21.762  53.227  1.00  0.00     0.009 A 
HETATM   18  C   UNL     1       8.594  20.609  53.027  1.00  0.00     0.001 A 
HETATM   19  C   UNL     1       9.028  19.862  54.116  1.00  0.00     0.000 A 
HETATM   20  C   UNL     1       8.703  20.270  55.406  1.00  0.00     0.001 A 
HETATM   21  C   UNL     1       7.937  21.421  55.609  1.00  0.00     0.009 A 
ENDBRANCH  15  16
BRANCH  15  22
HETATM   22  C   UNL     1       6.470  24.376  53.485  1.00  0.00    -0.023 A 
HETATM   23  C   UNL     1       5.213  24.466  52.845  1.00  0.00     0.009 A 
HETATM   24  C   UNL     1       5.006  25.331  51.769  1.00  0.00     0.001 A 
HETATM   25  C   UNL     1       6.048  26.128  51.311  1.00  0.00     0.000 A 
HETATM   26  C   UNL     1       7.295  26.055  51.923  1.00  0.00     0.001 A 
HETATM   27  C   UNL     1       7.505  25.189  53.001  1.00  0.00     0.009 A 
ENDBRANCH  15  22
ENDBRANCH  11  15
ENDBRANCH   1   8
BRANCH   3  28
HETATM   28  N   UNL     1       8.998  30.553  58.134  1.00  0.00    -0.062 NA
BRANCH  28  29
HETATM   29  C   UNL     1       8.651  31.086  59.383  1.00  0.00     0.076 A 
HETATM   30  C   UNL     1       9.455  30.818  60.493  1.00  0.00     0.032 A 
HETATM   31  C   UNL     1       9.132  31.345  61.745  1.00  0.00     0.002 A 
HETATM   32  C   UNL     1       8.002  32.148  61.893  1.00  0.00     0.000 A 
HETATM   33  C   UNL     1       7.205  32.438  60.787  1.00  0.00     0.002 A 
HETATM   34  C   UNL     1       7.537  31.919  59.534  1.00  0.00     0.032 A 
ENDBRANCH  28  29
ENDBRANCH   3  28
BRANCH   5  35
HETATM   35  N   UNL     1       5.697  29.808  54.928  1.00  0.00    -0.189 N 
HETATM   36  H   UNL     1       5.557  29.204  54.127  1.00  0.00     0.184 HD
BRANCH  35  37
HETATM   37  C   UNL     1       4.654  30.743  55.099  1.00  0.00     0.049 A 
HETATM   38  C   UNL     1       3.495  30.436  55.826  1.00  0.00     0.030 A 
HETATM   39  C   UNL     1       2.471  31.375  55.976  1.00  0.00     0.002 A 
HETATM   40  C   UNL     1       2.588  32.632  55.388  1.00  0.00     0.000 A 
HETATM   41  C   UNL     1       3.730  32.951  54.659  1.00  0.00     0.002 A 
HETATM   42  C   UNL     1       4.758  32.014  54.519  1.00  0.00     0.030 A 
ENDBRANCH  35  37
ENDBRANCH   5  35
TORSDOF 8
ENDMDL
MODEL 5
REMARK VINA RESULT:      -9.9      2.507      7.224
REMARK  8 active torsions:
REMARK  status: ('A' for Active; 'I' for Inactive)
REMARK    1  A    between atoms: C_4  and  C_5 
REMARK    2  A    between atoms: C_5  and  N_6 
REMARK    3  A    between atoms: C_5  and  C_33 
REMARK    4  A    between atoms: N_10  and  C_11 
REMARK    5  A    between atoms: C_13  and  N_14 
REMARK    6  A    between atoms: N_14  and  C_15 
REMARK    7  A    between atoms: C_22  and  N_23 
REMARK    8  A    between atoms: N_23  and  C_24 
ROOT
HETATM    1  C   UNL     1       5.479  27.558  52.064  1.00  0.00     0.756 A 
HETATM    2  N   UNL     1       5.018  28.420  51.209  1.00  0.00     0.131 NA
HETATM    3  C   UNL     1       4.661  29.659  51.658  1.00  0.00     0.757 A 
HETATM    4  N   UNL     1       4.802  29.917  52.984  1.00  0.00    -0.016 N 
HETATM    5  C   UNL     1       5.357  29.017  53.825  1.00  0.00     0.735 A 
HETATM    6  N   UNL     1       5.723  27.854  53.384  1.00  0.00     0.129 NA
HETATM    7  H   UNL     1       4.674  30.870  53.280  1.00  0.00     0.203 HD
ENDROOT
BRANCH   1   8
HETATM    8  N   UNL     1       5.791  26.272  51.639  1.00  0.00    -0.210 N 
HETATM    9  C   UNL     1       4.837  25.185  51.892  1.00  0.00     0.169 C 
HETATM   10  C   UNL     1       5.057  24.642  53.317  1.00  0.00     0.256 C 
HETATM   11  N   UNL     1       6.516  24.182  53.469  1.00  0.00    -0.056 N 
HETATM   12  H   UNL     1       6.666  23.472  52.746  1.00  0.00     0.281 HD
HETATM   13  C   UNL     1       7.498  25.308  53.118  1.00  0.00     0.256 C 
HETATM   14  C   UNL     1       7.196  25.834  51.696  1.00  0.00     0.169 C 
BRANCH  11  15
HETATM   15  C   UNL     1       6.768  23.440  54.780  1.00  0.00     0.254 C 
BRANCH  15  16
HETATM   16  C   UNL     1       7.187  24.312  55.960  1.00  0.00    -0.023 A 
HETATM   17  C   UNL     1       8.496  24.181  56.473  1.00  0.00     0.009 A 
HETATM   18  C   UNL     1       8.918  24.927  57.576  1.00  0.00     0.001 A 
HETATM   19  C   UNL     1       8.049  25.823  58.186  1.00  0.00     0.000 A 
HETATM   20  C   UNL     1       6.757  25.977  57.693  1.00  0.00     0.001 A 
HETATM   21  C   UNL     1       6.331  25.230  56.591  1.00  0.00     0.009 A 
ENDBRANCH  15  16
BRANCH  15  22
HETATM   22  C   UNL     1       7.506  22.122  54.552  1.00  0.00    -0.023 A 
HETATM   23  C   UNL     1       7.917  21.802  53.238  1.00  0.00     0.009 A 
HETATM   24  C   UNL     1       8.624  20.630  52.963  1.00  0.00     0.001 A 
HETATM   25  C   UNL     1       8.940  19.755  53.995  1.00  0.00     0.000 A 
HETATM   26  C   UNL     1       8.545  20.047  55.296  1.00  0.00     0.001 A 
HETATM   27  C   UNL     1       7.836  21.219  55.574  1.00  0.00     0.009 A 
ENDBRANCH  15  22
ENDBRANCH  11  15
ENDBRANCH   1   8
BRANCH   3  28
HETATM   28  N   UNL     1       4.225  30.457  50.737  1.00  0.00    -0.062 NA
BRANCH  28  29
HETATM   29  C   UNL     1       3.528  29.937  49.639  1.00  0.00     0.076 A 
HETATM   30  C   UNL     1       2.224  29.468  49.810  1.00  0.00     0.032 A 
HETATM   31  C   UNL     1       1.509  28.951  48.728  1.00  0.00     0.002 A 
HETATM   32  C   UNL     1       2.096  28.904  47.463  1.00  0.00     0.000 A 
HETATM   33  C   UNL     1       3.389  29.390  47.278  1.00  0.00     0.002 A 
HETATM   34  C   UNL     1       4.097  29.916  48.360  1.00  0.00     0.032 A 
ENDBRANCH  28  29
ENDBRANCH   3  28
BRANCH   5  35
HETATM   35  N   UNL     1       5.474  29.462  55.117  1.00  0.00    -0.189 N 
HETATM   36  H   UNL     1       4.625  29.431  55.669  1.00  0.00     0.184 HD
BRANCH  35  37
HETATM   37  C   UNL     1       6.643  29.369  55.902  1.00  0.00     0.049 A 
HETATM   38  C   UNL     1       7.864  28.935  55.366  1.00  0.00     0.030 A 
HETATM   39  C   UNL     1       9.006  28.843  56.164  1.00  0.00     0.002 A 
HETATM   40  C   UNL     1       8.941  29.173  57.515  1.00  0.00     0.000 A 
HETATM   41  C   UNL     1       7.735  29.601  58.065  1.00  0.00     0.002 A 
HETATM   42  C   UNL     1       6.595  29.703  57.262  1.00  0.00     0.030 A 
ENDBRANCH  35  37
ENDBRANCH   5  35
TORSDOF 8
ENDMDL
MODEL 6
REMARK VINA RESULT:      -9.9      2.372      8.263
REMARK  8 active torsions:
REMARK  status: ('A' for Active; 'I' for Inactive)
REMARK    1  A    between atoms: C_4  and  C_5 
REMARK    2  A    between atoms: C_5  and  N_6 
REMARK    3  A    between atoms: C_5  and  C_33 
REMARK    4  A    between atoms: N_10  and  C_11 
REMARK    5  A    between atoms: C_13  and  N_14 
REMARK    6  A    between atoms: N_14  and  C_15 
REMARK    7  A    between atoms: C_22  and  N_23 
REMARK    8  A    between atoms: N_23  and  C_24 
ROOT
HETATM    1  C   UNL     1       4.822  29.228  54.459  1.00  0.00     0.756 A 
HETATM    2  N   UNL     1       5.951  28.593  54.554  1.00  0.00     0.131 NA
HETATM    3  C   UNL     1       6.304  27.732  53.554  1.00  0.00     0.757 A 
HETATM    4  N   UNL     1       5.442  27.583  52.515  1.00  0.00    -0.016 N 
HETATM    5  C   UNL     1       4.313  28.320  52.419  1.00  0.00     0.735 A 
HETATM    6  N   UNL     1       4.003  29.159  53.359  1.00  0.00     0.129 NA
HETATM    7  H   UNL     1       5.771  27.061  51.720  1.00  0.00     0.203 HD
ENDROOT
BRANCH   1   8
HETATM    8  N   UNL     1       4.417  30.062  55.495  1.00  0.00    -0.210 N 
HETATM    9  C   UNL     1       5.113  31.340  55.695  1.00  0.00     0.169 C 
HETATM   10  C   UNL     1       6.379  31.097  56.540  1.00  0.00     0.256 C 
HETATM   11  N   UNL     1       5.987  30.433  57.870  1.00  0.00    -0.056 N 
HETATM   12  H   UNL     1       5.325  31.071  58.321  1.00  0.00     0.281 HD
HETATM   13  C   UNL     1       5.188  29.144  57.638  1.00  0.00     0.256 C 
HETATM   14  C   UNL     1       3.958  29.449  56.753  1.00  0.00     0.169 C 
BRANCH  11  15
HETATM   15  C   UNL     1       7.152  30.347  58.853  1.00  0.00     0.254 C 
BRANCH  15  16
HETATM   16  C   UNL     1       7.123  31.355  59.999  1.00  0.00    -0.023 A 
HETATM   17  C   UNL     1       8.024  31.191  61.074  1.00  0.00     0.009 A 
HETATM   18  C   UNL     1       8.014  32.062  62.166  1.00  0.00     0.001 A 
HETATM   19  C   UNL     1       7.112  33.118  62.206  1.00  0.00     0.000 A 
HETATM   20  C   UNL     1       6.221  33.307  61.154  1.00  0.00     0.001 A 
HETATM   21  C   UNL     1       6.227  32.435  60.062  1.00  0.00     0.009 A 
ENDBRANCH  15  16
BRANCH  15  22
HETATM   22  C   UNL     1       8.480  30.097  58.139  1.00  0.00    -0.023 A 
HETATM   23  C   UNL     1       9.488  31.083  58.233  1.00  0.00     0.009 A 
HETATM   24  C   UNL     1      10.736  30.906  57.633  1.00  0.00     0.001 A 
HETATM   25  C   UNL     1      11.005  29.738  56.928  1.00  0.00     0.000 A 
HETATM   26  C   UNL     1      10.027  28.755  56.819  1.00  0.00     0.001 A 
HETATM   27  C   UNL     1       8.777  28.930  57.419  1.00  0.00     0.009 A 
ENDBRANCH  15  22
ENDBRANCH  11  15
ENDBRANCH   1   8
BRANCH   3  28
HETATM   28  N   UNL     1       7.449  27.154  53.724  1.00  0.00    -0.062 NA
BRANCH  28  29
HETATM   29  C   UNL     1       7.525  25.755  53.748  1.00  0.00     0.076 A 
HETATM   30  C   UNL     1       7.911  25.067  52.596  1.00  0.00     0.032 A 
HETATM   31  C   UNL     1       8.000  23.673  52.599  1.00  0.00     0.002 A 
HETATM   32  C   UNL     1       7.705  22.959  53.760  1.00  0.00     0.000 A 
HETATM   33  C   UNL     1       7.338  23.638  54.921  1.00  0.00     0.002 A 
HETATM   34  C   UNL     1       7.261  25.032  54.917  1.00  0.00     0.032 A 
ENDBRANCH  28  29
ENDBRANCH   3  28
BRANCH   5  35
HETATM   35  N   UNL     1       3.589  28.082  51.280  1.00  0.00    -0.189 N 
HETATM   36  H   UNL     1       2.635  28.423  51.289  1.00  0.00     0.184 HD
BRANCH  35  37
HETATM   37  C   UNL     1       4.129  27.999  49.979  1.00  0.00     0.049 A 
HETATM   38  C   UNL     1       4.609  29.128  49.302  1.00  0.00     0.030 A 
HETATM   39  C   UNL     1       5.132  29.023  48.011  1.00  0.00     0.002 A 
HETATM   40  C   UNL     1       5.171  27.786  47.374  1.00  0.00     0.000 A 
HETATM   41  C   UNL     1       4.696  26.655  48.030  1.00  0.00     0.002 A 
HETATM   42  C   UNL     1       4.182  26.759  49.327  1.00  0.00     0.030 A 
ENDBRANCH  35  37
ENDBRANCH   5  35
TORSDOF 8
ENDMDL
MODEL 7
REMARK VINA RESULT:      -9.8      2.270      8.577
REMARK  8 active torsions:
REMARK  status: ('A' for Active; 'I' for Inactive)
REMARK    1  A    between atoms: C_4  and  C_5 
REMARK    2  A    between atoms: C_5  and  N_6 
REMARK    3  A    between atoms: C_5  and  C_33 
REMARK    4  A    between atoms: N_10  and  C_11 
REMARK    5  A    between atoms: C_13  and  N_14 
REMARK    6  A    between atoms: N_14  and  C_15 
REMARK    7  A    between atoms: C_22  and  N_23 
REMARK    8  A    between atoms: N_23  and  C_24 
ROOT
HETATM    1  C   UNL     1       5.466  26.230  54.818  1.00  0.00     0.756 A 
HETATM    2  N   UNL     1       6.582  25.569  54.890  1.00  0.00     0.131 NA
HETATM    3  C   UNL     1       7.039  24.931  53.773  1.00  0.00     0.757 A 
HETATM    4  N   UNL     1       6.289  25.019  52.644  1.00  0.00    -0.016 N 
HETATM    5  C   UNL     1       5.173  25.779  52.592  1.00  0.00     0.735 A 
HETATM    6  N   UNL     1       4.765  26.408  53.650  1.00  0.00     0.129 NA
HETATM    7  H   UNL     1       6.699  24.669  51.794  1.00  0.00     0.203 HD
ENDROOT
BRANCH   1   8
HETATM    8  N   UNL     1       4.955  26.835  55.960  1.00  0.00    -0.210 N 
HETATM    9  C   UNL     1       4.195  28.085  55.825  1.00  0.00     0.169 C 
HETATM   10  C   UNL     1       5.179  29.270  55.779  1.00  0.00     0.256 C 
HETATM   11  N   UNL     1       6.057  29.256  57.040  1.00  0.00    -0.056 N 
HETATM   12  H   UNL     1       5.413  29.305  57.835  1.00  0.00     0.281 HD
HETATM   13  C   UNL     1       6.776  27.910  57.207  1.00  0.00     0.256 C 
HETATM   14  C   UNL     1       5.739  26.764  57.205  1.00  0.00     0.169 C 
BRANCH  11  15
HETATM   15  C   UNL     1       6.917  30.511  57.176  1.00  0.00     0.254 C 
BRANCH  15  16
HETATM   16  C   UNL     1       8.425  30.278  57.194  1.00  0.00    -0.023 A 
HETATM   17  C   UNL     1       9.183  30.808  58.260  1.00  0.00     0.009 A 
HETATM   18  C   UNL     1      10.571  30.656  58.306  1.00  0.00     0.001 A 
HETATM   19  C   UNL     1      11.231  29.968  57.295  1.00  0.00     0.000 A 
HETATM   20  C   UNL     1      10.504  29.428  56.239  1.00  0.00     0.001 A 
HETATM   21  C   UNL     1       9.116  29.580  56.189  1.00  0.00     0.009 A 
ENDBRANCH  15  16
BRANCH  15  22
HETATM   22  C   UNL     1       6.322  31.499  58.178  1.00  0.00    -0.023 A 
HETATM   23  C   UNL     1       5.400  32.460  57.705  1.00  0.00     0.009 A 
HETATM   24  C   UNL     1       4.793  33.372  58.570  1.00  0.00     0.001 A 
HETATM   25  C   UNL     1       5.090  33.341  59.927  1.00  0.00     0.000 A 
HETATM   26  C   UNL     1       5.997  32.406  60.416  1.00  0.00     0.001 A 
HETATM   27  C   UNL     1       6.606  31.492  59.551  1.00  0.00     0.009 A 
ENDBRANCH  15  22
ENDBRANCH  11  15
ENDBRANCH   1   8
BRANCH   3  28
HETATM   28  N   UNL     1       8.163  24.309  53.932  1.00  0.00    -0.062 NA
BRANCH  28  29
HETATM   29  C   UNL     1       8.164  22.938  54.218  1.00  0.00     0.076 A 
HETATM   30  C   UNL     1       8.068  22.016  53.174  1.00  0.00     0.032 A 
HETATM   31  C   UNL     1       8.074  20.645  53.436  1.00  0.00     0.002 A 
HETATM   32  C   UNL     1       8.182  20.187  54.750  1.00  0.00     0.000 A 
HETATM   33  C   UNL     1       8.299  21.099  55.797  1.00  0.00     0.002 A 
HETATM   34  C   UNL     1       8.303  22.469  55.530  1.00  0.00     0.032 A 
ENDBRANCH  28  29
ENDBRANCH   3  28
BRANCH   5  35
HETATM   35  N   UNL     1       4.570  25.798  51.361  1.00  0.00    -0.189 N 
HETATM   36  H   UNL     1       3.622  25.443  51.333  1.00  0.00     0.184 HD
BRANCH  35  37
HETATM   37  C   UNL     1       4.833  26.742  50.345  1.00  0.00     0.049 A 
HETATM   38  C   UNL     1       5.349  28.014  50.631  1.00  0.00     0.030 A 
HETATM   39  C   UNL     1       5.594  28.935  49.609  1.00  0.00     0.002 A 
HETATM   40  C   UNL     1       5.314  28.601  48.287  1.00  0.00     0.000 A 
HETATM   41  C   UNL     1       4.798  27.343  47.987  1.00  0.00     0.002 A 
HETATM   42  C   UNL     1       4.563  26.418  49.009  1.00  0.00     0.030 A 
ENDBRANCH  35  37
ENDBRANCH   5  35
TORSDOF 8
ENDMDL
MODEL 8
REMARK VINA RESULT:      -9.7      1.202      1.924
REMARK  8 active torsions:
REMARK  status: ('A' for Active; 'I' for Inactive)
REMARK    1  A    between atoms: C_4  and  C_5 
REMARK    2  A    between atoms: C_5  and  N_6 
REMARK    3  A    between atoms: C_5  and  C_33 
REMARK    4  A    between atoms: N_10  and  C_11 
REMARK    5  A    between atoms: C_13  and  N_14 
REMARK    6  A    between atoms: N_14  and  C_15 
REMARK    7  A    between atoms: C_22  and  N_23 
REMARK    8  A    between atoms: N_23  and  C_24 
ROOT
HETATM    1  C   UNL     1       6.019  28.950  57.524  1.00  0.00     0.756 A 
HETATM    2  N   UNL     1       6.878  29.743  58.089  1.00  0.00     0.131 NA
HETATM    3  C   UNL     1       6.761  31.088  57.884  1.00  0.00     0.757 A 
HETATM    4  N   UNL     1       5.749  31.520  57.088  1.00  0.00    -0.016 N 
HETATM    5  C   UNL     1       4.832  30.667  56.582  1.00  0.00     0.735 A 
HETATM    6  N   UNL     1       4.934  29.394  56.808  1.00  0.00     0.129 NA
HETATM    7  H   UNL     1       5.583  32.513  57.058  1.00  0.00     0.203 HD
ENDROOT
BRANCH   1   8
HETATM    8  N   UNL     1       6.158  27.575  57.670  1.00  0.00    -0.210 N 
HETATM    9  C   UNL     1       7.500  26.982  57.602  1.00  0.00     0.169 C 
HETATM   10  C   UNL     1       7.872  26.746  56.126  1.00  0.00     0.256 C 
HETATM   11  N   UNL     1       6.808  25.854  55.466  1.00  0.00    -0.056 N 
HETATM   12  H   UNL     1       6.785  24.988  56.013  1.00  0.00     0.281 HD
HETATM   13  C   UNL     1       5.403  26.450  55.622  1.00  0.00     0.256 C 
HETATM   14  C   UNL     1       5.109  26.700  57.119  1.00  0.00     0.169 C 
BRANCH  11  15
HETATM   15  C   UNL     1       7.206  25.399  54.063  1.00  0.00     0.254 C 
BRANCH  15  16
HETATM   16  C   UNL     1       6.395  26.004  52.920  1.00  0.00    -0.023 A 
HETATM   17  C   UNL     1       5.531  25.167  52.181  1.00  0.00     0.009 A 
HETATM   18  C   UNL     1       4.795  25.661  51.101  1.00  0.00     0.001 A 
HETATM   19  C   UNL     1       4.899  26.999  50.740  1.00  0.00     0.000 A 
HETATM   20  C   UNL     1       5.736  27.845  51.460  1.00  0.00     0.001 A 
HETATM   21  C   UNL     1       6.476  27.354  52.539  1.00  0.00     0.009 A 
ENDBRANCH  15  16
BRANCH  15  22
HETATM   22  C   UNL     1       7.520  23.904  54.020  1.00  0.00    -0.023 A 
HETATM   23  C   UNL     1       7.366  23.152  55.206  1.00  0.00     0.009 A 
HETATM   24  C   UNL     1       7.604  21.777  55.230  1.00  0.00     0.001 A 
HETATM   25  C   UNL     1       7.998  21.122  54.069  1.00  0.00     0.000 A 
HETATM   26  C   UNL     1       8.159  21.842  52.890  1.00  0.00     0.001 A 
HETATM   27  C   UNL     1       7.922  23.220  52.863  1.00  0.00     0.009 A 
ENDBRANCH  15  22
ENDBRANCH  11  15
ENDBRANCH   1   8
BRANCH   3  28
HETATM   28  N   UNL     1       7.650  31.803  58.495  1.00  0.00    -0.062 NA
BRANCH  28  29
HETATM   29  C   UNL     1       7.701  31.803  59.895  1.00  0.00     0.076 A 
HETATM   30  C   UNL     1       6.610  32.282  60.624  1.00  0.00     0.032 A 
HETATM   31  C   UNL     1       6.637  32.285  62.020  1.00  0.00     0.002 A 
HETATM   32  C   UNL     1       7.757  31.802  62.697  1.00  0.00     0.000 A 
HETATM   33  C   UNL     1       8.842  31.302  61.979  1.00  0.00     0.002 A 
HETATM   34  C   UNL     1       8.807  31.291  60.583  1.00  0.00     0.032 A 
ENDBRANCH  28  29
ENDBRANCH   3  28
BRANCH   5  35
HETATM   35  N   UNL     1       3.849  31.278  55.848  1.00  0.00    -0.189 N 
HETATM   36  H   UNL     1       3.351  32.025  56.318  1.00  0.00     0.184 HD
BRANCH  35  37
HETATM   37  C   UNL     1       3.860  31.426  54.444  1.00  0.00     0.049 A 
HETATM   38  C   UNL     1       4.331  32.592  53.825  1.00  0.00     0.030 A 
HETATM   39  C   UNL     1       4.325  32.719  52.434  1.00  0.00     0.002 A 
HETATM   40  C   UNL     1       3.834  31.684  51.642  1.00  0.00     0.000 A 
HETATM   41  C   UNL     1       3.358  30.521  52.241  1.00  0.00     0.002 A 
HETATM   42  C   UNL     1       3.375  30.391  53.633  1.00  0.00     0.030 A 
ENDBRANCH  35  37
ENDBRANCH   5  35
TORSDOF 8
ENDMDL
MODEL 9
REMARK VINA RESULT:      -9.7      2.153      8.755
REMARK  8 active torsions:
REMARK  status: ('A' for Active; 'I' for Inactive)
REMARK    1  A    between atoms: C_4  and  C_5 
REMARK    2  A    between atoms: C_5  and  N_6 
REMARK    3  A    between atoms: C_5  and  C_33 
REMARK    4  A    between atoms: N_10  and  C_11 
REMARK    5  A    between atoms: C_13  and  N_14 
REMARK    6  A    between atoms: N_14  and  C_15 
REMARK    7  A    between atoms: C_22  and  N_23 
REMARK    8  A    between atoms: N_23  and  C_24 
ROOT
HETATM    1  C   UNL     1       6.218  26.169  55.452  1.00  0.00     0.756 A 
HETATM    2  N   UNL     1       7.228  25.445  55.074  1.00  0.00     0.131 NA
HETATM    3  C   UNL     1       7.320  25.086  53.759  1.00  0.00     0.757 A 
HETATM    4  N   UNL     1       6.338  25.504  52.920  1.00  0.00    -0.016 N 
HETATM    5  C   UNL     1       5.345  26.318  53.340  1.00  0.00     0.735 A 
HETATM    6  N   UNL     1       5.284  26.681  54.584  1.00  0.00     0.129 NA
HETATM    7  H   UNL     1       6.486  25.358  51.935  1.00  0.00     0.203 HD
ENDROOT
BRANCH   1   8
HETATM    8  N   UNL     1       6.075  26.493  56.796  1.00  0.00    -0.210 N 
HETATM    9  C   UNL     1       4.946  27.336  57.210  1.00  0.00     0.169 C 
HETATM   10  C   UNL     1       5.323  28.817  57.012  1.00  0.00     0.256 C 
HETATM   11  N   UNL     1       6.602  29.129  57.804  1.00  0.00    -0.056 N 
HETATM   12  H   UNL     1       6.395  28.899  58.780  1.00  0.00     0.281 HD
HETATM   13  C   UNL     1       7.746  28.182  57.416  1.00  0.00     0.256 C 
HETATM   14  C   UNL     1       7.289  26.716  57.599  1.00  0.00     0.169 C 
BRANCH  11  15
HETATM   15  C   UNL     1       6.931  30.620  57.832  1.00  0.00     0.254 C 
BRANCH  15  16
HETATM   16  C   UNL     1       7.918  31.057  58.911  1.00  0.00    -0.023 A 
HETATM   17  C   UNL     1       7.475  31.133  60.249  1.00  0.00     0.009 A 
HETATM   18  C   UNL     1       8.326  31.563  61.270  1.00  0.00     0.001 A 
HETATM   19  C   UNL     1       9.637  31.920  60.980  1.00  0.00     0.000 A 
HETATM   20  C   UNL     1      10.100  31.844  59.670  1.00  0.00     0.001 A 
HETATM   21  C   UNL     1       9.250  31.417  58.647  1.00  0.00     0.009 A 
ENDBRANCH  15  16
BRANCH  15  22
HETATM   22  C   UNL     1       5.689  31.478  57.592  1.00  0.00    -0.023 A 
HETATM   23  C   UNL     1       5.454  31.965  56.287  1.00  0.00     0.009 A 
HETATM   24  C   UNL     1       4.322  32.727  55.989  1.00  0.00     0.001 A 
HETATM   25  C   UNL     1       3.400  33.016  56.988  1.00  0.00     0.000 A 
HETATM   26  C   UNL     1       3.612  32.550  58.281  1.00  0.00     0.001 A 
HETATM   27  C   UNL     1       4.745  31.787  58.582  1.00  0.00     0.009 A 
ENDBRANCH  15  22
ENDBRANCH  11  15
ENDBRANCH   1   8
BRANCH   3  28
HETATM   28  N   UNL     1       8.363  24.377  53.469  1.00  0.00    -0.062 NA
BRANCH  28  29
HETATM   29  C   UNL     1       8.390  23.015  53.793  1.00  0.00     0.076 A 
HETATM   30  C   UNL     1       9.025  22.598  54.966  1.00  0.00     0.032 A 
HETATM   31  C   UNL     1       9.058  21.246  55.311  1.00  0.00     0.002 A 
HETATM   32  C   UNL     1       8.451  20.300  54.485  1.00  0.00     0.000 A 
HETATM   33  C   UNL     1       7.797  20.708  53.324  1.00  0.00     0.002 A 
HETATM   34  C   UNL     1       7.757  22.062  52.987  1.00  0.00     0.032 A 
ENDBRANCH  28  29
ENDBRANCH   3  28
BRANCH   5  35
HETATM   35  N   UNL     1       4.471  26.687  52.350  1.00  0.00    -0.189 N 
HETATM   36  H   UNL     1       3.509  26.815  52.641  1.00  0.00     0.184 HD
BRANCH  35  37
HETATM   37  C   UNL     1       4.810  27.459  51.218  1.00  0.00     0.049 A 
HETATM   38  C   UNL     1       5.297  28.769  51.332  1.00  0.00     0.030 A 
HETATM   39  C   UNL     1       5.617  29.517  50.197  1.00  0.00     0.002 A 
HETATM   40  C   UNL     1       5.442  28.969  48.929  1.00  0.00     0.000 A 
HETATM   41  C   UNL     1       4.955  27.672  48.798  1.00  0.00     0.002 A 
HETATM   42  C   UNL     1       4.645  26.919  49.935  1.00  0.00     0.030 A 
ENDBRANCH  35  37
ENDBRANCH   5  35
TORSDOF 8
ENDMDL
MODEL 10
REMARK VINA RESULT:      -9.7      2.889      7.974
REMARK  8 active torsions:
REMARK  status: ('A' for Active; 'I' for Inactive)
REMARK    1  A    between atoms: C_4  and  C_5 
REMARK    2  A    between atoms: C_5  and  N_6 
REMARK    3  A    between atoms: C_5  and  C_33 
REMARK    4  A    between atoms: N_10  and  C_11 
REMARK    5  A    between atoms: C_13  and  N_14 
REMARK    6  A    between atoms: N_14  and  C_15 
REMARK    7  A    between atoms: C_22  and  N_23 
REMARK    8  A    between atoms: N_23  and  C_24 
ROOT
HETATM    1  C   UNL     1       5.870  26.403  54.365  1.00  0.00     0.756 A 
HETATM    2  N   UNL     1       6.396  25.333  54.879  1.00  0.00     0.131 NA
HETATM    3  C   UNL     1       7.655  25.409  55.404  1.00  0.00     0.757 A 
HETATM    4  N   UNL     1       8.291  26.608  55.349  1.00  0.00    -0.016 N 
HETATM    5  C   UNL     1       7.678  27.714  54.873  1.00  0.00     0.735 A 
HETATM    6  N   UNL     1       6.470  27.638  54.407  1.00  0.00     0.129 NA
HETATM    7  H   UNL     1       9.153  26.692  55.861  1.00  0.00     0.203 HD
ENDROOT
BRANCH   1   8
HETATM    8  N   UNL     1       4.616  26.331  53.771  1.00  0.00    -0.210 N 
HETATM    9  C   UNL     1       4.399  25.384  52.671  1.00  0.00     0.169 C 
HETATM   10  C   UNL     1       4.859  26.032  51.350  1.00  0.00     0.256 C 
HETATM   11  N   UNL     1       4.101  27.353  51.138  1.00  0.00    -0.056 N 
HETATM   12  H   UNL     1       3.106  27.112  51.137  1.00  0.00     0.281 HD
HETATM   13  C   UNL     1       4.272  28.294  52.337  1.00  0.00     0.256 C 
HETATM   14  C   UNL     1       3.833  27.571  53.631  1.00  0.00     0.169 C 
BRANCH  11  15
HETATM   15  C   UNL     1       4.342  27.956  49.756  1.00  0.00     0.254 C 
BRANCH  15  16
HETATM   16  C   UNL     1       4.613  29.458  49.730  1.00  0.00    -0.023 A 
HETATM   17  C   UNL     1       3.524  30.348  49.846  1.00  0.00     0.009 A 
HETATM   18  C   UNL     1       3.711  31.731  49.791  1.00  0.00     0.001 A 
HETATM   19  C   UNL     1       4.987  32.256  49.626  1.00  0.00     0.000 A 
HETATM   20  C   UNL     1       6.078  31.399  49.520  1.00  0.00     0.001 A 
HETATM   21  C   UNL     1       5.893  30.014  49.572  1.00  0.00     0.009 A 
ENDBRANCH  15  16
BRANCH  15  22
HETATM   22  C   UNL     1       3.395  27.371  48.709  1.00  0.00    -0.023 A 
HETATM   23  C   UNL     1       2.059  27.832  48.681  1.00  0.00     0.009 A 
HETATM   24  C   UNL     1       1.150  27.365  47.731  1.00  0.00     0.001 A 
HETATM   25  C   UNL     1       1.555  26.429  46.786  1.00  0.00     0.000 A 
HETATM   26  C   UNL     1       2.864  25.958  46.796  1.00  0.00     0.001 A 
HETATM   27  C   UNL     1       3.776  26.424  47.746  1.00  0.00     0.009 A 
ENDBRANCH  15  22
ENDBRANCH  11  15
ENDBRANCH   1   8
BRANCH   3  28
HETATM   28  N   UNL     1       8.094  24.300  55.906  1.00  0.00    -0.062 NA
BRANCH  28  29
HETATM   29  C   UNL     1       8.048  23.125  55.144  1.00  0.00     0.076 A 
HETATM   30  C   UNL     1       7.793  21.906  55.775  1.00  0.00     0.032 A 
HETATM   31  C   UNL     1       7.735  20.723  55.034  1.00  0.00     0.002 A 
HETATM   32  C   UNL     1       7.930  20.756  53.653  1.00  0.00     0.000 A 
HETATM   33  C   UNL     1       8.164  21.971  53.012  1.00  0.00     0.002 A 
HETATM   34  C   UNL     1       8.210  23.153  53.754  1.00  0.00     0.032 A 
ENDBRANCH  28  29
ENDBRANCH   3  28
BRANCH   5  35
HETATM   35  N   UNL     1       8.445  28.848  54.943  1.00  0.00    -0.189 N 
HETATM   36  H   UNL     1       8.276  29.535  54.218  1.00  0.00     0.184 HD
BRANCH  35  37
HETATM   37  C   UNL     1       8.941  29.418  56.134  1.00  0.00     0.049 A 
HETATM   38  C   UNL     1       8.114  29.667  57.238  1.00  0.00     0.030 A 
HETATM   39  C   UNL     1       8.626  30.240  58.405  1.00  0.00     0.002 A 
HETATM   40  C   UNL     1       9.973  30.584  58.479  1.00  0.00     0.000 A 
HETATM   41  C   UNL     1      10.808  30.348  57.391  1.00  0.00     0.002 A 
HETATM   42  C   UNL     1      10.297  29.764  56.227  1.00  0.00     0.030 A 
ENDBRANCH  35  37
ENDBRANCH   5  35
TORSDOF 8
ENDMDL
