MODEL 1
REMARK VINA RESULT:      -9.7      0.000      0.000
REMARK  5 active torsions:
REMARK  status: ('A' for Active; 'I' for Inactive)
REMARK    1  A    between atoms: C_3  and  C_4 
REMARK    2  A    between atoms: C_8  and  C_9 
REMARK       I    between atoms: C_9  and  N_10 
REMARK    3  A    between atoms: N_10  and  C_11 
REMARK    4  A    between atoms: C_11  and  C_12 
REMARK    5  A    between atoms: C_24  and  O_25 
ROOT
HETATM    1  C   UNL     1       7.212  26.778  57.481  1.00  0.00     0.270 C 
HETATM    2  N   UNL     1       6.540  27.562  56.565  1.00  0.00    -0.342 N 
HETATM    3  O   UNL     1       7.578  27.187  58.579  1.00  0.00    -0.266 OA
HETATM    4  H   UNL     1       6.321  27.166  55.662  1.00  0.00     0.164 HD
ENDROOT
BRANCH   1   5
HETATM    5  C   UNL     1       7.513  25.443  57.037  1.00  0.00     0.120 A 
HETATM    6  N   UNL     1       8.335  24.623  57.759  1.00  0.00    -0.272 N 
HETATM    7  N   UNL     1       8.620  23.458  57.155  1.00  0.00    -0.174 NA
HETATM    8  H   UNL     1       8.764  24.836  58.656  1.00  0.00     0.189 HD
HETATM    9  C   UNL     1       7.928  23.498  56.000  1.00  0.00     0.092 A 
HETATM   10  C   UNL     1       7.197  24.716  55.906  1.00  0.00     0.071 A 
BRANCH   9  11
HETATM   11  C   UNL     1       8.034  22.417  55.010  1.00  0.00     0.028 A 
HETATM   12  C   UNL     1       7.867  22.686  53.641  1.00  0.00     0.017 A 
HETATM   13  C   UNL     1       8.018  21.672  52.688  1.00  0.00     0.001 A 
HETATM   14  C   UNL     1       8.341  20.378  53.087  1.00  0.00     0.003 A 
HETATM   15  C   UNL     1       8.501  20.089  54.440  1.00  0.00     0.037 A 
HETATM   16  C   UNL     1       8.342  21.098  55.388  1.00  0.00     0.078 A 
BRANCH  16  17
HETATM   17  O   UNL     1       8.511  20.724  56.698  1.00  0.00    -0.360 OA
HETATM   18  H   UNL     1       7.638  20.381  56.998  1.00  0.00     0.217 HD
ENDBRANCH  16  17
ENDBRANCH   9  11
ENDBRANCH   1   5
BRANCH   2  19
HETATM   19  C   UNL     1       6.579  29.001  56.620  1.00  0.00     0.064 A 
HETATM   20  C   UNL     1       5.616  29.773  55.734  1.00  0.00     0.039 A 
HETATM   21  C   UNL     1       5.422  29.776  57.215  1.00  0.00     0.039 A 
BRANCH  19  22
HETATM   22  C   UNL     1       7.995  29.530  56.785  1.00  0.00     0.011 A 
HETATM   23  C   UNL     1       8.987  29.305  55.814  1.00  0.00     0.125 A 
HETATM   24  F   UNL     1       8.672  28.634  54.694  1.00  0.00    -0.205 F 
HETATM   25  C   UNL     1      10.307  29.725  55.983  1.00  0.00     0.046 A 
HETATM   26  C   UNL     1      10.671  30.384  57.152  1.00  0.00     0.045 A 
HETATM   27  C   UNL     1       9.711  30.613  58.130  1.00  0.00     0.117 A 
HETATM   28  F   UNL     1      10.063  31.233  59.264  1.00  0.00    -0.206 F 
HETATM   29  C   UNL     1       8.393  30.196  57.957  1.00  0.00     0.055 A 
ENDBRANCH  19  22
ENDBRANCH   2  19
TORSDOF 5
ENDMDL
MODEL 2
REMARK VINA RESULT:      -9.6      3.292      7.954
REMARK  5 active torsions:
REMARK  status: ('A' for Active; 'I' for Inactive)
REMARK    1  A    between atoms: C_3  and  C_4 
REMARK    2  A    between atoms: C_8  and  C_9 
REMARK       I    between atoms: C_9  and  N_10 
REMARK    3  A    between atoms: N_10  and  C_11 
REMARK    4  A    between atoms: C_11  and  C_12 
REMARK    5  A    between atoms: C_24  and  O_25 
ROOT
HETATM    1  C   UNL     1       7.316  27.193  54.610  1.00  0.00     0.270 C 
HETATM    2  N   UNL     1       6.249  26.318  54.668  1.00  0.00    -0.342 N 
HETATM    3  O   UNL     1       7.970  27.392  53.591  1.00  0.00    -0.266 OA
HETATM    4  H   UNL     1       5.797  26.171  55.559  1.00  0.00     0.164 HD
ENDROOT
BRANCH   1   5
HETATM    5  C   UNL     1       7.657  27.824  55.857  1.00  0.00     0.120 A 
HETATM    6  N   UNL     1       7.726  27.109  57.019  1.00  0.00    -0.272 N 
HETATM    7  N   UNL     1       7.930  27.858  58.116  1.00  0.00    -0.174 NA
HETATM    8  H   UNL     1       7.594  26.106  57.121  1.00  0.00     0.189 HD
HETATM    9  C   UNL     1       8.035  29.117  57.650  1.00  0.00     0.092 A 
HETATM   10  C   UNL     1       7.899  29.131  56.233  1.00  0.00     0.071 A 
BRANCH   9  11
HETATM   11  C   UNL     1       8.196  30.257  58.564  1.00  0.00     0.028 A 
HETATM   12  C   UNL     1       9.472  30.633  59.016  1.00  0.00     0.017 A 
HETATM   13  C   UNL     1       9.639  31.750  59.844  1.00  0.00     0.001 A 
HETATM   14  C   UNL     1       8.536  32.507  60.229  1.00  0.00     0.003 A 
HETATM   15  C   UNL     1       7.262  32.145  59.800  1.00  0.00     0.037 A 
HETATM   16  C   UNL     1       7.096  31.028  58.982  1.00  0.00     0.078 A 
BRANCH  16  17
HETATM   17  O   UNL     1       5.806  30.741  58.611  1.00  0.00    -0.360 OA
HETATM   18  H   UNL     1       5.428  30.197  59.340  1.00  0.00     0.217 HD
ENDBRANCH  16  17
ENDBRANCH   9  11
ENDBRANCH   1   5
BRANCH   2  19
HETATM   19  C   UNL     1       6.070  25.269  53.699  1.00  0.00     0.064 A 
HETATM   20  C   UNL     1       4.661  24.986  53.208  1.00  0.00     0.039 A 
HETATM   21  C   UNL     1       5.657  25.599  52.279  1.00  0.00     0.039 A 
BRANCH  19  22
HETATM   22  C   UNL     1       7.001  24.092  53.949  1.00  0.00     0.011 A 
HETATM   23  C   UNL     1       7.826  23.573  52.936  1.00  0.00     0.125 A 
HETATM   24  F   UNL     1       7.822  24.149  51.723  1.00  0.00    -0.205 F 
HETATM   25  C   UNL     1       8.633  22.452  53.131  1.00  0.00     0.046 A 
HETATM   26  C   UNL     1       8.626  21.810  54.366  1.00  0.00     0.045 A 
HETATM   27  C   UNL     1       7.814  22.299  55.381  1.00  0.00     0.117 A 
HETATM   28  F   UNL     1       7.793  21.673  56.564  1.00  0.00    -0.206 F 
HETATM   29  C   UNL     1       7.012  23.421  55.184  1.00  0.00     0.055 A 
ENDBRANCH  19  22
ENDBRANCH   2  19
TORSDOF 5
ENDMDL
MODEL 3
REMARK VINA RESULT:      -9.5      3.010      8.091
REMARK  5 active torsions:
REMARK  status: ('A' for Active; 'I' for Inactive)
REMARK    1  A    between atoms: C_3  and  C_4 
REMARK    2  A    between atoms: C_8  and  C_9 
REMARK       I    between atoms: C_9  and  N_10 
REMARK    3  A    between atoms: N_10  and  C_11 
REMARK    4  A    between atoms: C_11  and  C_12 
REMARK    5  A    between atoms: C_24  and  O_25 
ROOT
HETATM    1  C   UNL     1       7.331  26.954  54.553  1.00  0.00     0.270 C 
HETATM    2  N   UNL     1       6.257  26.090  54.628  1.00  0.00    -0.342 N 
HETATM    3  O   UNL     1       7.993  27.120  53.533  1.00  0.00    -0.266 OA
HETATM    4  H   UNL     1       5.798  25.971  55.520  1.00  0.00     0.164 HD
ENDROOT
BRANCH   1   5
HETATM    5  C   UNL     1       7.668  27.617  55.784  1.00  0.00     0.120 A 
HETATM    6  N   UNL     1       7.758  26.928  56.961  1.00  0.00    -0.272 N 
HETATM    7  N   UNL     1       7.956  27.703  58.040  1.00  0.00    -0.174 NA
HETATM    8  H   UNL     1       7.645  25.925  57.083  1.00  0.00     0.189 HD
HETATM    9  C   UNL     1       8.035  28.953  57.548  1.00  0.00     0.092 A 
HETATM   10  C   UNL     1       7.890  28.936  56.132  1.00  0.00     0.071 A 
BRANCH   9  11
HETATM   11  C   UNL     1       8.182  30.115  58.436  1.00  0.00     0.028 A 
HETATM   12  C   UNL     1       9.453  30.521  58.875  1.00  0.00     0.017 A 
HETATM   13  C   UNL     1       9.606  31.657  59.678  1.00  0.00     0.001 A 
HETATM   14  C   UNL     1       8.492  32.405  60.053  1.00  0.00     0.003 A 
HETATM   15  C   UNL     1       7.222  32.012  59.638  1.00  0.00     0.037 A 
HETATM   16  C   UNL     1       7.071  30.876  58.844  1.00  0.00     0.078 A 
BRANCH  16  17
HETATM   17  O   UNL     1       5.785  30.560  58.486  1.00  0.00    -0.360 OA
HETATM   18  H   UNL     1       5.241  30.666  59.300  1.00  0.00     0.217 HD
ENDBRANCH  16  17
ENDBRANCH   9  11
ENDBRANCH   1   5
BRANCH   2  19
HETATM   19  C   UNL     1       6.076  25.015  53.686  1.00  0.00     0.064 A 
HETATM   20  C   UNL     1       4.706  24.847  53.053  1.00  0.00     0.039 A 
HETATM   21  C   UNL     1       5.854  25.312  52.217  1.00  0.00     0.039 A 
BRANCH  19  22
HETATM   22  C   UNL     1       6.848  23.767  54.086  1.00  0.00     0.011 A 
HETATM   23  C   UNL     1       7.014  23.400  55.433  1.00  0.00     0.125 A 
HETATM   24  F   UNL     1       6.448  24.148  56.394  1.00  0.00    -0.205 F 
HETATM   25  C   UNL     1       7.777  22.297  55.818  1.00  0.00     0.046 A 
HETATM   26  C   UNL     1       8.409  21.528  54.846  1.00  0.00     0.045 A 
HETATM   27  C   UNL     1       8.266  21.875  53.508  1.00  0.00     0.117 A 
HETATM   28  F   UNL     1       8.888  21.147  52.571  1.00  0.00    -0.206 F 
HETATM   29  C   UNL     1       7.501  22.974  53.126  1.00  0.00     0.055 A 
ENDBRANCH  19  22
ENDBRANCH   2  19
TORSDOF 5
ENDMDL
MODEL 4
REMARK VINA RESULT:      -9.3      4.768      7.634
REMARK  5 active torsions:
REMARK  status: ('A' for Active; 'I' for Inactive)
REMARK    1  A    between atoms: C_3  and  C_4 
REMARK    2  A    between atoms: C_8  and  C_9 
REMARK       I    between atoms: C_9  and  N_10 
REMARK    3  A    between atoms: N_10  and  C_11 
REMARK    4  A    between atoms: C_11  and  C_12 
REMARK    5  A    between atoms: C_24  and  O_25 
ROOT
HETATM    1  C   UNL     1       6.130  25.657  55.031  1.00  0.00     0.270 C 
HETATM    2  N   UNL     1       7.498  25.508  55.147  1.00  0.00    -0.342 N 
HETATM    3  O   UNL     1       5.332  25.204  55.846  1.00  0.00    -0.266 OA
HETATM    4  H   UNL     1       8.085  25.864  54.406  1.00  0.00     0.164 HD
ENDROOT
BRANCH   1   5
HETATM    5  C   UNL     1       5.689  26.339  53.844  1.00  0.00     0.120 A 
HETATM    6  N   UNL     1       4.579  27.136  53.854  1.00  0.00    -0.272 N 
HETATM    7  N   UNL     1       4.223  27.601  52.645  1.00  0.00    -0.174 NA
HETATM    8  H   UNL     1       4.001  27.356  54.661  1.00  0.00     0.189 HD
HETATM    9  C   UNL     1       5.161  27.117  51.808  1.00  0.00     0.092 A 
HETATM   10  C   UNL     1       6.114  26.346  52.530  1.00  0.00     0.071 A 
BRANCH   9  11
HETATM   11  C   UNL     1       5.083  27.351  50.359  1.00  0.00     0.028 A 
HETATM   12  C   UNL     1       4.626  26.340  49.498  1.00  0.00     0.017 A 
HETATM   13  C   UNL     1       4.498  26.572  48.123  1.00  0.00     0.001 A 
HETATM   14  C   UNL     1       4.823  27.817  47.590  1.00  0.00     0.003 A 
HETATM   15  C   UNL     1       5.288  28.829  48.426  1.00  0.00     0.037 A 
HETATM   16  C   UNL     1       5.421  28.594  49.793  1.00  0.00     0.078 A 
BRANCH  16  17
HETATM   17  O   UNL     1       5.892  29.644  50.541  1.00  0.00    -0.360 OA
HETATM   18  H   UNL     1       6.408  30.209  49.921  1.00  0.00     0.217 HD
ENDBRANCH  16  17
ENDBRANCH   9  11
ENDBRANCH   1   5
BRANCH   2  19
HETATM   19  C   UNL     1       8.086  24.480  55.966  1.00  0.00     0.064 A 
HETATM   20  C   UNL     1       9.282  24.851  56.825  1.00  0.00     0.039 A 
HETATM   21  C   UNL     1       7.973  24.543  57.476  1.00  0.00     0.039 A 
BRANCH  19  22
HETATM   22  C   UNL     1       8.083  23.125  55.275  1.00  0.00     0.011 A 
HETATM   23  C   UNL     1       8.262  23.003  53.885  1.00  0.00     0.125 A 
HETATM   24  F   UNL     1       8.476  24.106  53.150  1.00  0.00    -0.205 F 
HETATM   25  C   UNL     1       8.193  21.774  53.228  1.00  0.00     0.046 A 
HETATM   26  C   UNL     1       7.930  20.620  53.959  1.00  0.00     0.045 A 
HETATM   27  C   UNL     1       7.743  20.715  55.333  1.00  0.00     0.117 A 
HETATM   28  F   UNL     1       7.473  19.608  56.036  1.00  0.00    -0.206 F 
HETATM   29  C   UNL     1       7.816  21.942  55.987  1.00  0.00     0.055 A 
ENDBRANCH  19  22
ENDBRANCH   2  19
TORSDOF 5
ENDMDL
MODEL 5
REMARK VINA RESULT:      -9.1      3.168      8.174
REMARK  5 active torsions:
REMARK  status: ('A' for Active; 'I' for Inactive)
REMARK    1  A    between atoms: C_3  and  C_4 
REMARK    2  A    between atoms: C_8  and  C_9 
REMARK       I    between atoms: C_9  and  N_10 
REMARK    3  A    between atoms: N_10  and  C_11 
REMARK    4  A    between atoms: C_11  and  C_12 
REMARK    5  A    between atoms: C_24  and  O_25 
ROOT
HETATM    1  C   UNL     1       7.085  25.722  55.663  1.00  0.00     0.270 C 
HETATM    2  N   UNL     1       8.035  25.080  54.894  1.00  0.00    -0.342 N 
HETATM    3  O   UNL     1       6.003  25.220  55.955  1.00  0.00    -0.266 OA
HETATM    4  H   UNL     1       8.878  25.582  54.654  1.00  0.00     0.164 HD
ENDROOT
BRANCH   1   5
HETATM    5  C   UNL     1       7.423  27.063  56.059  1.00  0.00     0.120 A 
HETATM    6  N   UNL     1       7.761  28.012  55.135  1.00  0.00    -0.272 N 
HETATM    7  N   UNL     1       8.172  29.175  55.666  1.00  0.00    -0.174 NA
HETATM    8  H   UNL     1       7.768  27.896  54.125  1.00  0.00     0.189 HD
HETATM    9  C   UNL     1       8.067  28.995  56.996  1.00  0.00     0.092 A 
HETATM   10  C   UNL     1       7.572  27.691  57.279  1.00  0.00     0.071 A 
BRANCH   9  11
HETATM   11  C   UNL     1       8.497  30.035  57.942  1.00  0.00     0.028 A 
HETATM   12  C   UNL     1       7.658  30.429  58.997  1.00  0.00     0.017 A 
HETATM   13  C   UNL     1       8.081  31.380  59.933  1.00  0.00     0.001 A 
HETATM   14  C   UNL     1       9.348  31.949  59.830  1.00  0.00     0.003 A 
HETATM   15  C   UNL     1      10.191  31.579  58.785  1.00  0.00     0.037 A 
HETATM   16  C   UNL     1       9.765  30.638  57.850  1.00  0.00     0.078 A 
BRANCH  16  17
HETATM   17  O   UNL     1      10.657  30.337  56.851  1.00  0.00    -0.360 OA
HETATM   18  H   UNL     1      11.483  30.828  57.066  1.00  0.00     0.217 HD
ENDBRANCH  16  17
ENDBRANCH   9  11
ENDBRANCH   1   5
BRANCH   2  19
HETATM   19  C   UNL     1       7.700  23.979  54.029  1.00  0.00     0.064 A 
HETATM   20  C   UNL     1       6.451  24.100  53.174  1.00  0.00     0.039 A 
HETATM   21  C   UNL     1       7.796  24.129  52.525  1.00  0.00     0.039 A 
BRANCH  19  22
HETATM   22  C   UNL     1       8.014  22.633  54.666  1.00  0.00     0.011 A 
HETATM   23  C   UNL     1       8.180  21.470  53.893  1.00  0.00     0.125 A 
HETATM   24  F   UNL     1       8.093  21.550  52.556  1.00  0.00    -0.205 F 
HETATM   25  C   UNL     1       8.400  20.217  54.467  1.00  0.00     0.046 A 
HETATM   26  C   UNL     1       8.453  20.098  55.852  1.00  0.00     0.045 A 
HETATM   27  C   UNL     1       8.285  21.232  56.638  1.00  0.00     0.117 A 
HETATM   28  F   UNL     1       8.319  21.117  57.972  1.00  0.00    -0.206 F 
HETATM   29  C   UNL     1       8.069  22.482  56.062  1.00  0.00     0.055 A 
ENDBRANCH  19  22
ENDBRANCH   2  19
TORSDOF 5
ENDMDL
MODEL 6
REMARK VINA RESULT:      -8.8      3.620      8.208
REMARK  5 active torsions:
REMARK  status: ('A' for Active; 'I' for Inactive)
REMARK    1  A    between atoms: C_3  and  C_4 
REMARK    2  A    between atoms: C_8  and  C_9 
REMARK       I    between atoms: C_9  and  N_10 
REMARK    3  A    between atoms: N_10  and  C_11 
REMARK    4  A    between atoms: C_11  and  C_12 
REMARK    5  A    between atoms: C_24  and  O_25 
ROOT
HETATM    1  C   UNL     1       7.653  29.284  56.050  1.00  0.00     0.270 C 
HETATM    2  N   UNL     1       6.300  29.070  55.878  1.00  0.00    -0.342 N 
HETATM    3  O   UNL     1       8.496  28.974  55.214  1.00  0.00    -0.266 OA
HETATM    4  H   UNL     1       5.676  29.306  56.637  1.00  0.00     0.164 HD
ENDROOT
BRANCH   1   5
HETATM    5  C   UNL     1       8.025  29.851  57.319  1.00  0.00     0.120 A 
HETATM    6  N   UNL     1       9.207  29.525  57.923  1.00  0.00    -0.272 N 
HETATM    7  N   UNL     1       9.355  30.035  59.156  1.00  0.00    -0.174 NA
HETATM    8  H   UNL     1       9.930  28.917  57.547  1.00  0.00     0.189 HD
HETATM    9  C   UNL     1       8.236  30.757  59.359  1.00  0.00     0.092 A 
HETATM   10  C   UNL     1       7.392  30.689  58.215  1.00  0.00     0.071 A 
BRANCH   9  11
HETATM   11  C   UNL     1       7.983  31.427  60.643  1.00  0.00     0.028 A 
HETATM   12  C   UNL     1       7.268  32.635  60.688  1.00  0.00     0.017 A 
HETATM   13  C   UNL     1       6.977  33.251  61.910  1.00  0.00     0.001 A 
HETATM   14  C   UNL     1       7.395  32.669  63.105  1.00  0.00     0.003 A 
HETATM   15  C   UNL     1       8.114  31.477  63.081  1.00  0.00     0.037 A 
HETATM   16  C   UNL     1       8.409  30.869  61.862  1.00  0.00     0.078 A 
BRANCH  16  17
HETATM   17  O   UNL     1       9.126  29.700  61.931  1.00  0.00    -0.360 OA
HETATM   18  H   UNL     1      10.070  29.966  62.026  1.00  0.00     0.217 HD
ENDBRANCH  16  17
ENDBRANCH   9  11
ENDBRANCH   1   5
BRANCH   2  19
HETATM   19  C   UNL     1       5.794  28.110  54.932  1.00  0.00     0.064 A 
HETATM   20  C   UNL     1       4.406  28.337  54.360  1.00  0.00     0.039 A 
HETATM   21  C   UNL     1       5.602  28.492  53.479  1.00  0.00     0.039 A 
BRANCH  19  22
HETATM   22  C   UNL     1       6.211  26.689  55.280  1.00  0.00     0.011 A 
HETATM   23  C   UNL     1       5.762  26.052  56.451  1.00  0.00     0.125 A 
HETATM   24  F   UNL     1       4.916  26.699  57.269  1.00  0.00    -0.205 F 
HETATM   25  C   UNL     1       6.190  24.776  56.818  1.00  0.00     0.046 A 
HETATM   26  C   UNL     1       7.099  24.099  56.010  1.00  0.00     0.045 A 
HETATM   27  C   UNL     1       7.562  24.709  54.851  1.00  0.00     0.117 A 
HETATM   28  F   UNL     1       8.450  24.067  54.081  1.00  0.00    -0.206 F 
HETATM   29  C   UNL     1       7.131  25.983  54.486  1.00  0.00     0.055 A 
ENDBRANCH  19  22
ENDBRANCH   2  19
TORSDOF 5
ENDMDL
MODEL 7
REMARK VINA RESULT:      -8.7      6.750      8.445
REMARK  5 active torsions:
REMARK  status: ('A' for Active; 'I' for Inactive)
REMARK    1  A    between atoms: C_3  and  C_4 
REMARK    2  A    between atoms: C_8  and  C_9 
REMARK       I    between atoms: C_9  and  N_10 
REMARK    3  A    between atoms: N_10  and  C_11 
REMARK    4  A    between atoms: C_11  and  C_12 
REMARK    5  A    between atoms: C_24  and  O_25 
ROOT
HETATM    1  C   UNL     1       4.641  27.014  50.828  1.00  0.00     0.270 C 
HETATM    2  N   UNL     1       4.411  26.535  49.554  1.00  0.00    -0.342 N 
HETATM    3  O   UNL     1       4.486  28.190  51.144  1.00  0.00    -0.266 OA
HETATM    4  H   UNL     1       4.613  25.564  49.362  1.00  0.00     0.164 HD
ENDROOT
BRANCH   1   5
HETATM    5  C   UNL     1       5.137  26.042  51.766  1.00  0.00     0.120 A 
HETATM    6  N   UNL     1       4.454  25.748  52.912  1.00  0.00    -0.272 N 
HETATM    7  N   UNL     1       5.104  24.917  53.743  1.00  0.00    -0.174 NA
HETATM    8  H   UNL     1       3.553  26.127  53.193  1.00  0.00     0.189 HD
HETATM    9  C   UNL     1       6.250  24.625  53.100  1.00  0.00     0.092 A 
HETATM   10  C   UNL     1       6.292  25.289  51.842  1.00  0.00     0.071 A 
BRANCH   9  11
HETATM   11  C   UNL     1       7.282  23.784  53.724  1.00  0.00     0.028 A 
HETATM   12  C   UNL     1       7.735  22.619  53.084  1.00  0.00     0.017 A 
HETATM   13  C   UNL     1       8.755  21.842  53.646  1.00  0.00     0.001 A 
HETATM   14  C   UNL     1       9.336  22.218  54.854  1.00  0.00     0.003 A 
HETATM   15  C   UNL     1       8.893  23.363  55.510  1.00  0.00     0.037 A 
HETATM   16  C   UNL     1       7.873  24.132  54.952  1.00  0.00     0.078 A 
BRANCH  16  17
HETATM   17  O   UNL     1       7.495  25.240  55.668  1.00  0.00    -0.360 OA
HETATM   18  H   UNL     1       7.159  25.890  55.008  1.00  0.00     0.217 HD
ENDBRANCH  16  17
ENDBRANCH   9  11
ENDBRANCH   1   5
BRANCH   2  19
HETATM   19  C   UNL     1       4.386  27.403  48.406  1.00  0.00     0.064 A 
HETATM   20  C   UNL     1       5.438  28.496  48.316  1.00  0.00     0.039 A 
HETATM   21  C   UNL     1       5.491  27.339  47.372  1.00  0.00     0.039 A 
BRANCH  19  22
HETATM   22  C   UNL     1       2.967  27.725  47.961  1.00  0.00     0.011 A 
HETATM   23  C   UNL     1       2.254  26.879  47.094  1.00  0.00     0.125 A 
HETATM   24  F   UNL     1       2.823  25.738  46.671  1.00  0.00    -0.205 F 
HETATM   25  C   UNL     1       0.979  27.194  46.623  1.00  0.00     0.046 A 
HETATM   26  C   UNL     1       0.382  28.389  47.012  1.00  0.00     0.045 A 
HETATM   27  C   UNL     1       1.069  29.246  47.863  1.00  0.00     0.117 A 
HETATM   28  F   UNL     1       0.504  30.405  48.224  1.00  0.00    -0.206 F 
HETATM   29  C   UNL     1       2.340  28.927  48.334  1.00  0.00     0.055 A 
ENDBRANCH  19  22
ENDBRANCH   2  19
TORSDOF 5
ENDMDL
MODEL 8
REMARK VINA RESULT:      -8.7      4.800      6.321
REMARK  5 active torsions:
REMARK  status: ('A' for Active; 'I' for Inactive)
REMARK    1  A    between atoms: C_3  and  C_4 
REMARK    2  A    between atoms: C_8  and  C_9 
REMARK       I    between atoms: C_9  and  N_10 
REMARK    3  A    between atoms: N_10  and  C_11 
REMARK    4  A    between atoms: C_11  and  C_12 
REMARK    5  A    between atoms: C_24  and  O_25 
ROOT
HETATM    1  C   UNL     1       6.496  27.149  53.048  1.00  0.00     0.270 C 
HETATM    2  N   UNL     1       5.182  27.066  52.633  1.00  0.00    -0.342 N 
HETATM    3  O   UNL     1       7.107  28.209  53.144  1.00  0.00    -0.266 OA
HETATM    4  H   UNL     1       4.768  26.150  52.529  1.00  0.00     0.164 HD
ENDROOT
BRANCH   1   5
HETATM    5  C   UNL     1       7.134  25.886  53.310  1.00  0.00     0.120 A 
HETATM    6  N   UNL     1       7.823  25.223  52.334  1.00  0.00    -0.272 N 
HETATM    7  N   UNL     1       8.254  24.003  52.696  1.00  0.00    -0.174 NA
HETATM    8  H   UNL     1       7.988  25.546  51.384  1.00  0.00     0.189 HD
HETATM    9  C   UNL     1       7.861  23.872  53.977  1.00  0.00     0.092 A 
HETATM   10  C   UNL     1       7.182  25.047  54.407  1.00  0.00     0.071 A 
BRANCH   9  11
HETATM   11  C   UNL     1       8.087  22.625  54.721  1.00  0.00     0.028 A 
HETATM   12  C   UNL     1       8.272  22.648  56.113  1.00  0.00     0.017 A 
HETATM   13  C   UNL     1       8.435  21.460  56.835  1.00  0.00     0.001 A 
HETATM   14  C   UNL     1       8.413  20.233  56.178  1.00  0.00     0.003 A 
HETATM   15  C   UNL     1       8.241  20.189  54.797  1.00  0.00     0.037 A 
HETATM   16  C   UNL     1       8.087  21.373  54.079  1.00  0.00     0.078 A 
BRANCH  16  17
HETATM   17  O   UNL     1       7.929  21.237  52.722  1.00  0.00    -0.360 OA
HETATM   18  H   UNL     1       7.095  21.711  52.496  1.00  0.00     0.217 HD
ENDBRANCH  16  17
ENDBRANCH   9  11
ENDBRANCH   1   5
BRANCH   2  19
HETATM   19  C   UNL     1       4.551  28.123  51.886  1.00  0.00     0.064 A 
HETATM   20  C   UNL     1       3.181  28.596  52.341  1.00  0.00     0.039 A 
HETATM   21  C   UNL     1       4.365  29.493  52.504  1.00  0.00     0.039 A 
BRANCH  19  22
HETATM   22  C   UNL     1       4.819  28.008  50.393  1.00  0.00     0.011 A 
HETATM   23  C   UNL     1       5.389  29.065  49.661  1.00  0.00     0.125 A 
HETATM   24  F   UNL     1       5.738  30.195  50.298  1.00  0.00    -0.205 F 
HETATM   25  C   UNL     1       5.577  29.001  48.280  1.00  0.00     0.046 A 
HETATM   26  C   UNL     1       5.186  27.859  47.588  1.00  0.00     0.045 A 
HETATM   27  C   UNL     1       4.615  26.803  48.287  1.00  0.00     0.117 A 
HETATM   28  F   UNL     1       4.222  25.710  47.621  1.00  0.00    -0.206 F 
HETATM   29  C   UNL     1       4.431  26.869  49.667  1.00  0.00     0.055 A 
ENDBRANCH  19  22
ENDBRANCH   2  19
TORSDOF 5
ENDMDL
MODEL 9
REMARK VINA RESULT:      -8.6      3.417      5.120
REMARK  5 active torsions:
REMARK  status: ('A' for Active; 'I' for Inactive)
REMARK    1  A    between atoms: C_3  and  C_4 
REMARK    2  A    between atoms: C_8  and  C_9 
REMARK       I    between atoms: C_9  and  N_10 
REMARK    3  A    between atoms: N_10  and  C_11 
REMARK    4  A    between atoms: C_11  and  C_12 
REMARK    5  A    between atoms: C_24  and  O_25 
ROOT
HETATM    1  C   UNL     1       8.579  29.975  58.591  1.00  0.00     0.270 C 
HETATM    2  N   UNL     1       8.280  30.012  59.939  1.00  0.00    -0.342 N 
HETATM    3  O   UNL     1       9.290  30.806  58.036  1.00  0.00    -0.266 OA
HETATM    4  H   UNL     1       7.643  29.321  60.309  1.00  0.00     0.164 HD
ENDROOT
BRANCH   1   5
HETATM    5  C   UNL     1       7.945  28.914  57.855  1.00  0.00     0.120 A 
HETATM    6  N   UNL     1       6.589  28.750  57.870  1.00  0.00    -0.272 N 
HETATM    7  N   UNL     1       6.159  27.645  57.239  1.00  0.00    -0.174 NA
HETATM    8  H   UNL     1       5.913  29.348  58.340  1.00  0.00     0.189 HD
HETATM    9  C   UNL     1       7.280  27.075  56.757  1.00  0.00     0.092 A 
HETATM   10  C   UNL     1       8.418  27.860  57.098  1.00  0.00     0.071 A 
BRANCH   9  11
HETATM   11  C   UNL     1       7.237  25.786  56.052  1.00  0.00     0.028 A 
HETATM   12  C   UNL     1       6.830  25.722  54.709  1.00  0.00     0.017 A 
HETATM   13  C   UNL     1       6.837  24.507  54.015  1.00  0.00     0.001 A 
HETATM   14  C   UNL     1       7.253  23.339  54.651  1.00  0.00     0.003 A 
HETATM   15  C   UNL     1       7.650  23.380  55.985  1.00  0.00     0.037 A 
HETATM   16  C   UNL     1       7.635  24.590  56.676  1.00  0.00     0.078 A 
BRANCH  16  17
HETATM   17  O   UNL     1       8.037  24.538  57.988  1.00  0.00    -0.360 OA
HETATM   18  H   UNL     1       7.570  25.274  58.445  1.00  0.00     0.217 HD
ENDBRANCH  16  17
ENDBRANCH   9  11
ENDBRANCH   1   5
BRANCH   2  19
HETATM   19  C   UNL     1       8.408  31.218  60.715  1.00  0.00     0.064 A 
HETATM   20  C   UNL     1       9.555  31.308  61.707  1.00  0.00     0.039 A 
HETATM   21  C   UNL     1       9.572  32.160  60.481  1.00  0.00     0.039 A 
BRANCH  19  22
HETATM   22  C   UNL     1       7.056  31.788  61.116  1.00  0.00     0.011 A 
HETATM   23  C   UNL     1       6.218  32.427  60.185  1.00  0.00     0.125 A 
HETATM   24  F   UNL     1       6.600  32.508  58.901  1.00  0.00    -0.205 F 
HETATM   25  C   UNL     1       5.007  33.015  60.552  1.00  0.00     0.046 A 
HETATM   26  C   UNL     1       4.605  32.983  61.883  1.00  0.00     0.045 A 
HETATM   27  C   UNL     1       5.419  32.364  62.823  1.00  0.00     0.117 A 
HETATM   28  F   UNL     1       5.043  32.347  64.108  1.00  0.00    -0.206 F 
HETATM   29  C   UNL     1       6.626  31.774  62.454  1.00  0.00     0.055 A 
ENDBRANCH  19  22
ENDBRANCH   2  19
TORSDOF 5
ENDMDL
MODEL 10
REMARK VINA RESULT:      -8.6      5.896      7.654
REMARK  5 active torsions:
REMARK  status: ('A' for Active; 'I' for Inactive)
REMARK    1  A    between atoms: C_3  and  C_4 
REMARK    2  A    between atoms: C_8  and  C_9 
REMARK       I    between atoms: C_9  and  N_10 
REMARK    3  A    between atoms: N_10  and  C_11 
REMARK    4  A    between atoms: C_11  and  C_12 
REMARK    5  A    between atoms: C_24  and  O_25 
ROOT
HETATM    1  C   UNL     1       5.098  27.738  51.918  1.00  0.00     0.270 C 
HETATM    2  N   UNL     1       3.771  27.872  51.562  1.00  0.00    -0.342 N 
HETATM    3  O   UNL     1       5.963  28.552  51.612  1.00  0.00    -0.266 OA
HETATM    4  H   UNL     1       3.130  27.130  51.808  1.00  0.00     0.164 HD
ENDROOT
BRANCH   1   5
HETATM    5  C   UNL     1       5.419  26.533  52.636  1.00  0.00     0.120 A 
HETATM    6  N   UNL     1       4.782  26.210  53.801  1.00  0.00    -0.272 N 
HETATM    7  N   UNL     1       5.276  25.123  54.417  1.00  0.00    -0.174 NA
HETATM    8  H   UNL     1       4.027  26.730  54.242  1.00  0.00     0.189 HD
HETATM    9  C   UNL     1       6.260  24.693  53.604  1.00  0.00     0.092 A 
HETATM   10  C   UNL     1       6.358  25.536  52.461  1.00  0.00     0.071 A 
BRANCH   9  11
HETATM   11  C   UNL     1       7.103  23.546  53.968  1.00  0.00     0.028 A 
HETATM   12  C   UNL     1       7.619  22.697  52.976  1.00  0.00     0.017 A 
HETATM   13  C   UNL     1       8.467  21.634  53.310  1.00  0.00     0.001 A 
HETATM   14  C   UNL     1       8.812  21.406  54.640  1.00  0.00     0.003 A 
HETATM   15  C   UNL     1       8.303  22.230  55.640  1.00  0.00     0.037 A 
HETATM   16  C   UNL     1       7.454  23.284  55.306  1.00  0.00     0.078 A 
BRANCH  16  17
HETATM   17  O   UNL     1       6.994  24.042  56.354  1.00  0.00    -0.360 OA
HETATM   18  H   UNL     1       6.623  23.405  57.008  1.00  0.00     0.217 HD
ENDBRANCH  16  17
ENDBRANCH   9  11
ENDBRANCH   1   5
BRANCH   2  19
HETATM   19  C   UNL     1       3.356  28.716  50.472  1.00  0.00     0.064 A 
HETATM   20  C   UNL     1       2.608  29.995  50.806  1.00  0.00     0.039 A 
HETATM   21  C   UNL     1       3.998  30.072  50.265  1.00  0.00     0.039 A 
BRANCH  19  22
HETATM   22  C   UNL     1       2.909  27.911  49.261  1.00  0.00     0.011 A 
HETATM   23  C   UNL     1       3.821  27.175  48.484  1.00  0.00     0.125 A 
HETATM   24  F   UNL     1       5.117  27.153  48.835  1.00  0.00    -0.205 F 
HETATM   25  C   UNL     1       3.437  26.488  47.332  1.00  0.00     0.046 A 
HETATM   26  C   UNL     1       2.109  26.529  46.921  1.00  0.00     0.045 A 
HETATM   27  C   UNL     1       1.189  27.254  47.668  1.00  0.00     0.117 A 
HETATM   28  F   UNL     1      -0.087  27.308  47.265  1.00  0.00    -0.206 F 
HETATM   29  C   UNL     1       1.574  27.936  48.820  1.00  0.00     0.055 A 
ENDBRANCH  19  22
ENDBRANCH   2  19
TORSDOF 5
ENDMDL
