MODEL 1
REMARK VINA RESULT:      -9.7      0.000      0.000
REMARK  4 active torsions:
REMARK  status: ('A' for Active; 'I' for Inactive)
REMARK    1  A    between atoms: C_4  and  S_5 
REMARK    2  A    between atoms: S_5  and  C_6 
REMARK    3  A    between atoms: C_6  and  C_7 
REMARK    4  A    between atoms: C_23  and  N_24 
ROOT
HETATM    1  C   UNL     1       6.950  25.444  54.334  1.00  0.00    -0.029 C 
HETATM    2  C   UNL     1       7.480  24.231  55.050  1.00  0.00     0.016 A 
HETATM    3  C   UNL     1       7.725  24.399  56.426  1.00  0.00     0.091 A 
HETATM    4  C   UNL     1       8.317  23.426  57.226  1.00  0.00     0.039 A 
HETATM    5  C   UNL     1       8.680  22.218  56.661  1.00  0.00     0.015 A 
HETATM    6  C   UNL     1       8.415  21.955  55.316  1.00  0.00    -0.025 A 
HETATM    7  C   UNL     1       7.784  22.932  54.483  1.00  0.00    -0.012 A 
HETATM    8  C   UNL     1       8.776  20.688  54.824  1.00  0.00     0.012 A 
HETATM    9  C   UNL     1       8.512  20.321  53.511  1.00  0.00     0.001 A 
HETATM   10  C   UNL     1       7.860  21.213  52.683  1.00  0.00     0.001 A 
HETATM   11  C   UNL     1       7.496  22.478  53.164  1.00  0.00     0.013 A 
HETATM   12  O   UNL     1       7.358  25.558  57.141  1.00  0.00    -0.275 OA
HETATM   13  C   UNL     1       6.661  26.574  56.535  1.00  0.00     0.288 C 
HETATM   14  O   UNL     1       6.208  27.528  57.155  1.00  0.00    -0.260 OA
HETATM   15  C   UNL     1       6.543  26.489  55.080  1.00  0.00     0.091 C 
ENDROOT
BRANCH   1  16
HETATM   16  C   UNL     1       6.916  25.487  52.820  1.00  0.00     0.122 C 
BRANCH  16  17
HETATM   17  S   UNL     1       5.300  25.207  52.034  1.00  0.00    -0.085 SA
BRANCH  17  18
HETATM   18  C   UNL     1       5.235  26.646  50.991  1.00  0.00     0.190 A 
HETATM   19  N   UNL     1       4.826  26.447  49.728  1.00  0.00    -0.228 NA
HETATM   20  C   UNL     1       4.789  27.527  48.924  1.00  0.00     0.036 A 
HETATM   21  C   UNL     1       4.350  27.320  47.507  1.00  0.00     0.070 C 
HETATM   22  C   UNL     1       5.139  28.784  49.370  1.00  0.00     0.071 A 
HETATM   23  C   UNL     1       5.523  28.886  50.687  1.00  0.00     0.105 A 
HETATM   24  N   UNL     1       5.588  27.834  51.508  1.00  0.00    -0.211 NA
BRANCH  23  25
HETATM   25  N   UNL     1       5.916  30.115  51.215  1.00  0.00    -0.287 NA
HETATM   26  H   UNL     1       5.316  30.833  50.819  1.00  0.00     0.125 HD
HETATM   27  H   UNL     1       6.897  30.307  51.041  1.00  0.00     0.125 HD
ENDBRANCH  23  25
ENDBRANCH  17  18
ENDBRANCH  16  17
ENDBRANCH   1  16
TORSDOF 4
ENDMDL
MODEL 2
REMARK VINA RESULT:      -9.5      1.135      2.002
REMARK  4 active torsions:
REMARK  status: ('A' for Active; 'I' for Inactive)
REMARK    1  A    between atoms: C_4  and  S_5 
REMARK    2  A    between atoms: S_5  and  C_6 
REMARK    3  A    between atoms: C_6  and  C_7 
REMARK    4  A    between atoms: C_23  and  N_24 
ROOT
HETATM    1  C   UNL     1       6.803  26.183  53.836  1.00  0.00    -0.029 C 
HETATM    2  C   UNL     1       7.478  25.199  54.752  1.00  0.00     0.016 A 
HETATM    3  C   UNL     1       7.765  25.676  56.046  1.00  0.00     0.091 A 
HETATM    4  C   UNL     1       8.483  24.948  56.991  1.00  0.00     0.039 A 
HETATM    5  C   UNL     1       8.935  23.683  56.668  1.00  0.00     0.015 A 
HETATM    6  C   UNL     1       8.638  23.119  55.426  1.00  0.00    -0.025 A 
HETATM    7  C   UNL     1       7.880  23.840  54.450  1.00  0.00    -0.012 A 
HETATM    8  C   UNL     1       9.098  21.812  55.185  1.00  0.00     0.012 A 
HETATM    9  C   UNL     1       8.814  21.153  53.996  1.00  0.00     0.001 A 
HETATM   10  C   UNL     1       8.043  21.791  53.044  1.00  0.00     0.001 A 
HETATM   11  C   UNL     1       7.580  23.094  53.274  1.00  0.00     0.013 A 
HETATM   12  O   UNL     1       7.321  26.924  56.527  1.00  0.00    -0.275 OA
HETATM   13  C   UNL     1       6.503  27.725  55.769  1.00  0.00     0.288 C 
HETATM   14  O   UNL     1       5.988  28.748  56.205  1.00  0.00    -0.260 OA
HETATM   15  C   UNL     1       6.330  27.324  54.373  1.00  0.00     0.091 C 
ENDROOT
BRANCH   1  16
HETATM   16  C   UNL     1       6.699  25.901  52.351  1.00  0.00     0.122 C 
BRANCH  16  17
HETATM   17  S   UNL     1       5.057  25.430  51.725  1.00  0.00    -0.085 SA
BRANCH  17  18
HETATM   18  C   UNL     1       4.952  26.532  50.335  1.00  0.00     0.190 A 
HETATM   19  N   UNL     1       5.444  27.768  50.517  1.00  0.00    -0.228 NA
HETATM   20  C   UNL     1       5.354  28.618  49.475  1.00  0.00     0.036 A 
HETATM   21  C   UNL     1       5.885  30.005  49.666  1.00  0.00     0.070 C 
HETATM   22  C   UNL     1       4.799  28.242  48.270  1.00  0.00     0.071 A 
HETATM   23  C   UNL     1       4.344  26.947  48.178  1.00  0.00     0.105 A 
HETATM   24  N   UNL     1       4.400  26.083  49.196  1.00  0.00    -0.211 NA
BRANCH  23  25
HETATM   25  N   UNL     1       3.745  26.491  47.004  1.00  0.00    -0.287 NA
HETATM   26  H   UNL     1       2.771  26.288  47.208  1.00  0.00     0.125 HD
HETATM   27  H   UNL     1       4.225  25.683  46.623  1.00  0.00     0.125 HD
ENDBRANCH  23  25
ENDBRANCH  17  18
ENDBRANCH  16  17
ENDBRANCH   1  16
TORSDOF 4
ENDMDL
MODEL 3
REMARK VINA RESULT:      -9.5      1.871      3.865
REMARK  4 active torsions:
REMARK  status: ('A' for Active; 'I' for Inactive)
REMARK    1  A    between atoms: C_4  and  S_5 
REMARK    2  A    between atoms: S_5  and  C_6 
REMARK    3  A    between atoms: C_6  and  C_7 
REMARK    4  A    between atoms: C_23  and  N_24 
ROOT
HETATM    1  C   UNL     1       7.642  23.463  53.258  1.00  0.00    -0.029 C 
HETATM    2  C   UNL     1       7.885  23.861  54.689  1.00  0.00     0.016 A 
HETATM    3  C   UNL     1       8.159  22.800  55.574  1.00  0.00     0.091 A 
HETATM    4  C   UNL     1       8.301  22.964  56.948  1.00  0.00     0.039 A 
HETATM    5  C   UNL     1       8.183  24.228  57.493  1.00  0.00     0.015 A 
HETATM    6  C   UNL     1       7.972  25.338  56.672  1.00  0.00    -0.025 A 
HETATM    7  C   UNL     1       7.849  25.194  55.255  1.00  0.00    -0.012 A 
HETATM    8  C   UNL     1       7.903  26.597  57.295  1.00  0.00     0.012 A 
HETATM    9  C   UNL     1       7.739  27.761  56.556  1.00  0.00     0.001 A 
HETATM   10  C   UNL     1       7.666  27.676  55.180  1.00  0.00     0.001 A 
HETATM   11  C   UNL     1       7.732  26.427  54.549  1.00  0.00     0.013 A 
HETATM   12  O   UNL     1       8.356  21.470  55.150  1.00  0.00    -0.275 OA
HETATM   13  C   UNL     1       8.366  21.145  53.816  1.00  0.00     0.288 C 
HETATM   14  O   UNL     1       8.669  20.031  53.407  1.00  0.00    -0.260 OA
HETATM   15  C   UNL     1       7.925  22.196  52.899  1.00  0.00     0.091 C 
ENDROOT
BRANCH   1  16
HETATM   16  C   UNL     1       7.062  24.457  52.273  1.00  0.00     0.122 C 
BRANCH  16  17
HETATM   17  S   UNL     1       5.301  24.866  52.472  1.00  0.00    -0.085 SA
BRANCH  17  18
HETATM   18  C   UNL     1       5.201  26.253  51.366  1.00  0.00     0.190 A 
HETATM   19  N   UNL     1       4.780  25.990  50.118  1.00  0.00    -0.228 NA
HETATM   20  C   UNL     1       4.717  27.031  49.266  1.00  0.00     0.036 A 
HETATM   21  C   UNL     1       4.263  26.752  47.866  1.00  0.00     0.070 C 
HETATM   22  C   UNL     1       5.052  28.312  49.649  1.00  0.00     0.071 A 
HETATM   23  C   UNL     1       5.450  28.481  50.955  1.00  0.00     0.105 A 
HETATM   24  N   UNL     1       5.542  27.469  51.823  1.00  0.00    -0.211 NA
BRANCH  23  25
HETATM   25  N   UNL     1       5.831  29.738  51.421  1.00  0.00    -0.287 NA
HETATM   26  H   UNL     1       6.307  30.222  50.665  1.00  0.00     0.125 HD
HETATM   27  H   UNL     1       6.411  29.677  52.251  1.00  0.00     0.125 HD
ENDBRANCH  23  25
ENDBRANCH  17  18
ENDBRANCH  16  17
ENDBRANCH   1  16
TORSDOF 4
ENDMDL
MODEL 4
REMARK VINA RESULT:      -9.5      4.110      6.436
REMARK  4 active torsions:
REMARK  status: ('A' for Active; 'I' for Inactive)
REMARK    1  A    between atoms: C_4  and  S_5 
REMARK    2  A    between atoms: S_5  and  C_6 
REMARK    3  A    between atoms: C_6  and  C_7 
REMARK    4  A    between atoms: C_23  and  N_24 
ROOT
HETATM    1  C   UNL     1       6.861  27.154  55.136  1.00  0.00    -0.029 C 
HETATM    2  C   UNL     1       7.081  25.790  54.541  1.00  0.00     0.016 A 
HETATM    3  C   UNL     1       6.734  25.659  53.182  1.00  0.00     0.091 A 
HETATM    4  C   UNL     1       6.765  24.449  52.495  1.00  0.00     0.039 A 
HETATM    5  C   UNL     1       7.168  23.306  53.158  1.00  0.00     0.015 A 
HETATM    6  C   UNL     1       7.584  23.367  54.489  1.00  0.00    -0.025 A 
HETATM    7  C   UNL     1       7.584  24.605  55.206  1.00  0.00    -0.012 A 
HETATM    8  C   UNL     1       8.019  22.170  55.085  1.00  0.00     0.012 A 
HETATM    9  C   UNL     1       8.492  22.141  56.390  1.00  0.00     0.001 A 
HETATM   10  C   UNL     1       8.557  23.321  57.105  1.00  0.00     0.001 A 
HETATM   11  C   UNL     1       8.126  24.520  56.522  1.00  0.00     0.013 A 
HETATM   12  O   UNL     1       6.356  26.749  52.372  1.00  0.00    -0.275 OA
HETATM   13  C   UNL     1       6.381  28.034  52.855  1.00  0.00     0.288 C 
HETATM   14  O   UNL     1       6.193  29.013  52.144  1.00  0.00    -0.260 OA
HETATM   15  C   UNL     1       6.579  28.170  54.298  1.00  0.00     0.091 C 
ENDROOT
BRANCH   1  16
HETATM   16  C   UNL     1       6.919  27.355  56.636  1.00  0.00     0.122 C 
BRANCH  16  17
HETATM   17  S   UNL     1       6.292  28.941  57.270  1.00  0.00    -0.085 SA
BRANCH  17  18
HETATM   18  C   UNL     1       7.837  29.715  57.687  1.00  0.00     0.190 A 
HETATM   19  N   UNL     1       7.795  30.645  58.654  1.00  0.00    -0.228 NA
HETATM   20  C   UNL     1       8.956  31.251  58.966  1.00  0.00     0.036 A 
HETATM   21  C   UNL     1       8.924  32.301  60.033  1.00  0.00     0.070 C 
HETATM   22  C   UNL     1      10.141  30.929  58.339  1.00  0.00     0.071 A 
HETATM   23  C   UNL     1      10.082  29.948  57.376  1.00  0.00     0.105 A 
HETATM   24  N   UNL     1       8.945  29.339  57.029  1.00  0.00    -0.211 NA
BRANCH  23  25
HETATM   25  N   UNL     1      11.229  29.577  56.674  1.00  0.00    -0.287 NA
HETATM   26  H   UNL     1      11.154  28.589  56.451  1.00  0.00     0.125 HD
HETATM   27  H   UNL     1      12.075  29.782  57.194  1.00  0.00     0.125 HD
ENDBRANCH  23  25
ENDBRANCH  17  18
ENDBRANCH  16  17
ENDBRANCH   1  16
TORSDOF 4
ENDMDL
MODEL 5
REMARK VINA RESULT:      -9.4      3.642      5.619
REMARK  4 active torsions:
REMARK  status: ('A' for Active; 'I' for Inactive)
REMARK    1  A    between atoms: C_4  and  S_5 
REMARK    2  A    between atoms: S_5  and  C_6 
REMARK    3  A    between atoms: C_6  and  C_7 
REMARK    4  A    between atoms: C_23  and  N_24 
ROOT
HETATM    1  C   UNL     1       6.713  25.150  55.196  1.00  0.00    -0.029 C 
HETATM    2  C   UNL     1       7.233  23.888  54.563  1.00  0.00     0.016 A 
HETATM    3  C   UNL     1       7.187  23.853  53.155  1.00  0.00     0.091 A 
HETATM    4  C   UNL     1       7.521  22.731  52.404  1.00  0.00     0.039 A 
HETATM    5  C   UNL     1       7.936  21.584  53.052  1.00  0.00     0.015 A 
HETATM    6  C   UNL     1       8.065  21.560  54.441  1.00  0.00    -0.025 A 
HETATM    7  C   UNL     1       7.751  22.710  55.231  1.00  0.00    -0.012 A 
HETATM    8  C   UNL     1       8.532  20.369  55.026  1.00  0.00     0.012 A 
HETATM    9  C   UNL     1       8.733  20.267  56.396  1.00  0.00     0.001 A 
HETATM   10  C   UNL     1       8.491  21.368  57.193  1.00  0.00     0.001 A 
HETATM   11  C   UNL     1       8.025  22.559  56.621  1.00  0.00     0.013 A 
HETATM   12  O   UNL     1       6.834  24.966  52.366  1.00  0.00    -0.275 OA
HETATM   13  C   UNL     1       6.584  26.190  52.936  1.00  0.00     0.288 C 
HETATM   14  O   UNL     1       6.410  27.206  52.275  1.00  0.00    -0.260 OA
HETATM   15  C   UNL     1       6.469  26.203  54.394  1.00  0.00     0.091 C 
ENDROOT
BRANCH   1  16
HETATM   16  C   UNL     1       6.442  25.205  56.686  1.00  0.00     0.122 C 
BRANCH  16  17
HETATM   17  S   UNL     1       7.752  25.921  57.725  1.00  0.00    -0.085 SA
BRANCH  17  18
HETATM   18  C   UNL     1       7.215  27.616  57.737  1.00  0.00     0.190 A 
HETATM   19  N   UNL     1       8.132  28.528  58.096  1.00  0.00    -0.228 NA
HETATM   20  C   UNL     1       7.732  29.813  58.125  1.00  0.00     0.036 A 
HETATM   21  C   UNL     1       8.738  30.842  58.539  1.00  0.00     0.070 C 
HETATM   22  C   UNL     1       6.448  30.188  57.790  1.00  0.00     0.071 A 
HETATM   23  C   UNL     1       5.590  29.180  57.414  1.00  0.00     0.105 A 
HETATM   24  N   UNL     1       5.947  27.893  57.391  1.00  0.00    -0.211 NA
BRANCH  23  25
HETATM   25  N   UNL     1       4.266  29.466  57.082  1.00  0.00    -0.287 NA
HETATM   26  H   UNL     1       4.250  29.809  56.126  1.00  0.00     0.125 HD
HETATM   27  H   UNL     1       3.848  30.129  57.726  1.00  0.00     0.125 HD
ENDBRANCH  23  25
ENDBRANCH  17  18
ENDBRANCH  16  17
ENDBRANCH   1  16
TORSDOF 4
ENDMDL
MODEL 6
REMARK VINA RESULT:      -9.2      3.753      6.025
REMARK  4 active torsions:
REMARK  status: ('A' for Active; 'I' for Inactive)
REMARK    1  A    between atoms: C_4  and  S_5 
REMARK    2  A    between atoms: S_5  and  C_6 
REMARK    3  A    between atoms: C_6  and  C_7 
REMARK    4  A    between atoms: C_23  and  N_24 
ROOT
HETATM    1  C   UNL     1       5.787  27.003  53.911  1.00  0.00    -0.029 C 
HETATM    2  C   UNL     1       6.700  25.809  53.980  1.00  0.00     0.016 A 
HETATM    3  C   UNL     1       6.843  25.086  52.779  1.00  0.00     0.091 A 
HETATM    4  C   UNL     1       7.556  23.895  52.681  1.00  0.00     0.039 A 
HETATM    5  C   UNL     1       8.175  23.384  53.805  1.00  0.00     0.015 A 
HETATM    6  C   UNL     1       8.129  24.075  55.017  1.00  0.00    -0.025 A 
HETATM    7  C   UNL     1       7.423  25.313  55.134  1.00  0.00    -0.012 A 
HETATM    8  C   UNL     1       8.817  23.513  56.107  1.00  0.00     0.012 A 
HETATM    9  C   UNL     1       8.864  24.150  57.340  1.00  0.00     0.001 A 
HETATM   10  C   UNL     1       8.238  25.373  57.486  1.00  0.00     0.001 A 
HETATM   11  C   UNL     1       7.549  25.941  56.407  1.00  0.00     0.013 A 
HETATM   12  O   UNL     1       6.309  25.518  51.549  1.00  0.00    -0.275 OA
HETATM   13  C   UNL     1       5.673  26.730  51.437  1.00  0.00     0.288 C 
HETATM   14  O   UNL     1       5.321  27.197  50.361  1.00  0.00    -0.260 OA
HETATM   15  C   UNL     1       5.375  27.413  52.696  1.00  0.00     0.091 C 
ENDROOT
BRANCH   1  16
HETATM   16  C   UNL     1       5.325  27.690  55.180  1.00  0.00     0.122 C 
BRANCH  16  17
HETATM   17  S   UNL     1       5.322  29.509  55.166  1.00  0.00    -0.085 SA
BRANCH  17  18
HETATM   18  C   UNL     1       6.546  29.808  56.420  1.00  0.00     0.190 A 
HETATM   19  N   UNL     1       7.793  29.394  56.145  1.00  0.00    -0.228 NA
HETATM   20  C   UNL     1       8.725  29.600  57.095  1.00  0.00     0.036 A 
HETATM   21  C   UNL     1      10.119  29.131  56.810  1.00  0.00     0.070 C 
HETATM   22  C   UNL     1       8.427  30.217  58.292  1.00  0.00     0.071 A 
HETATM   23  C   UNL     1       7.124  30.624  58.468  1.00  0.00     0.105 A 
HETATM   24  N   UNL     1       6.170  30.420  57.554  1.00  0.00    -0.211 NA
BRANCH  23  25
HETATM   25  N   UNL     1       6.730  31.234  59.657  1.00  0.00    -0.287 NA
HETATM   26  H   UNL     1       7.435  31.922  59.906  1.00  0.00     0.125 HD
HETATM   27  H   UNL     1       6.584  30.560  60.400  1.00  0.00     0.125 HD
ENDBRANCH  23  25
ENDBRANCH  17  18
ENDBRANCH  16  17
ENDBRANCH   1  16
TORSDOF 4
ENDMDL
MODEL 7
REMARK VINA RESULT:      -9.0      4.247      6.776
REMARK  4 active torsions:
REMARK  status: ('A' for Active; 'I' for Inactive)
REMARK    1  A    between atoms: C_4  and  S_5 
REMARK    2  A    between atoms: S_5  and  C_6 
REMARK    3  A    between atoms: C_6  and  C_7 
REMARK    4  A    between atoms: C_23  and  N_24 
ROOT
HETATM    1  C   UNL     1       5.932  27.532  55.709  1.00  0.00    -0.029 C 
HETATM    2  C   UNL     1       6.014  26.356  54.774  1.00  0.00     0.016 A 
HETATM    3  C   UNL     1       5.140  26.399  53.670  1.00  0.00     0.091 A 
HETATM    4  C   UNL     1       4.997  25.353  52.763  1.00  0.00     0.039 A 
HETATM    5  C   UNL     1       5.754  24.209  52.928  1.00  0.00     0.015 A 
HETATM    6  C   UNL     1       6.685  24.116  53.964  1.00  0.00    -0.025 A 
HETATM    7  C   UNL     1       6.866  25.190  54.892  1.00  0.00    -0.012 A 
HETATM    8  C   UNL     1       7.447  22.937  54.043  1.00  0.00     0.012 A 
HETATM    9  C   UNL     1       8.428  22.773  55.012  1.00  0.00     0.001 A 
HETATM   10  C   UNL     1       8.672  23.803  55.900  1.00  0.00     0.001 A 
HETATM   11  C   UNL     1       7.918  24.982  55.830  1.00  0.00     0.013 A 
HETATM   12  O   UNL     1       4.350  27.521  53.352  1.00  0.00    -0.275 OA
HETATM   13  C   UNL     1       4.448  28.686  54.074  1.00  0.00     0.288 C 
HETATM   14  O   UNL     1       3.882  29.720  53.743  1.00  0.00    -0.260 OA
HETATM   15  C   UNL     1       5.223  28.606  55.311  1.00  0.00     0.091 C 
ENDROOT
BRANCH   1  16
HETATM   16  C   UNL     1       6.599  27.479  57.068  1.00  0.00     0.122 C 
BRANCH  16  17
HETATM   17  S   UNL     1       8.268  28.193  57.184  1.00  0.00    -0.085 SA
BRANCH  17  18
HETATM   18  C   UNL     1       7.904  29.612  58.192  1.00  0.00     0.190 A 
HETATM   19  N   UNL     1       8.546  29.686  59.368  1.00  0.00    -0.228 NA
HETATM   20  C   UNL     1       8.265  30.748  60.148  1.00  0.00     0.036 A 
HETATM   21  C   UNL     1       8.962  30.838  61.471  1.00  0.00     0.070 C 
HETATM   22  C   UNL     1       7.373  31.725  59.761  1.00  0.00     0.071 A 
HETATM   23  C   UNL     1       6.785  31.568  58.527  1.00  0.00     0.105 A 
HETATM   24  N   UNL     1       7.026  30.519  57.735  1.00  0.00    -0.211 NA
BRANCH  23  25
HETATM   25  N   UNL     1       5.852  32.496  58.066  1.00  0.00    -0.287 NA
HETATM   26  H   UNL     1       4.927  32.168  58.328  1.00  0.00     0.125 HD
HETATM   27  H   UNL     1       5.927  32.647  57.066  1.00  0.00     0.125 HD
ENDBRANCH  23  25
ENDBRANCH  17  18
ENDBRANCH  16  17
ENDBRANCH   1  16
TORSDOF 4
ENDMDL
MODEL 8
REMARK VINA RESULT:      -8.9      1.987      3.109
REMARK  4 active torsions:
REMARK  status: ('A' for Active; 'I' for Inactive)
REMARK    1  A    between atoms: C_4  and  S_5 
REMARK    2  A    between atoms: S_5  and  C_6 
REMARK    3  A    between atoms: C_6  and  C_7 
REMARK    4  A    between atoms: C_23  and  N_24 
ROOT
HETATM    1  C   UNL     1       5.012  27.543  53.756  1.00  0.00    -0.029 C 
HETATM    2  C   UNL     1       5.805  26.574  54.590  1.00  0.00     0.016 A 
HETATM    3  C   UNL     1       5.853  26.860  55.969  1.00  0.00     0.091 A 
HETATM    4  C   UNL     1       6.625  26.141  56.876  1.00  0.00     0.039 A 
HETATM    5  C   UNL     1       7.382  25.077  56.423  1.00  0.00     0.015 A 
HETATM    6  C   UNL     1       7.339  24.695  55.081  1.00  0.00    -0.025 A 
HETATM    7  C   UNL     1       6.532  25.405  54.137  1.00  0.00    -0.012 A 
HETATM    8  C   UNL     1       8.105  23.577  54.704  1.00  0.00     0.012 A 
HETATM    9  C   UNL     1       8.091  23.098  53.401  1.00  0.00     0.001 A 
HETATM   10  C   UNL     1       7.288  23.722  52.466  1.00  0.00     0.001 A 
HETATM   11  C   UNL     1       6.522  24.836  52.831  1.00  0.00     0.013 A 
HETATM   12  O   UNL     1       5.093  27.882  56.573  1.00  0.00    -0.275 OA
HETATM   13  C   UNL     1       4.189  28.618  55.848  1.00  0.00     0.288 C 
HETATM   14  O   UNL     1       3.417  29.415  56.365  1.00  0.00    -0.260 OA
HETATM   15  C   UNL     1       4.245  28.446  54.396  1.00  0.00     0.091 C 
ENDROOT
BRANCH   1  16
HETATM   16  C   UNL     1       5.115  27.517  52.245  1.00  0.00     0.122 C 
BRANCH  16  17
HETATM   17  S   UNL     1       4.447  28.959  51.359  1.00  0.00    -0.085 SA
BRANCH  17  18
HETATM   18  C   UNL     1       4.124  28.203  49.783  1.00  0.00     0.190 A 
HETATM   19  N   UNL     1       2.833  28.019  49.465  1.00  0.00    -0.228 NA
HETATM   20  C   UNL     1       2.576  27.431  48.280  1.00  0.00     0.036 A 
HETATM   21  C   UNL     1       1.141  27.204  47.917  1.00  0.00     0.070 C 
HETATM   22  C   UNL     1       3.583  27.046  47.421  1.00  0.00     0.071 A 
HETATM   23  C   UNL     1       4.873  27.299  47.830  1.00  0.00     0.105 A 
HETATM   24  N   UNL     1       5.164  27.863  49.005  1.00  0.00    -0.211 NA
BRANCH  23  25
HETATM   25  N   UNL     1       5.953  26.920  47.034  1.00  0.00    -0.287 NA
HETATM   26  H   UNL     1       5.589  26.616  46.135  1.00  0.00     0.125 HD
HETATM   27  H   UNL     1       6.515  26.200  47.474  1.00  0.00     0.125 HD
ENDBRANCH  23  25
ENDBRANCH  17  18
ENDBRANCH  16  17
ENDBRANCH   1  16
TORSDOF 4
ENDMDL
MODEL 9
REMARK VINA RESULT:      -8.8      2.319      4.472
REMARK  4 active torsions:
REMARK  status: ('A' for Active; 'I' for Inactive)
REMARK    1  A    between atoms: C_4  and  S_5 
REMARK    2  A    between atoms: S_5  and  C_6 
REMARK    3  A    between atoms: C_6  and  C_7 
REMARK    4  A    between atoms: C_23  and  N_24 
ROOT
HETATM    1  C   UNL     1       7.500  24.383  53.082  1.00  0.00    -0.029 C 
HETATM    2  C   UNL     1       7.692  24.729  54.533  1.00  0.00     0.016 A 
HETATM    3  C   UNL     1       7.798  23.631  55.408  1.00  0.00     0.091 A 
HETATM    4  C   UNL     1       7.868  23.756  56.793  1.00  0.00     0.039 A 
HETATM    5  C   UNL     1       7.848  25.017  57.358  1.00  0.00     0.015 A 
HETATM    6  C   UNL     1       7.804  26.156  56.552  1.00  0.00    -0.025 A 
HETATM    7  C   UNL     1       7.757  26.050  55.127  1.00  0.00    -0.012 A 
HETATM    8  C   UNL     1       7.827  27.405  57.199  1.00  0.00     0.012 A 
HETATM    9  C   UNL     1       7.831  28.592  56.479  1.00  0.00     0.001 A 
HETATM   10  C   UNL     1       7.836  28.538  55.099  1.00  0.00     0.001 A 
HETATM   11  C   UNL     1       7.813  27.300  54.445  1.00  0.00     0.013 A 
HETATM   12  O   UNL     1       7.883  22.295  54.967  1.00  0.00    -0.275 OA
HETATM   13  C   UNL     1       7.944  21.994  53.629  1.00  0.00     0.288 C 
HETATM   14  O   UNL     1       8.156  20.861  53.214  1.00  0.00    -0.260 OA
HETATM   15  C   UNL     1       7.672  23.100  52.711  1.00  0.00     0.091 C 
ENDROOT
BRANCH   1  16
HETATM   16  C   UNL     1       7.089  25.449  52.087  1.00  0.00     0.122 C 
BRANCH  16  17
HETATM   17  S   UNL     1       5.325  25.513  51.646  1.00  0.00    -0.085 SA
BRANCH  17  18
HETATM   18  C   UNL     1       4.899  27.070  52.392  1.00  0.00     0.190 A 
HETATM   19  N   UNL     1       4.951  28.147  51.593  1.00  0.00    -0.228 NA
HETATM   20  C   UNL     1       4.647  29.334  52.152  1.00  0.00     0.036 A 
HETATM   21  C   UNL     1       4.715  30.548  51.277  1.00  0.00     0.070 C 
HETATM   22  C   UNL     1       4.285  29.448  53.477  1.00  0.00     0.071 A 
HETATM   23  C   UNL     1       4.241  28.282  54.206  1.00  0.00     0.105 A 
HETATM   24  N   UNL     1       4.553  27.090  53.690  1.00  0.00    -0.211 NA
BRANCH  23  25
HETATM   25  N   UNL     1       3.909  28.307  55.560  1.00  0.00    -0.287 NA
HETATM   26  H   UNL     1       4.173  29.216  55.931  1.00  0.00     0.125 HD
HETATM   27  H   UNL     1       4.348  27.551  56.074  1.00  0.00     0.125 HD
ENDBRANCH  23  25
ENDBRANCH  17  18
ENDBRANCH  16  17
ENDBRANCH   1  16
TORSDOF 4
ENDMDL
MODEL 10
REMARK VINA RESULT:      -8.8      4.519      7.690
REMARK  4 active torsions:
REMARK  status: ('A' for Active; 'I' for Inactive)
REMARK    1  A    between atoms: C_4  and  S_5 
REMARK    2  A    between atoms: S_5  and  C_6 
REMARK    3  A    between atoms: C_6  and  C_7 
REMARK    4  A    between atoms: C_23  and  N_24 
ROOT
HETATM    1  C   UNL     1       8.368  29.235  56.880  1.00  0.00    -0.029 C 
HETATM    2  C   UNL     1       7.837  30.304  57.796  1.00  0.00     0.016 A 
HETATM    3  C   UNL     1       8.806  30.980  58.563  1.00  0.00     0.091 A 
HETATM    4  C   UNL     1       8.492  31.919  59.541  1.00  0.00     0.039 A 
HETATM    5  C   UNL     1       7.167  32.229  59.778  1.00  0.00     0.015 A 
HETATM    6  C   UNL     1       6.153  31.645  59.017  1.00  0.00    -0.025 A 
HETATM    7  C   UNL     1       6.455  30.696  57.990  1.00  0.00    -0.012 A 
HETATM    8  C   UNL     1       4.831  32.040  59.290  1.00  0.00     0.012 A 
HETATM    9  C   UNL     1       3.762  31.546  58.556  1.00  0.00     0.001 A 
HETATM   10  C   UNL     1       4.010  30.665  57.521  1.00  0.00     0.001 A 
HETATM   11  C   UNL     1       5.323  30.263  57.241  1.00  0.00     0.013 A 
HETATM   12  O   UNL     1      10.193  30.801  58.389  1.00  0.00    -0.275 OA
HETATM   13  C   UNL     1      10.685  29.997  57.391  1.00  0.00     0.288 C 
HETATM   14  O   UNL     1      11.878  29.926  57.124  1.00  0.00    -0.260 OA
HETATM   15  C   UNL     1       9.701  29.167  56.697  1.00  0.00     0.091 C 
ENDROOT
BRANCH   1  16
HETATM   16  C   UNL     1       7.424  28.249  56.223  1.00  0.00     0.122 C 
BRANCH  16  17
HETATM   17  S   UNL     1       7.479  26.537  56.836  1.00  0.00    -0.085 SA
BRANCH  17  18
HETATM   18  C   UNL     1       6.903  25.692  55.382  1.00  0.00     0.190 A 
HETATM   19  N   UNL     1       7.716  24.751  54.880  1.00  0.00    -0.228 NA
HETATM   20  C   UNL     1       7.298  24.116  53.768  1.00  0.00     0.036 A 
HETATM   21  C   UNL     1       8.201  23.072  53.185  1.00  0.00     0.070 C 
HETATM   22  C   UNL     1       6.087  24.402  53.174  1.00  0.00     0.071 A 
HETATM   23  C   UNL     1       5.316  25.368  53.778  1.00  0.00     0.105 A 
HETATM   24  N   UNL     1       5.708  26.030  54.871  1.00  0.00    -0.211 NA
BRANCH  23  25
HETATM   25  N   UNL     1       4.088  25.737  53.231  1.00  0.00    -0.287 NA
HETATM   26  H   UNL     1       4.051  26.752  53.201  1.00  0.00     0.125 HD
HETATM   27  H   UNL     1       3.309  25.348  53.750  1.00  0.00     0.125 HD
ENDBRANCH  23  25
ENDBRANCH  17  18
ENDBRANCH  16  17
ENDBRANCH   1  16
TORSDOF 4
ENDMDL
