MODEL 1
REMARK VINA RESULT:      -7.9      0.000      0.000
REMARK  2 active torsions:
REMARK  status: ('A' for Active; 'I' for Inactive)
REMARK    1  A    between atoms: C_8  and  S_9 
REMARK    2  A    between atoms: S_9  and  C_10 
ROOT
HETATM    1  C   UNL     1       8.361  20.416  53.091  1.00  0.00     0.002 A 
HETATM    2  C   UNL     1       7.999  21.757  52.960  1.00  0.00     0.034 A 
HETATM    3  C   UNL     1       8.089  22.635  54.032  1.00  0.00     0.087 A 
HETATM    4  C   UNL     1       8.562  22.153  55.283  1.00  0.00     0.087 A 
HETATM    5  N   UNL     1       8.668  22.964  56.355  1.00  0.00    -0.232 NA
HETATM    6  C   UNL     1       8.333  24.256  56.168  1.00  0.00     0.164 A 
HETATM    7 CL   UNL     1       8.486  25.229  57.573  1.00  0.00    -0.059 Cl
HETATM    8  C   UNL     1       7.869  24.726  54.953  1.00  0.00     0.165 A 
HETATM    9  N   UNL     1       7.720  23.923  53.870  1.00  0.00    -0.234 NA
HETATM   10  C   UNL     1       8.916  20.815  55.399  1.00  0.00     0.034 A 
HETATM   11  C   UNL     1       8.820  19.943  54.314  1.00  0.00     0.002 A 
ENDROOT
BRANCH   8  12
HETATM   12  S   UNL     1       7.389  26.422  54.652  1.00  0.00     0.076 S 
HETATM   13  O   UNL     1       7.887  26.813  53.291  1.00  0.00    -0.251 OA
BRANCH  12  14
HETATM   14  C   UNL     1       5.569  26.207  54.502  1.00  0.00     0.089 C 
HETATM   15  C   UNL     1       4.794  27.508  54.257  1.00  0.00     0.045 C 
HETATM   16  C   UNL     1       4.756  28.432  55.465  1.00  0.00     0.233 C 
HETATM   17  N   UNL     1       4.231  27.682  56.646  1.00  0.00    -0.075 N 
HETATM   18  H   UNL     1       3.233  27.470  56.514  1.00  0.00     0.277 HD
HETATM   19  H   UNL     1       4.275  28.312  57.461  1.00  0.00     0.277 HD
HETATM   20  C   UNL     1       4.983  26.440  56.984  1.00  0.00     0.233 C 
HETATM   21  C   UNL     1       5.040  25.517  55.771  1.00  0.00     0.045 C 
ENDBRANCH  12  14
ENDBRANCH   8  12
TORSDOF 2
ENDMDL
MODEL 2
REMARK VINA RESULT:      -7.9      2.107      2.700
REMARK  2 active torsions:
REMARK  status: ('A' for Active; 'I' for Inactive)
REMARK    1  A    between atoms: C_8  and  S_9 
REMARK    2  A    between atoms: S_9  and  C_10 
ROOT
HETATM    1  C   UNL     1       8.545  20.437  56.266  1.00  0.00     0.002 A 
HETATM    2  C   UNL     1       8.201  21.778  56.436  1.00  0.00     0.034 A 
HETATM    3  C   UNL     1       8.044  22.626  55.348  1.00  0.00     0.087 A 
HETATM    4  C   UNL     1       8.237  22.110  54.037  1.00  0.00     0.087 A 
HETATM    5  N   UNL     1       8.098  22.890  52.947  1.00  0.00    -0.232 NA
HETATM    6  C   UNL     1       7.737  24.171  53.164  1.00  0.00     0.164 A 
HETATM    7 CL   UNL     1       7.583  25.108  51.736  1.00  0.00    -0.059 Cl
HETATM    8  C   UNL     1       7.552  24.675  54.439  1.00  0.00     0.165 A 
HETATM    9  N   UNL     1       7.721  23.919  55.553  1.00  0.00    -0.234 NA
HETATM   10  C   UNL     1       8.582  20.774  53.883  1.00  0.00     0.034 A 
HETATM   11  C   UNL     1       8.738  19.933  54.986  1.00  0.00     0.002 A 
ENDROOT
BRANCH   8  12
HETATM   12  S   UNL     1       7.095  26.368  54.790  1.00  0.00     0.076 S 
HETATM   13  O   UNL     1       5.824  26.670  54.052  1.00  0.00    -0.251 OA
BRANCH  12  14
HETATM   14  C   UNL     1       6.644  26.205  56.566  1.00  0.00     0.089 C 
HETATM   15  C   UNL     1       5.274  26.792  56.929  1.00  0.00     0.045 C 
HETATM   16  C   UNL     1       5.230  28.312  56.882  1.00  0.00     0.233 C 
HETATM   17  N   UNL     1       6.320  28.866  57.740  1.00  0.00    -0.075 N 
HETATM   18  H   UNL     1       6.119  28.682  58.732  1.00  0.00     0.277 HD
HETATM   19  H   UNL     1       6.306  29.891  57.640  1.00  0.00     0.277 HD
HETATM   20  C   UNL     1       7.691  28.390  57.395  1.00  0.00     0.233 C 
HETATM   21  C   UNL     1       7.737  26.865  57.423  1.00  0.00     0.045 C 
ENDBRANCH  12  14
ENDBRANCH   8  12
TORSDOF 2
ENDMDL
MODEL 3
REMARK VINA RESULT:      -7.6      1.881      2.481
REMARK  2 active torsions:
REMARK  status: ('A' for Active; 'I' for Inactive)
REMARK    1  A    between atoms: C_8  and  S_9 
REMARK    2  A    between atoms: S_9  and  C_10 
ROOT
HETATM    1  C   UNL     1       8.735  19.954  54.515  1.00  0.00     0.002 A 
HETATM    2  C   UNL     1       8.408  21.134  53.845  1.00  0.00     0.034 A 
HETATM    3  C   UNL     1       8.153  22.309  54.539  1.00  0.00     0.087 A 
HETATM    4  C   UNL     1       8.231  22.305  55.958  1.00  0.00     0.087 A 
HETATM    5  N   UNL     1       7.993  23.419  56.679  1.00  0.00    -0.232 NA
HETATM    6  C   UNL     1       7.709  24.538  55.983  1.00  0.00     0.164 A 
HETATM    7 CL   UNL     1       7.411  25.915  56.961  1.00  0.00    -0.059 Cl
HETATM    8  C   UNL     1       7.629  24.543  54.602  1.00  0.00     0.165 A 
HETATM    9  N   UNL     1       7.830  23.427  53.857  1.00  0.00    -0.234 NA
HETATM   10  C   UNL     1       8.555  21.124  56.612  1.00  0.00     0.034 A 
HETATM   11  C   UNL     1       8.808  19.949  55.902  1.00  0.00     0.002 A 
ENDROOT
BRANCH   8  12
HETATM   12  S   UNL     1       7.235  25.989  53.626  1.00  0.00     0.076 S 
HETATM   13  O   UNL     1       7.821  25.801  52.257  1.00  0.00    -0.251 OA
BRANCH  12  14
HETATM   14  C   UNL     1       5.418  25.762  53.455  1.00  0.00     0.089 C 
HETATM   15  C   UNL     1       4.984  25.079  52.153  1.00  0.00     0.045 C 
HETATM   16  C   UNL     1       5.162  25.950  50.918  1.00  0.00     0.233 C 
HETATM   17  N   UNL     1       4.462  27.253  51.126  1.00  0.00    -0.075 N 
HETATM   18  H   UNL     1       3.443  27.110  51.135  1.00  0.00     0.277 HD
HETATM   19  H   UNL     1       4.651  27.845  50.303  1.00  0.00     0.277 HD
HETATM   20  C   UNL     1       4.889  28.006  52.341  1.00  0.00     0.233 C 
HETATM   21  C   UNL     1       4.729  27.131  53.580  1.00  0.00     0.045 C 
ENDBRANCH  12  14
ENDBRANCH   8  12
TORSDOF 2
ENDMDL
MODEL 4
REMARK VINA RESULT:      -7.2      1.800      2.117
REMARK  2 active torsions:
REMARK  status: ('A' for Active; 'I' for Inactive)
REMARK    1  A    between atoms: C_8  and  S_9 
REMARK    2  A    between atoms: S_9  and  C_10 
ROOT
HETATM    1  C   UNL     1       8.436  20.355  53.219  1.00  0.00     0.002 A 
HETATM    2  C   UNL     1       7.592  21.466  53.235  1.00  0.00     0.034 A 
HETATM    3  C   UNL     1       7.626  22.382  54.277  1.00  0.00     0.087 A 
HETATM    4  C   UNL     1       8.543  22.181  55.344  1.00  0.00     0.087 A 
HETATM    5  N   UNL     1       8.617  23.041  56.380  1.00  0.00    -0.232 NA
HETATM    6  C   UNL     1       7.800  24.112  56.333  1.00  0.00     0.164 A 
HETATM    7 CL   UNL     1       7.941  25.160  57.684  1.00  0.00    -0.059 Cl
HETATM    8  C   UNL     1       6.905  24.308  55.297  1.00  0.00     0.165 A 
HETATM    9  N   UNL     1       6.787  23.439  54.262  1.00  0.00    -0.234 NA
HETATM   10  C   UNL     1       9.376  21.070  55.317  1.00  0.00     0.034 A 
HETATM   11  C   UNL     1       9.329  20.156  54.263  1.00  0.00     0.002 A 
ENDROOT
BRANCH   8  12
HETATM   12  S   UNL     1       5.782  25.696  55.192  1.00  0.00     0.076 S 
HETATM   13  O   UNL     1       5.143  25.881  56.537  1.00  0.00    -0.251 OA
BRANCH  12  14
HETATM   14  C   UNL     1       6.996  27.063  54.995  1.00  0.00     0.089 C 
HETATM   15  C   UNL     1       6.609  28.364  55.708  1.00  0.00     0.045 C 
HETATM   16  C   UNL     1       5.434  29.086  55.063  1.00  0.00     0.233 C 
HETATM   17  N   UNL     1       5.725  29.308  53.615  1.00  0.00    -0.075 N 
HETATM   18  H   UNL     1       6.480  29.999  53.507  1.00  0.00     0.277 HD
HETATM   19  H   UNL     1       4.892  29.741  53.191  1.00  0.00     0.277 HD
HETATM   20  C   UNL     1       6.043  28.072  52.843  1.00  0.00     0.233 C 
HETATM   21  C   UNL     1       7.207  27.333  53.496  1.00  0.00     0.045 C 
ENDBRANCH  12  14
ENDBRANCH   8  12
TORSDOF 2
ENDMDL
MODEL 5
REMARK VINA RESULT:      -7.0      5.251      8.533
REMARK  2 active torsions:
REMARK  status: ('A' for Active; 'I' for Inactive)
REMARK    1  A    between atoms: C_8  and  S_9 
REMARK    2  A    between atoms: S_9  and  C_10 
ROOT
HETATM    1  C   UNL     1       8.764  31.696  62.444  1.00  0.00     0.002 A 
HETATM    2  C   UNL     1       8.973  30.788  61.405  1.00  0.00     0.034 A 
HETATM    3  C   UNL     1       8.191  30.813  60.258  1.00  0.00     0.087 A 
HETATM    4  C   UNL     1       7.161  31.785  60.145  1.00  0.00     0.087 A 
HETATM    5  N   UNL     1       6.373  31.852  59.053  1.00  0.00    -0.232 NA
HETATM    6  C   UNL     1       6.634  30.972  58.067  1.00  0.00     0.164 A 
HETATM    7 CL   UNL     1       5.592  31.108  56.711  1.00  0.00    -0.059 Cl
HETATM    8  C   UNL     1       7.634  30.022  58.177  1.00  0.00     0.165 A 
HETATM    9  N   UNL     1       8.416  29.912  59.280  1.00  0.00    -0.234 NA
HETATM   10  C   UNL     1       6.963  32.681  61.188  1.00  0.00     0.034 A 
HETATM   11  C   UNL     1       7.756  32.644  62.336  1.00  0.00     0.002 A 
ENDROOT
BRANCH   8  12
HETATM   12  S   UNL     1       8.012  28.814  56.913  1.00  0.00     0.076 S 
HETATM   13  O   UNL     1       9.447  28.405  57.074  1.00  0.00    -0.251 OA
BRANCH  12  14
HETATM   14  C   UNL     1       6.994  27.406  57.515  1.00  0.00     0.089 C 
HETATM   15  C   UNL     1       7.574  26.022  57.199  1.00  0.00     0.045 C 
HETATM   16  C   UNL     1       7.513  25.657  55.723  1.00  0.00     0.233 C 
HETATM   17  N   UNL     1       6.107  25.797  55.237  1.00  0.00    -0.075 N 
HETATM   18  H   UNL     1       5.513  25.070  55.657  1.00  0.00     0.277 HD
HETATM   19  H   UNL     1       6.105  25.605  54.225  1.00  0.00     0.277 HD
HETATM   20  C   UNL     1       5.502  27.144  55.450  1.00  0.00     0.233 C 
HETATM   21  C   UNL     1       5.578  27.524  56.926  1.00  0.00     0.045 C 
ENDBRANCH  12  14
ENDBRANCH   8  12
TORSDOF 2
ENDMDL
MODEL 6
REMARK VINA RESULT:      -6.9      2.635      3.454
REMARK  2 active torsions:
REMARK  status: ('A' for Active; 'I' for Inactive)
REMARK    1  A    between atoms: C_8  and  S_9 
REMARK    2  A    between atoms: S_9  and  C_10 
ROOT
HETATM    1  C   UNL     1       8.551  21.713  55.147  1.00  0.00     0.002 A 
HETATM    2  C   UNL     1       7.932  22.825  55.720  1.00  0.00     0.034 A 
HETATM    3  C   UNL     1       7.238  23.743  54.944  1.00  0.00     0.087 A 
HETATM    4  C   UNL     1       7.157  23.540  53.540  1.00  0.00     0.087 A 
HETATM    5  N   UNL     1       6.496  24.401  52.741  1.00  0.00    -0.232 NA
HETATM    6  C   UNL     1       5.893  25.443  53.347  1.00  0.00     0.164 A 
HETATM    7 CL   UNL     1       5.075  26.501  52.273  1.00  0.00    -0.059 Cl
HETATM    8  C   UNL     1       5.973  25.644  54.713  1.00  0.00     0.165 A 
HETATM    9  N   UNL     1       6.662  24.811  55.533  1.00  0.00    -0.234 NA
HETATM   10  C   UNL     1       7.780  22.430  52.983  1.00  0.00     0.034 A 
HETATM   11  C   UNL     1       8.476  21.516  53.775  1.00  0.00     0.002 A 
ENDROOT
BRANCH   8  12
HETATM   12  S   UNL     1       5.213  27.018  55.570  1.00  0.00     0.076 S 
HETATM   13  O   UNL     1       5.069  26.643  57.016  1.00  0.00    -0.251 OA
BRANCH  12  14
HETATM   14  C   UNL     1       6.586  28.238  55.479  1.00  0.00     0.089 C 
HETATM   15  C   UNL     1       7.811  27.880  56.329  1.00  0.00     0.045 C 
HETATM   16  C   UNL     1       7.572  28.006  57.827  1.00  0.00     0.233 C 
HETATM   17  N   UNL     1       7.060  29.376  58.133  1.00  0.00    -0.075 N 
HETATM   18  H   UNL     1       7.801  30.073  57.980  1.00  0.00     0.277 HD
HETATM   19  H   UNL     1       6.848  29.413  59.141  1.00  0.00     0.277 HD
HETATM   20  C   UNL     1       5.826  29.764  57.390  1.00  0.00     0.233 C 
HETATM   21  C   UNL     1       6.054  29.622  55.888  1.00  0.00     0.045 C 
ENDBRANCH  12  14
ENDBRANCH   8  12
TORSDOF 2
ENDMDL
MODEL 7
REMARK VINA RESULT:      -6.8      1.820      2.382
REMARK  2 active torsions:
REMARK  status: ('A' for Active; 'I' for Inactive)
REMARK    1  A    between atoms: C_8  and  S_9 
REMARK    2  A    between atoms: S_9  and  C_10 
ROOT
HETATM    1  C   UNL     1       7.947  21.981  54.355  1.00  0.00     0.002 A 
HETATM    2  C   UNL     1       7.520  23.238  53.927  1.00  0.00     0.034 A 
HETATM    3  C   UNL     1       7.487  24.322  54.796  1.00  0.00     0.087 A 
HETATM    4  C   UNL     1       7.900  24.140  56.143  1.00  0.00     0.087 A 
HETATM    5  N   UNL     1       7.886  25.158  57.027  1.00  0.00    -0.232 NA
HETATM    6  C   UNL     1       7.493  26.358  56.557  1.00  0.00     0.164 A 
HETATM    7 CL   UNL     1       7.494  27.607  57.733  1.00  0.00    -0.059 Cl
HETATM    8  C   UNL     1       7.088  26.536  55.246  1.00  0.00     0.165 A 
HETATM    9  N   UNL     1       7.058  25.520  54.348  1.00  0.00    -0.234 NA
HETATM   10  C   UNL     1       8.320  22.882  56.556  1.00  0.00     0.034 A 
HETATM   11  C   UNL     1       8.347  21.801  55.672  1.00  0.00     0.002 A 
ENDROOT
BRANCH   8  12
HETATM   12  S   UNL     1       6.535  28.098  54.572  1.00  0.00     0.076 S 
HETATM   13  O   UNL     1       6.845  28.107  53.103  1.00  0.00    -0.251 OA
BRANCH  12  14
HETATM   14  C   UNL     1       4.715  27.873  54.722  1.00  0.00     0.089 C 
HETATM   15  C   UNL     1       3.906  28.450  53.554  1.00  0.00     0.045 C 
HETATM   16  C   UNL     1       3.887  29.972  53.518  1.00  0.00     0.233 C 
HETATM   17  N   UNL     1       3.414  30.492  54.837  1.00  0.00    -0.075 N 
HETATM   18  H   UNL     1       2.417  30.273  54.966  1.00  0.00     0.277 HD
HETATM   19  H   UNL     1       3.470  31.520  54.805  1.00  0.00     0.277 HD
HETATM   20  C   UNL     1       4.203  30.024  56.013  1.00  0.00     0.233 C 
HETATM   21  C   UNL     1       4.241  28.500  56.044  1.00  0.00     0.045 C 
ENDBRANCH  12  14
ENDBRANCH   8  12
TORSDOF 2
ENDMDL
MODEL 8
REMARK VINA RESULT:      -6.8      3.587      4.432
REMARK  2 active torsions:
REMARK  status: ('A' for Active; 'I' for Inactive)
REMARK    1  A    between atoms: C_8  and  S_9 
REMARK    2  A    between atoms: S_9  and  C_10 
ROOT
HETATM    1  C   UNL     1       8.304  22.737  54.710  1.00  0.00     0.002 A 
HETATM    2  C   UNL     1       8.247  23.974  55.354  1.00  0.00     0.034 A 
HETATM    3  C   UNL     1       7.760  25.102  54.707  1.00  0.00     0.087 A 
HETATM    4  C   UNL     1       7.310  24.987  53.364  1.00  0.00     0.087 A 
HETATM    5  N   UNL     1       6.828  26.051  52.690  1.00  0.00    -0.232 NA
HETATM    6  C   UNL     1       6.768  27.215  53.367  1.00  0.00     0.164 A 
HETATM    7 CL   UNL     1       6.152  28.528  52.449  1.00  0.00    -0.059 Cl
HETATM    8  C   UNL     1       7.208  27.329  54.673  1.00  0.00     0.165 A 
HETATM    9  N   UNL     1       7.730  26.282  55.359  1.00  0.00    -0.234 NA
HETATM   10  C   UNL     1       7.375  23.751  52.734  1.00  0.00     0.034 A 
HETATM   11  C   UNL     1       7.868  22.626  53.396  1.00  0.00     0.002 A 
ENDROOT
BRANCH   8  12
HETATM   12  S   UNL     1       7.174  28.850  55.613  1.00  0.00     0.076 S 
HETATM   13  O   UNL     1       5.774  29.060  56.109  1.00  0.00    -0.251 OA
BRANCH  12  14
HETATM   14  C   UNL     1       8.176  28.338  57.068  1.00  0.00     0.089 C 
HETATM   15  C   UNL     1       7.740  28.974  58.394  1.00  0.00     0.045 C 
HETATM   16  C   UNL     1       8.051  30.460  58.489  1.00  0.00     0.233 C 
HETATM   17  N   UNL     1       9.503  30.680  58.214  1.00  0.00    -0.075 N 
HETATM   18  H   UNL     1      10.071  30.298  58.983  1.00  0.00     0.277 HD
HETATM   19  H   UNL     1       9.673  31.697  58.224  1.00  0.00     0.277 HD
HETATM   20  C   UNL     1       9.981  30.147  56.906  1.00  0.00     0.233 C 
HETATM   21  C   UNL     1       9.655  28.661  56.797  1.00  0.00     0.045 C 
ENDBRANCH  12  14
ENDBRANCH   8  12
TORSDOF 2
ENDMDL
MODEL 9
REMARK VINA RESULT:      -6.6      3.859      6.558
REMARK  2 active torsions:
REMARK  status: ('A' for Active; 'I' for Inactive)
REMARK    1  A    between atoms: C_8  and  S_9 
REMARK    2  A    between atoms: S_9  and  C_10 
ROOT
HETATM    1  C   UNL     1      10.846  30.402  57.325  1.00  0.00     0.002 A 
HETATM    2  C   UNL     1      10.242  29.654  56.314  1.00  0.00     0.034 A 
HETATM    3  C   UNL     1       8.875  29.408  56.318  1.00  0.00     0.087 A 
HETATM    4  C   UNL     1       8.082  29.933  57.373  1.00  0.00     0.087 A 
HETATM    5  N   UNL     1       6.751  29.723  57.425  1.00  0.00    -0.232 NA
HETATM    6  C   UNL     1       6.213  29.019  56.409  1.00  0.00     0.164 A 
HETATM    7 CL   UNL     1       4.518  28.785  56.540  1.00  0.00    -0.059 Cl
HETATM    8  C   UNL     1       6.984  28.505  55.382  1.00  0.00     0.165 A 
HETATM    9  N   UNL     1       8.329  28.672  55.328  1.00  0.00    -0.234 NA
HETATM   10  C   UNL     1       8.697  30.673  58.375  1.00  0.00     0.034 A 
HETATM   11  C   UNL     1      10.072  30.911  58.359  1.00  0.00     0.002 A 
ENDROOT
BRANCH   8  12
HETATM   12  S   UNL     1       6.330  27.546  54.022  1.00  0.00     0.076 S 
HETATM   13  O   UNL     1       6.353  28.406  52.792  1.00  0.00    -0.251 OA
BRANCH  12  14
HETATM   14  C   UNL     1       7.686  26.318  53.828  1.00  0.00     0.089 C 
HETATM   15  C   UNL     1       7.681  25.574  52.488  1.00  0.00     0.045 C 
HETATM   16  C   UNL     1       6.535  24.583  52.344  1.00  0.00     0.233 C 
HETATM   17  N   UNL     1       6.544  23.644  53.505  1.00  0.00    -0.075 N 
HETATM   18  H   UNL     1       7.363  23.024  53.453  1.00  0.00     0.277 HD
HETATM   19  H   UNL     1       5.723  23.027  53.415  1.00  0.00     0.277 HD
HETATM   20  C   UNL     1       6.479  24.301  54.843  1.00  0.00     0.233 C 
HETATM   21  C   UNL     1       7.616  25.308  54.986  1.00  0.00     0.045 C 
ENDBRANCH  12  14
ENDBRANCH   8  12
TORSDOF 2
ENDMDL
MODEL 10
REMARK VINA RESULT:      -6.6      4.329      5.350
REMARK  2 active torsions:
REMARK  status: ('A' for Active; 'I' for Inactive)
REMARK    1  A    between atoms: C_8  and  S_9 
REMARK    2  A    between atoms: S_9  and  C_10 
ROOT
HETATM    1  C   UNL     1       7.997  23.296  52.859  1.00  0.00     0.002 A 
HETATM    2  C   UNL     1       7.385  24.275  52.076  1.00  0.00     0.034 A 
HETATM    3  C   UNL     1       6.585  25.258  52.645  1.00  0.00     0.087 A 
HETATM    4  C   UNL     1       6.394  25.262  54.053  1.00  0.00     0.087 A 
HETATM    5  N   UNL     1       5.628  26.194  54.656  1.00  0.00    -0.232 NA
HETATM    6  C   UNL     1       5.082  27.134  53.858  1.00  0.00     0.164 A 
HETATM    7 CL   UNL     1       4.116  28.283  54.688  1.00  0.00    -0.059 Cl
HETATM    8  C   UNL     1       5.265  27.129  52.487  1.00  0.00     0.165 A 
HETATM    9  N   UNL     1       6.002  26.182  51.854  1.00  0.00    -0.234 NA
HETATM   10  C   UNL     1       7.007  24.280  54.820  1.00  0.00     0.034 A 
HETATM   11  C   UNL     1       7.806  23.297  54.234  1.00  0.00     0.002 A 
ENDROOT
BRANCH   8  12
HETATM   12  S   UNL     1       4.550  28.334  51.376  1.00  0.00     0.076 S 
HETATM   13  O   UNL     1       5.277  29.634  51.568  1.00  0.00    -0.251 OA
BRANCH  12  14
HETATM   14  C   UNL     1       5.118  27.649  49.767  1.00  0.00     0.089 C 
HETATM   15  C   UNL     1       5.608  28.701  48.766  1.00  0.00     0.045 C 
HETATM   16  C   UNL     1       4.494  29.568  48.197  1.00  0.00     0.233 C 
HETATM   17  N   UNL     1       3.435  28.691  47.612  1.00  0.00    -0.075 N 
HETATM   18  H   UNL     1       3.789  28.225  46.767  1.00  0.00     0.277 HD
HETATM   19  H   UNL     1       2.667  29.300  47.292  1.00  0.00     0.277 HD
HETATM   20  C   UNL     1       2.862  27.687  48.555  1.00  0.00     0.233 C 
HETATM   21  C   UNL     1       3.977  26.827  49.143  1.00  0.00     0.045 C 
ENDBRANCH  12  14
ENDBRANCH   8  12
TORSDOF 2
ENDMDL
