MODEL 1
REMARK VINA RESULT:      -9.3      0.000      0.000
REMARK  11 active torsions:
REMARK  status: ('A' for Active; 'I' for Inactive)
REMARK    1  A    between atoms: O_2  and  C_3 
REMARK    2  A    between atoms: C_5  and  C_6 
REMARK    3  A    between atoms: C_10  and  C_11 
REMARK       I    between atoms: C_11  and  N_12 
REMARK    4  A    between atoms: N_12  and  C_13 
REMARK    5  A    between atoms: C_13  and  C_14 
REMARK    6  A    between atoms: C_15  and  C_16 
REMARK    7  A    between atoms: C_16  and  O_17 
REMARK    8  A    between atoms: O_17  and  C_18 
REMARK    9  A    between atoms: C_19  and  C_20 
REMARK   10  A    between atoms: C_20  and  C_21 
REMARK   11  A    between atoms: C_29  and  O_30 
ROOT
HETATM    1  C   UNL     1       9.476  31.363  59.077  1.00  0.00     0.270 C 
HETATM    2  N   UNL     1       9.241  30.165  58.453  1.00  0.00    -0.345 N 
HETATM    3  O   UNL     1      10.200  32.230  58.596  1.00  0.00    -0.266 OA
HETATM    4  H   UNL     1       8.677  29.463  58.909  1.00  0.00     0.163 HD
ENDROOT
BRANCH   1   5
HETATM    5  C   UNL     1       8.833  31.534  60.353  1.00  0.00     0.120 A 
HETATM    6  N   UNL     1       8.874  30.556  61.307  1.00  0.00    -0.272 N 
HETATM    7  N   UNL     1       8.168  30.831  62.414  1.00  0.00    -0.174 NA
HETATM    8  H   UNL     1       9.351  29.662  61.240  1.00  0.00     0.189 HD
HETATM    9  C   UNL     1       7.678  32.059  62.194  1.00  0.00     0.092 A 
HETATM   10  C   UNL     1       8.077  32.542  60.917  1.00  0.00     0.071 A 
BRANCH   9  11
HETATM   11  C   UNL     1       6.778  32.714  63.138  1.00  0.00     0.030 A 
HETATM   12  C   UNL     1       7.266  33.015  64.421  1.00  0.00     0.053 A 
HETATM   13  C   UNL     1       6.467  33.665  65.364  1.00  0.00     0.069 A 
HETATM   14  C   UNL     1       5.159  34.009  65.026  1.00  0.00     0.039 A 
HETATM   15  C   UNL     1       4.658  33.706  63.754  1.00  0.00     0.040 A 
HETATM   16  C   UNL     1       5.464  33.071  62.802  1.00  0.00     0.081 A 
BRANCH  13  17
HETATM   17  O   UNL     1       7.076  33.892  66.567  1.00  0.00    -0.356 OA
HETATM   18  C   UNL     1       6.277  34.467  67.594  1.00  0.00     0.210 C 
ENDBRANCH  13  17
BRANCH  16  19
HETATM   19  O   UNL     1       4.974  32.698  61.576  1.00  0.00    -0.355 OA
HETATM   20  C   UNL     1       3.712  32.040  61.626  1.00  0.00     0.210 C 
ENDBRANCH  16  19
ENDBRANCH   9  11
ENDBRANCH   1   5
BRANCH   2  21
HETATM   21  C   UNL     1       9.937  29.796  57.248  1.00  0.00     0.217 C 
BRANCH  21  22
HETATM   22  C   UNL     1       9.004  29.182  56.301  1.00  0.00    -0.085 C 
HETATM   23  C   UNL     1       8.250  28.719  55.488  1.00  0.00    -0.078 C 
BRANCH  23  24
HETATM   24  C   UNL     1       7.347  28.210  54.446  1.00  0.00     0.269 C 
BRANCH  24  25
HETATM   25  O   UNL     1       6.759  26.964  54.839  1.00  0.00    -0.339 OA
BRANCH  25  26
HETATM   26  C   UNL     1       7.133  25.858  54.119  1.00  0.00     0.076 A 
HETATM   27  C   UNL     1       6.997  24.611  54.751  1.00  0.00    -0.021 A 
HETATM   28  C   UNL     1       7.353  23.445  54.049  1.00  0.00     0.010 A 
HETATM   29  C   UNL     1       7.807  23.516  52.733  1.00  0.00     0.001 A 
HETATM   30  C   UNL     1       7.912  24.751  52.104  1.00  0.00     0.003 A 
HETATM   31  C   UNL     1       7.573  25.918  52.792  1.00  0.00     0.037 A 
BRANCH  27  32
HETATM   32  C   UNL     1       6.524  24.486  56.183  1.00  0.00     0.067 C 
BRANCH  32  33
HETATM   33  C   UNL     1       7.668  24.324  57.147  1.00  0.00    -0.032 C 
HETATM   34  C   UNL     1       8.685  25.187  57.269  1.00  0.00     0.007 C 
ENDBRANCH  32  33
ENDBRANCH  27  32
ENDBRANCH  25  26
ENDBRANCH  24  25
ENDBRANCH  23  24
ENDBRANCH  21  22
ENDBRANCH   2  21
TORSDOF 11
ENDMDL
MODEL 2
REMARK VINA RESULT:      -9.3      6.177     10.335
REMARK  11 active torsions:
REMARK  status: ('A' for Active; 'I' for Inactive)
REMARK    1  A    between atoms: O_2  and  C_3 
REMARK    2  A    between atoms: C_5  and  C_6 
REMARK    3  A    between atoms: C_10  and  C_11 
REMARK       I    between atoms: C_11  and  N_12 
REMARK    4  A    between atoms: N_12  and  C_13 
REMARK    5  A    between atoms: C_13  and  C_14 
REMARK    6  A    between atoms: C_15  and  C_16 
REMARK    7  A    between atoms: C_16  and  O_17 
REMARK    8  A    between atoms: O_17  and  C_18 
REMARK    9  A    between atoms: C_19  and  C_20 
REMARK   10  A    between atoms: C_20  and  C_21 
REMARK   11  A    between atoms: C_29  and  O_30 
ROOT
HETATM    1  C   UNL     1       6.305  28.397  55.650  1.00  0.00     0.270 C 
HETATM    2  N   UNL     1       7.665  28.266  55.770  1.00  0.00    -0.345 N 
HETATM    3  O   UNL     1       5.545  28.316  56.611  1.00  0.00    -0.266 OA
HETATM    4  H   UNL     1       8.246  28.293  54.945  1.00  0.00     0.163 HD
ENDROOT
BRANCH   1   5
HETATM    5  C   UNL     1       5.818  28.615  54.314  1.00  0.00     0.120 A 
HETATM    6  N   UNL     1       4.729  29.407  54.074  1.00  0.00    -0.272 N 
HETATM    7  N   UNL     1       4.352  29.455  52.788  1.00  0.00    -0.174 NA
HETATM    8  H   UNL     1       4.187  29.918  54.764  1.00  0.00     0.189 HD
HETATM    9  C   UNL     1       5.255  28.696  52.152  1.00  0.00     0.092 A 
HETATM   10  C   UNL     1       6.198  28.156  53.069  1.00  0.00     0.071 A 
BRANCH   9  11
HETATM   11  C   UNL     1       5.165  28.422  50.722  1.00  0.00     0.030 A 
HETATM   12  C   UNL     1       4.542  27.231  50.311  1.00  0.00     0.053 A 
HETATM   13  C   UNL     1       4.399  26.920  48.958  1.00  0.00     0.069 A 
HETATM   14  C   UNL     1       4.894  27.803  48.000  1.00  0.00     0.039 A 
HETATM   15  C   UNL     1       5.525  28.988  48.395  1.00  0.00     0.040 A 
HETATM   16  C   UNL     1       5.653  29.310  49.752  1.00  0.00     0.081 A 
BRANCH  13  17
HETATM   17  O   UNL     1       3.773  25.729  48.710  1.00  0.00    -0.356 OA
HETATM   18  C   UNL     1       3.055  25.621  47.488  1.00  0.00     0.210 C 
ENDBRANCH  13  17
BRANCH  16  19
HETATM   19  O   UNL     1       6.331  30.428  50.167  1.00  0.00    -0.355 OA
HETATM   20  C   UNL     1       5.699  31.658  49.822  1.00  0.00     0.210 C 
ENDBRANCH  16  19
ENDBRANCH   9  11
ENDBRANCH   1   5
BRANCH   2  21
HETATM   21  C   UNL     1       8.277  27.895  57.018  1.00  0.00     0.217 C 
BRANCH  21  22
HETATM   22  C   UNL     1       8.358  26.437  57.121  1.00  0.00    -0.085 C 
HETATM   23  C   UNL     1       8.415  25.237  57.151  1.00  0.00    -0.078 C 
BRANCH  23  24
HETATM   24  C   UNL     1       8.475  23.769  57.112  1.00  0.00     0.269 C 
BRANCH  24  25
HETATM   25  O   UNL     1       7.346  23.226  56.418  1.00  0.00    -0.339 OA
BRANCH  25  26
HETATM   26  C   UNL     1       7.620  22.389  55.367  1.00  0.00     0.076 A 
HETATM   27  C   UNL     1       7.539  22.939  54.076  1.00  0.00    -0.021 A 
HETATM   28  C   UNL     1       7.826  22.125  52.966  1.00  0.00     0.010 A 
HETATM   29  C   UNL     1       8.215  20.798  53.136  1.00  0.00     0.001 A 
HETATM   30  C   UNL     1       8.322  20.268  54.417  1.00  0.00     0.003 A 
HETATM   31  C   UNL     1       8.029  21.060  55.528  1.00  0.00     0.037 A 
BRANCH  27  32
HETATM   32  C   UNL     1       7.104  24.370  53.842  1.00  0.00     0.067 C 
BRANCH  32  33
HETATM   33  C   UNL     1       6.022  24.471  52.802  1.00  0.00    -0.032 C 
HETATM   34  C   UNL     1       4.758  24.834  53.055  1.00  0.00     0.007 C 
ENDBRANCH  32  33
ENDBRANCH  27  32
ENDBRANCH  25  26
ENDBRANCH  24  25
ENDBRANCH  23  24
ENDBRANCH  21  22
ENDBRANCH   2  21
TORSDOF 11
ENDMDL
MODEL 3
REMARK VINA RESULT:      -9.2      1.250      2.242
REMARK  11 active torsions:
REMARK  status: ('A' for Active; 'I' for Inactive)
REMARK    1  A    between atoms: O_2  and  C_3 
REMARK    2  A    between atoms: C_5  and  C_6 
REMARK    3  A    between atoms: C_10  and  C_11 
REMARK       I    between atoms: C_11  and  N_12 
REMARK    4  A    between atoms: N_12  and  C_13 
REMARK    5  A    between atoms: C_13  and  C_14 
REMARK    6  A    between atoms: C_15  and  C_16 
REMARK    7  A    between atoms: C_16  and  O_17 
REMARK    8  A    between atoms: O_17  and  C_18 
REMARK    9  A    between atoms: C_19  and  C_20 
REMARK   10  A    between atoms: C_20  and  C_21 
REMARK   11  A    between atoms: C_29  and  O_30 
ROOT
HETATM    1  C   UNL     1       8.922  31.168  59.271  1.00  0.00     0.270 C 
HETATM    2  N   UNL     1       8.561  29.963  58.724  1.00  0.00    -0.345 N 
HETATM    3  O   UNL     1       9.612  31.987  58.673  1.00  0.00    -0.266 OA
HETATM    4  H   UNL     1       8.032  29.301  59.271  1.00  0.00     0.163 HD
ENDROOT
BRANCH   1   5
HETATM    5  C   UNL     1       8.454  31.405  60.611  1.00  0.00     0.120 A 
HETATM    6  N   UNL     1       8.768  30.555  61.635  1.00  0.00    -0.272 N 
HETATM    7  N   UNL     1       8.199  30.867  62.809  1.00  0.00    -0.174 NA
HETATM    8  H   UNL     1       9.350  29.725  61.578  1.00  0.00     0.189 HD
HETATM    9  C   UNL     1       7.517  31.993  62.554  1.00  0.00     0.092 A 
HETATM   10  C   UNL     1       7.655  32.370  61.190  1.00  0.00     0.071 A 
BRANCH   9  11
HETATM   11  C   UNL     1       6.682  32.636  63.563  1.00  0.00     0.030 A 
HETATM   12  C   UNL     1       7.305  33.148  64.714  1.00  0.00     0.053 A 
HETATM   13  C   UNL     1       6.570  33.799  65.705  1.00  0.00     0.069 A 
HETATM   14  C   UNL     1       5.191  33.932  65.553  1.00  0.00     0.039 A 
HETATM   15  C   UNL     1       4.556  33.419  64.415  1.00  0.00     0.040 A 
HETATM   16  C   UNL     1       5.295  32.782  63.412  1.00  0.00     0.081 A 
BRANCH  13  17
HETATM   17  O   UNL     1       7.310  34.243  66.766  1.00  0.00    -0.356 OA
HETATM   18  C   UNL     1       6.615  34.476  67.984  1.00  0.00     0.210 C 
ENDBRANCH  13  17
BRANCH  16  19
HETATM   19  O   UNL     1       4.689  32.207  62.324  1.00  0.00    -0.355 OA
HETATM   20  C   UNL     1       3.945  33.118  61.519  1.00  0.00     0.210 C 
ENDBRANCH  16  19
ENDBRANCH   9  11
ENDBRANCH   1   5
BRANCH   2  21
HETATM   21  C   UNL     1       9.083  29.529  57.454  1.00  0.00     0.217 C 
BRANCH  21  22
HETATM   22  C   UNL     1       8.646  28.159  57.178  1.00  0.00    -0.085 C 
HETATM   23  C   UNL     1       8.318  27.017  56.993  1.00  0.00    -0.078 C 
BRANCH  23  24
HETATM   24  C   UNL     1       7.958  25.602  56.830  1.00  0.00     0.269 C 
BRANCH  24  25
HETATM   25  O   UNL     1       7.922  25.237  55.445  1.00  0.00    -0.339 OA
BRANCH  25  26
HETATM   26  C   UNL     1       7.969  23.895  55.166  1.00  0.00     0.076 A 
HETATM   27  C   UNL     1       7.718  23.512  53.837  1.00  0.00    -0.021 A 
HETATM   28  C   UNL     1       7.770  22.148  53.497  1.00  0.00     0.010 A 
HETATM   29  C   UNL     1       8.096  21.187  54.452  1.00  0.00     0.001 A 
HETATM   30  C   UNL     1       8.372  21.575  55.758  1.00  0.00     0.003 A 
HETATM   31  C   UNL     1       8.313  22.924  56.114  1.00  0.00     0.037 A 
BRANCH  27  32
HETATM   32  C   UNL     1       7.344  24.518  52.771  1.00  0.00     0.067 C 
BRANCH  32  33
HETATM   33  C   UNL     1       5.857  24.598  52.561  1.00  0.00    -0.032 C 
HETATM   34  C   UNL     1       5.019  25.306  53.330  1.00  0.00     0.007 C 
ENDBRANCH  32  33
ENDBRANCH  27  32
ENDBRANCH  25  26
ENDBRANCH  24  25
ENDBRANCH  23  24
ENDBRANCH  21  22
ENDBRANCH   2  21
TORSDOF 11
ENDMDL
MODEL 4
REMARK VINA RESULT:      -8.9      2.455      4.598
REMARK  11 active torsions:
REMARK  status: ('A' for Active; 'I' for Inactive)
REMARK    1  A    between atoms: O_2  and  C_3 
REMARK    2  A    between atoms: C_5  and  C_6 
REMARK    3  A    between atoms: C_10  and  C_11 
REMARK       I    between atoms: C_11  and  N_12 
REMARK    4  A    between atoms: N_12  and  C_13 
REMARK    5  A    between atoms: C_13  and  C_14 
REMARK    6  A    between atoms: C_15  and  C_16 
REMARK    7  A    between atoms: C_16  and  O_17 
REMARK    8  A    between atoms: O_17  and  C_18 
REMARK    9  A    between atoms: C_19  and  C_20 
REMARK   10  A    between atoms: C_20  and  C_21 
REMARK   11  A    between atoms: C_29  and  O_30 
ROOT
HETATM    1  C   UNL     1       5.245  29.220  55.707  1.00  0.00     0.270 C 
HETATM    2  N   UNL     1       5.874  29.312  54.492  1.00  0.00    -0.345 N 
HETATM    3  O   UNL     1       4.290  28.476  55.903  1.00  0.00    -0.266 OA
HETATM    4  H   UNL     1       6.626  29.973  54.364  1.00  0.00     0.163 HD
ENDROOT
BRANCH   1   5
HETATM    5  C   UNL     1       5.767  30.074  56.741  1.00  0.00     0.120 A 
HETATM    6  N   UNL     1       5.470  31.408  56.780  1.00  0.00    -0.272 N 
HETATM    7  N   UNL     1       6.089  32.085  57.759  1.00  0.00    -0.174 NA
HETATM    8  H   UNL     1       4.868  31.914  56.138  1.00  0.00     0.189 HD
HETATM    9  C   UNL     1       6.788  31.149  58.415  1.00  0.00     0.092 A 
HETATM   10  C   UNL     1       6.609  29.871  57.816  1.00  0.00     0.071 A 
BRANCH   9  11
HETATM   11  C   UNL     1       7.673  31.481  59.526  1.00  0.00     0.030 A 
HETATM   12  C   UNL     1       7.112  31.614  60.807  1.00  0.00     0.053 A 
HETATM   13  C   UNL     1       7.906  31.904  61.918  1.00  0.00     0.069 A 
HETATM   14  C   UNL     1       9.278  32.077  61.747  1.00  0.00     0.039 A 
HETATM   15  C   UNL     1       9.850  31.956  60.474  1.00  0.00     0.040 A 
HETATM   16  C   UNL     1       9.057  31.647  59.363  1.00  0.00     0.081 A 
BRANCH  13  17
HETATM   17  O   UNL     1       7.221  32.003  63.098  1.00  0.00    -0.356 OA
HETATM   18  C   UNL     1       7.692  32.962  64.036  1.00  0.00     0.210 C 
ENDBRANCH  13  17
BRANCH  16  19
HETATM   19  O   UNL     1       9.580  31.596  58.095  1.00  0.00    -0.355 OA
HETATM   20  C   UNL     1      10.360  30.433  57.831  1.00  0.00     0.210 C 
ENDBRANCH  16  19
ENDBRANCH   9  11
ENDBRANCH   1   5
BRANCH   2  21
HETATM   21  C   UNL     1       5.366  28.632  53.329  1.00  0.00     0.217 C 
BRANCH  21  22
HETATM   22  C   UNL     1       6.137  27.411  53.087  1.00  0.00    -0.085 C 
HETATM   23  C   UNL     1       6.747  26.407  52.837  1.00  0.00    -0.078 C 
BRANCH  23  24
HETATM   24  C   UNL     1       7.463  25.179  52.463  1.00  0.00     0.269 C 
BRANCH  24  25
HETATM   25  O   UNL     1       8.276  24.708  53.543  1.00  0.00    -0.339 OA
BRANCH  25  26
HETATM   26  C   UNL     1       8.146  23.383  53.874  1.00  0.00     0.076 A 
HETATM   27  C   UNL     1       8.191  23.060  55.241  1.00  0.00    -0.021 A 
HETATM   28  C   UNL     1       8.046  21.718  55.632  1.00  0.00     0.010 A 
HETATM   29  C   UNL     1       7.830  20.718  54.685  1.00  0.00     0.001 A 
HETATM   30  C   UNL     1       7.757  21.048  53.336  1.00  0.00     0.003 A 
HETATM   31  C   UNL     1       7.911  22.375  52.932  1.00  0.00     0.037 A 
BRANCH  27  32
HETATM   32  C   UNL     1       8.440  24.109  56.303  1.00  0.00     0.067 C 
BRANCH  32  33
HETATM   33  C   UNL     1       7.162  24.592  56.935  1.00  0.00    -0.032 C 
HETATM   34  C   UNL     1       6.221  25.300  56.297  1.00  0.00     0.007 C 
ENDBRANCH  32  33
ENDBRANCH  27  32
ENDBRANCH  25  26
ENDBRANCH  24  25
ENDBRANCH  23  24
ENDBRANCH  21  22
ENDBRANCH   2  21
TORSDOF 11
ENDMDL
MODEL 5
REMARK VINA RESULT:      -8.7      2.509      4.042
REMARK  11 active torsions:
REMARK  status: ('A' for Active; 'I' for Inactive)
REMARK    1  A    between atoms: O_2  and  C_3 
REMARK    2  A    between atoms: C_5  and  C_6 
REMARK    3  A    between atoms: C_10  and  C_11 
REMARK       I    between atoms: C_11  and  N_12 
REMARK    4  A    between atoms: N_12  and  C_13 
REMARK    5  A    between atoms: C_13  and  C_14 
REMARK    6  A    between atoms: C_15  and  C_16 
REMARK    7  A    between atoms: C_16  and  O_17 
REMARK    8  A    between atoms: O_17  and  C_18 
REMARK    9  A    between atoms: C_19  and  C_20 
REMARK   10  A    between atoms: C_20  and  C_21 
REMARK   11  A    between atoms: C_29  and  O_30 
ROOT
HETATM    1  C   UNL     1       5.783  30.303  56.373  1.00  0.00     0.270 C 
HETATM    2  N   UNL     1       6.595  29.197  56.377  1.00  0.00    -0.345 N 
HETATM    3  O   UNL     1       5.074  30.599  55.417  1.00  0.00    -0.266 OA
HETATM    4  H   UNL     1       7.197  29.019  57.167  1.00  0.00     0.163 HD
ENDROOT
BRANCH   1   5
HETATM    5  C   UNL     1       5.831  31.111  57.562  1.00  0.00     0.120 A 
HETATM    6  N   UNL     1       5.506  32.439  57.533  1.00  0.00    -0.272 N 
HETATM    7  N   UNL     1       5.669  33.076  58.703  1.00  0.00    -0.174 NA
HETATM    8  H   UNL     1       5.191  32.969  56.726  1.00  0.00     0.189 HD
HETATM    9  C   UNL     1       6.079  32.116  59.544  1.00  0.00     0.092 A 
HETATM   10  C   UNL     1       6.186  30.867  58.873  1.00  0.00     0.071 A 
BRANCH   9  11
HETATM   11  C   UNL     1       6.445  32.405  60.926  1.00  0.00     0.030 A 
HETATM   12  C   UNL     1       5.414  32.582  61.865  1.00  0.00     0.053 A 
HETATM   13  C   UNL     1       5.695  32.834  63.209  1.00  0.00     0.069 A 
HETATM   14  C   UNL     1       7.023  32.922  63.621  1.00  0.00     0.039 A 
HETATM   15  C   UNL     1       8.060  32.756  62.696  1.00  0.00     0.040 A 
HETATM   16  C   UNL     1       7.780  32.485  61.351  1.00  0.00     0.081 A 
BRANCH  13  17
HETATM   17  O   UNL     1       4.592  32.984  64.003  1.00  0.00    -0.356 OA
HETATM   18  C   UNL     1       4.792  33.584  65.276  1.00  0.00     0.210 C 
ENDBRANCH  13  17
BRANCH  16  19
HETATM   19  O   UNL     1       8.775  32.392  60.411  1.00  0.00    -0.355 OA
HETATM   20  C   UNL     1       9.550  31.199  60.497  1.00  0.00     0.210 C 
ENDBRANCH  16  19
ENDBRANCH   9  11
ENDBRANCH   1   5
BRANCH   2  21
HETATM   21  C   UNL     1       6.763  28.384  55.201  1.00  0.00     0.217 C 
BRANCH  21  22
HETATM   22  C   UNL     1       7.140  27.022  55.585  1.00  0.00    -0.085 C 
HETATM   23  C   UNL     1       7.503  25.917  55.888  1.00  0.00    -0.078 C 
BRANCH  23  24
HETATM   24  C   UNL     1       8.017  24.587  56.244  1.00  0.00     0.269 C 
BRANCH  24  25
HETATM   25  O   UNL     1       7.085  23.562  55.883  1.00  0.00    -0.339 OA
BRANCH  25  26
HETATM   26  C   UNL     1       7.619  22.371  55.461  1.00  0.00     0.076 A 
HETATM   27  C   UNL     1       7.657  22.146  54.074  1.00  0.00    -0.021 A 
HETATM   28  C   UNL     1       8.209  20.947  53.591  1.00  0.00     0.010 A 
HETATM   29  C   UNL     1       8.742  20.003  54.466  1.00  0.00     0.001 A 
HETATM   30  C   UNL     1       8.729  20.244  55.835  1.00  0.00     0.003 A 
HETATM   31  C   UNL     1       8.173  21.425  56.331  1.00  0.00     0.037 A 
BRANCH  27  32
HETATM   32  C   UNL     1       7.075  23.135  53.087  1.00  0.00     0.067 C 
BRANCH  32  33
HETATM   33  C   UNL     1       8.108  24.102  52.576  1.00  0.00    -0.032 C 
HETATM   34  C   UNL     1       7.846  25.356  52.185  1.00  0.00     0.007 C 
ENDBRANCH  32  33
ENDBRANCH  27  32
ENDBRANCH  25  26
ENDBRANCH  24  25
ENDBRANCH  23  24
ENDBRANCH  21  22
ENDBRANCH   2  21
TORSDOF 11
ENDMDL
MODEL 6
REMARK VINA RESULT:      -8.7      2.323     10.890
REMARK  11 active torsions:
REMARK  status: ('A' for Active; 'I' for Inactive)
REMARK    1  A    between atoms: O_2  and  C_3 
REMARK    2  A    between atoms: C_5  and  C_6 
REMARK    3  A    between atoms: C_10  and  C_11 
REMARK       I    between atoms: C_11  and  N_12 
REMARK    4  A    between atoms: N_12  and  C_13 
REMARK    5  A    between atoms: C_13  and  C_14 
REMARK    6  A    between atoms: C_15  and  C_16 
REMARK    7  A    between atoms: C_16  and  O_17 
REMARK    8  A    between atoms: O_17  and  C_18 
REMARK    9  A    between atoms: C_19  and  C_20 
REMARK   10  A    between atoms: C_20  and  C_21 
REMARK   11  A    between atoms: C_29  and  O_30 
ROOT
HETATM    1  C   UNL     1       5.676  29.860  57.571  1.00  0.00     0.270 C 
HETATM    2  N   UNL     1       4.367  29.711  57.950  1.00  0.00    -0.345 N 
HETATM    3  O   UNL     1       6.198  30.959  57.412  1.00  0.00    -0.266 OA
HETATM    4  H   UNL     1       3.967  28.787  58.023  1.00  0.00     0.163 HD
ENDROOT
BRANCH   1   5
HETATM    5  C   UNL     1       6.401  28.637  57.349  1.00  0.00     0.120 A 
HETATM    6  N   UNL     1       7.587  28.388  57.983  1.00  0.00    -0.272 N 
HETATM    7  N   UNL     1       8.179  27.241  57.619  1.00  0.00    -0.174 NA
HETATM    8  H   UNL     1       8.053  28.988  58.656  1.00  0.00     0.189 HD
HETATM    9  C   UNL     1       7.326  26.694  56.742  1.00  0.00     0.092 A 
HETATM   10  C   UNL     1       6.193  27.532  56.549  1.00  0.00     0.071 A 
BRANCH   9  11
HETATM   11  C   UNL     1       7.628  25.452  56.040  1.00  0.00     0.030 A 
HETATM   12  C   UNL     1       7.898  24.304  56.805  1.00  0.00     0.053 A 
HETATM   13  C   UNL     1       8.168  23.077  56.197  1.00  0.00     0.069 A 
HETATM   14  C   UNL     1       8.182  22.995  54.806  1.00  0.00     0.039 A 
HETATM   15  C   UNL     1       7.924  24.133  54.031  1.00  0.00     0.040 A 
HETATM   16  C   UNL     1       7.635  25.359  54.640  1.00  0.00     0.081 A 
BRANCH  13  17
HETATM   17  O   UNL     1       8.411  22.050  57.068  1.00  0.00    -0.356 OA
HETATM   18  C   UNL     1       8.142  20.734  56.602  1.00  0.00     0.210 C 
ENDBRANCH  13  17
BRANCH  16  19
HETATM   19  O   UNL     1       7.451  26.504  53.906  1.00  0.00    -0.355 OA
HETATM   20  C   UNL     1       6.533  26.364  52.825  1.00  0.00     0.210 C 
ENDBRANCH  16  19
ENDBRANCH   9  11
ENDBRANCH   1   5
BRANCH   2  21
HETATM   21  C   UNL     1       3.482  30.841  58.059  1.00  0.00     0.217 C 
BRANCH  21  22
HETATM   22  C   UNL     1       3.573  31.419  59.401  1.00  0.00    -0.085 C 
HETATM   23  C   UNL     1       3.673  31.847  60.520  1.00  0.00    -0.078 C 
BRANCH  23  24
HETATM   24  C   UNL     1       3.830  32.306  61.907  1.00  0.00     0.269 C 
BRANCH  24  25
HETATM   25  O   UNL     1       4.806  33.351  61.995  1.00  0.00    -0.339 OA
BRANCH  25  26
HETATM   26  C   UNL     1       5.502  33.439  63.173  1.00  0.00     0.076 A 
HETATM   27  C   UNL     1       6.873  33.135  63.127  1.00  0.00    -0.021 A 
HETATM   28  C   UNL     1       7.634  33.225  64.306  1.00  0.00     0.010 A 
HETATM   29  C   UNL     1       7.050  33.639  65.503  1.00  0.00     0.001 A 
HETATM   30  C   UNL     1       5.699  33.967  65.535  1.00  0.00     0.003 A 
HETATM   31  C   UNL     1       4.928  33.871  64.375  1.00  0.00     0.037 A 
BRANCH  27  32
HETATM   32  C   UNL     1       7.546  32.665  61.856  1.00  0.00     0.067 C 
BRANCH  32  33
HETATM   33  C   UNL     1       8.803  31.886  62.133  1.00  0.00    -0.032 C 
HETATM   34  C   UNL     1       9.275  30.905  61.353  1.00  0.00     0.007 C 
ENDBRANCH  32  33
ENDBRANCH  27  32
ENDBRANCH  25  26
ENDBRANCH  24  25
ENDBRANCH  23  24
ENDBRANCH  21  22
ENDBRANCH   2  21
TORSDOF 11
ENDMDL
MODEL 7
REMARK VINA RESULT:      -8.7      3.023      5.717
REMARK  11 active torsions:
REMARK  status: ('A' for Active; 'I' for Inactive)
REMARK    1  A    between atoms: O_2  and  C_3 
REMARK    2  A    between atoms: C_5  and  C_6 
REMARK    3  A    between atoms: C_10  and  C_11 
REMARK       I    between atoms: C_11  and  N_12 
REMARK    4  A    between atoms: N_12  and  C_13 
REMARK    5  A    between atoms: C_13  and  C_14 
REMARK    6  A    between atoms: C_15  and  C_16 
REMARK    7  A    between atoms: C_16  and  O_17 
REMARK    8  A    between atoms: O_17  and  C_18 
REMARK    9  A    between atoms: C_19  and  C_20 
REMARK   10  A    between atoms: C_20  and  C_21 
REMARK   11  A    between atoms: C_29  and  O_30 
ROOT
HETATM    1  C   UNL     1       5.931  27.985  54.172  1.00  0.00     0.270 C 
HETATM    2  N   UNL     1       4.942  27.035  54.133  1.00  0.00    -0.345 N 
HETATM    3  O   UNL     1       6.576  28.309  53.180  1.00  0.00    -0.266 OA
HETATM    4  H   UNL     1       4.469  26.767  54.984  1.00  0.00     0.163 HD
ENDROOT
BRANCH   1   5
HETATM    5  C   UNL     1       6.180  28.568  55.463  1.00  0.00     0.120 A 
HETATM    6  N   UNL     1       5.257  28.489  56.470  1.00  0.00    -0.272 N 
HETATM    7  N   UNL     1       5.601  29.142  57.590  1.00  0.00    -0.174 NA
HETATM    8  H   UNL     1       4.357  28.020  56.432  1.00  0.00     0.189 HD
HETATM    9  C   UNL     1       6.818  29.635  57.322  1.00  0.00     0.092 A 
HETATM   10  C   UNL     1       7.224  29.292  56.003  1.00  0.00     0.071 A 
BRANCH   9  11
HETATM   11  C   UNL     1       7.533  30.487  58.267  1.00  0.00     0.030 A 
HETATM   12  C   UNL     1       6.794  31.424  59.008  1.00  0.00     0.053 A 
HETATM   13  C   UNL     1       7.411  32.251  59.949  1.00  0.00     0.069 A 
HETATM   14  C   UNL     1       8.787  32.150  60.143  1.00  0.00     0.039 A 
HETATM   15  C   UNL     1       9.537  31.228  59.405  1.00  0.00     0.040 A 
HETATM   16  C   UNL     1       8.916  30.385  58.475  1.00  0.00     0.081 A 
BRANCH  13  17
HETATM   17  O   UNL     1       6.565  33.111  60.593  1.00  0.00    -0.356 OA
HETATM   18  C   UNL     1       5.252  32.640  60.865  1.00  0.00     0.210 C 
ENDBRANCH  13  17
BRANCH  16  19
HETATM   19  O   UNL     1       9.638  29.525  57.687  1.00  0.00    -0.355 OA
HETATM   20  C   UNL     1      10.875  30.056  57.221  1.00  0.00     0.210 C 
ENDBRANCH  16  19
ENDBRANCH   9  11
ENDBRANCH   1   5
BRANCH   2  21
HETATM   21  C   UNL     1       4.689  26.262  52.946  1.00  0.00     0.217 C 
BRANCH  21  22
HETATM   22  C   UNL     1       5.785  25.317  52.722  1.00  0.00    -0.085 C 
HETATM   23  C   UNL     1       6.699  24.549  52.591  1.00  0.00    -0.078 C 
BRANCH  23  24
HETATM   24  C   UNL     1       7.833  23.617  52.505  1.00  0.00     0.269 C 
BRANCH  24  25
HETATM   25  O   UNL     1       8.593  23.618  53.718  1.00  0.00    -0.339 OA
BRANCH  25  26
HETATM   26  C   UNL     1       8.570  22.461  54.454  1.00  0.00     0.076 A 
HETATM   27  C   UNL     1       8.359  22.589  55.837  1.00  0.00    -0.021 A 
HETATM   28  C   UNL     1       8.312  21.431  56.633  1.00  0.00     0.010 A 
HETATM   29  C   UNL     1       8.443  20.166  56.060  1.00  0.00     0.001 A 
HETATM   30  C   UNL     1       8.622  20.045  54.687  1.00  0.00     0.003 A 
HETATM   31  C   UNL     1       8.682  21.186  53.886  1.00  0.00     0.037 A 
BRANCH  27  32
HETATM   32  C   UNL     1       8.229  23.941  56.505  1.00  0.00     0.067 C 
BRANCH  32  33
HETATM   33  C   UNL     1       6.849  24.520  56.352  1.00  0.00    -0.032 C 
HETATM   34  C   UNL     1       6.248  25.301  57.260  1.00  0.00     0.007 C 
ENDBRANCH  32  33
ENDBRANCH  27  32
ENDBRANCH  25  26
ENDBRANCH  24  25
ENDBRANCH  23  24
ENDBRANCH  21  22
ENDBRANCH   2  21
TORSDOF 11
ENDMDL
MODEL 8
REMARK VINA RESULT:      -8.6      2.945      4.227
REMARK  11 active torsions:
REMARK  status: ('A' for Active; 'I' for Inactive)
REMARK    1  A    between atoms: O_2  and  C_3 
REMARK    2  A    between atoms: C_5  and  C_6 
REMARK    3  A    between atoms: C_10  and  C_11 
REMARK       I    between atoms: C_11  and  N_12 
REMARK    4  A    between atoms: N_12  and  C_13 
REMARK    5  A    between atoms: C_13  and  C_14 
REMARK    6  A    between atoms: C_15  and  C_16 
REMARK    7  A    between atoms: C_16  and  O_17 
REMARK    8  A    between atoms: O_17  and  C_18 
REMARK    9  A    between atoms: C_19  and  C_20 
REMARK   10  A    between atoms: C_20  and  C_21 
REMARK   11  A    between atoms: C_29  and  O_30 
ROOT
HETATM    1  C   UNL     1       5.945  30.176  57.083  1.00  0.00     0.270 C 
HETATM    2  N   UNL     1       6.897  29.329  57.590  1.00  0.00    -0.345 N 
HETATM    3  O   UNL     1       5.863  30.441  55.888  1.00  0.00    -0.266 OA
HETATM    4  H   UNL     1       6.956  29.177  58.586  1.00  0.00     0.163 HD
ENDROOT
BRANCH   1   5
HETATM    5  C   UNL     1       5.052  30.755  58.052  1.00  0.00     0.120 A 
HETATM    6  N   UNL     1       3.820  30.214  58.296  1.00  0.00    -0.272 N 
HETATM    7  N   UNL     1       3.075  30.907  59.171  1.00  0.00    -0.174 NA
HETATM    8  H   UNL     1       3.426  29.383  57.867  1.00  0.00     0.189 HD
HETATM    9  C   UNL     1       3.867  31.920  59.547  1.00  0.00     0.092 A 
HETATM   10  C   UNL     1       5.120  31.859  58.877  1.00  0.00     0.071 A 
BRANCH   9  11
HETATM   11  C   UNL     1       3.406  32.967  60.452  1.00  0.00     0.030 A 
HETATM   12  C   UNL     1       3.683  32.831  61.823  1.00  0.00     0.053 A 
HETATM   13  C   UNL     1       3.294  33.810  62.740  1.00  0.00     0.069 A 
HETATM   14  C   UNL     1       2.608  34.934  62.285  1.00  0.00     0.039 A 
HETATM   15  C   UNL     1       2.317  35.078  60.923  1.00  0.00     0.040 A 
HETATM   16  C   UNL     1       2.723  34.107  60.001  1.00  0.00     0.081 A 
BRANCH  13  17
HETATM   17  O   UNL     1       3.632  33.541  64.038  1.00  0.00    -0.356 OA
HETATM   18  C   UNL     1       3.397  34.570  64.990  1.00  0.00     0.210 C 
ENDBRANCH  13  17
BRANCH  16  19
HETATM   19  O   UNL     1       2.387  34.188  58.673  1.00  0.00    -0.355 OA
HETATM   20  C   UNL     1       3.119  35.169  57.943  1.00  0.00     0.210 C 
ENDBRANCH  16  19
ENDBRANCH   9  11
ENDBRANCH   1   5
BRANCH   2  21
HETATM   21  C   UNL     1       7.948  28.798  56.761  1.00  0.00     0.217 C 
BRANCH  21  22
HETATM   22  C   UNL     1       8.067  27.353  56.971  1.00  0.00    -0.085 C 
HETATM   23  C   UNL     1       8.218  26.171  57.124  1.00  0.00    -0.078 C 
BRANCH  23  24
HETATM   24  C   UNL     1       8.474  24.733  57.289  1.00  0.00     0.269 C 
BRANCH  24  25
HETATM   25  O   UNL     1       7.423  23.953  56.708  1.00  0.00    -0.339 OA
BRANCH  25  26
HETATM   26  C   UNL     1       7.788  22.753  56.154  1.00  0.00     0.076 A 
HETATM   27  C   UNL     1       7.566  22.595  54.775  1.00  0.00    -0.021 A 
HETATM   28  C   UNL     1       7.938  21.388  54.156  1.00  0.00     0.010 A 
HETATM   29  C   UNL     1       8.546  20.369  54.887  1.00  0.00     0.001 A 
HETATM   30  C   UNL     1       8.791  20.544  56.245  1.00  0.00     0.003 A 
HETATM   31  C   UNL     1       8.416  21.732  56.875  1.00  0.00     0.037 A 
BRANCH  27  32
HETATM   32  C   UNL     1       6.894  23.667  53.944  1.00  0.00     0.067 C 
BRANCH  32  33
HETATM   33  C   UNL     1       7.599  23.897  52.636  1.00  0.00    -0.032 C 
HETATM   34  C   UNL     1       8.023  25.091  52.202  1.00  0.00     0.007 C 
ENDBRANCH  32  33
ENDBRANCH  27  32
ENDBRANCH  25  26
ENDBRANCH  24  25
ENDBRANCH  23  24
ENDBRANCH  21  22
ENDBRANCH   2  21
TORSDOF 11
ENDMDL
MODEL 9
REMARK VINA RESULT:      -8.5      1.973      2.877
REMARK  11 active torsions:
REMARK  status: ('A' for Active; 'I' for Inactive)
REMARK    1  A    between atoms: O_2  and  C_3 
REMARK    2  A    between atoms: C_5  and  C_6 
REMARK    3  A    between atoms: C_10  and  C_11 
REMARK       I    between atoms: C_11  and  N_12 
REMARK    4  A    between atoms: N_12  and  C_13 
REMARK    5  A    between atoms: C_13  and  C_14 
REMARK    6  A    between atoms: C_15  and  C_16 
REMARK    7  A    between atoms: C_16  and  O_17 
REMARK    8  A    between atoms: O_17  and  C_18 
REMARK    9  A    between atoms: C_19  and  C_20 
REMARK   10  A    between atoms: C_20  and  C_21 
REMARK   11  A    between atoms: C_29  and  O_30 
ROOT
HETATM    1  C   UNL     1       7.860  31.519  59.281  1.00  0.00     0.270 C 
HETATM    2  N   UNL     1       7.656  30.226  58.871  1.00  0.00    -0.345 N 
HETATM    3  O   UNL     1       8.824  32.184  58.916  1.00  0.00    -0.266 OA
HETATM    4  H   UNL     1       6.874  29.701  59.234  1.00  0.00     0.163 HD
ENDROOT
BRANCH   1   5
HETATM    5  C   UNL     1       6.876  32.044  60.189  1.00  0.00     0.120 A 
HETATM    6  N   UNL     1       5.541  31.809  60.005  1.00  0.00    -0.272 N 
HETATM    7  N   UNL     1       4.743  32.424  60.891  1.00  0.00    -0.174 NA
HETATM    8  H   UNL     1       5.118  31.255  59.267  1.00  0.00     0.189 HD
HETATM    9  C   UNL     1       5.591  33.055  61.715  1.00  0.00     0.092 A 
HETATM   10  C   UNL     1       6.939  32.836  61.317  1.00  0.00     0.071 A 
BRANCH   9  11
HETATM   11  C   UNL     1       5.123  33.915  62.797  1.00  0.00     0.030 A 
HETATM   12  C   UNL     1       5.025  33.367  64.087  1.00  0.00     0.053 A 
HETATM   13  C   UNL     1       4.611  34.142  65.172  1.00  0.00     0.069 A 
HETATM   14  C   UNL     1       4.277  35.480  64.964  1.00  0.00     0.039 A 
HETATM   15  C   UNL     1       4.361  36.035  63.682  1.00  0.00     0.040 A 
HETATM   16  C   UNL     1       4.794  35.264  62.597  1.00  0.00     0.081 A 
BRANCH  13  17
HETATM   17  O   UNL     1       4.564  33.475  66.364  1.00  0.00    -0.356 OA
HETATM   18  C   UNL     1       4.584  34.266  67.546  1.00  0.00     0.210 C 
ENDBRANCH  13  17
BRANCH  16  19
HETATM   19  O   UNL     1       4.816  35.764  61.320  1.00  0.00    -0.355 OA
HETATM   20  C   UNL     1       4.603  37.170  61.238  1.00  0.00     0.210 C 
ENDBRANCH  16  19
ENDBRANCH   9  11
ENDBRANCH   1   5
BRANCH   2  21
HETATM   21  C   UNL     1       8.636  29.523  58.086  1.00  0.00     0.217 C 
BRANCH  21  22
HETATM   22  C   UNL     1       7.972  28.568  57.196  1.00  0.00    -0.085 C 
HETATM   23  C   UNL     1       7.423  27.750  56.509  1.00  0.00    -0.078 C 
BRANCH  23  24
HETATM   24  C   UNL     1       6.742  26.705  55.731  1.00  0.00     0.269 C 
BRANCH  24  25
HETATM   25  O   UNL     1       7.603  26.178  54.715  1.00  0.00    -0.339 OA
BRANCH  25  26
HETATM   26  C   UNL     1       7.637  24.812  54.593  1.00  0.00     0.076 A 
HETATM   27  C   UNL     1       7.684  24.290  53.289  1.00  0.00    -0.021 A 
HETATM   28  C   UNL     1       7.735  22.896  53.111  1.00  0.00     0.010 A 
HETATM   29  C   UNL     1       7.771  22.038  54.209  1.00  0.00     0.001 A 
HETATM   30  C   UNL     1       7.755  22.562  55.497  1.00  0.00     0.003 A 
HETATM   31  C   UNL     1       7.692  23.943  55.689  1.00  0.00     0.037 A 
BRANCH  27  32
HETATM   32  C   UNL     1       7.630  25.182  52.068  1.00  0.00     0.067 C 
BRANCH  32  33
HETATM   33  C   UNL     1       6.240  25.692  51.797  1.00  0.00    -0.032 C 
HETATM   34  C   UNL     1       5.116  25.036  52.115  1.00  0.00     0.007 C 
ENDBRANCH  32  33
ENDBRANCH  27  32
ENDBRANCH  25  26
ENDBRANCH  24  25
ENDBRANCH  23  24
ENDBRANCH  21  22
ENDBRANCH   2  21
TORSDOF 11
ENDMDL
MODEL 10
REMARK VINA RESULT:      -8.5      3.169      4.526
REMARK  11 active torsions:
REMARK  status: ('A' for Active; 'I' for Inactive)
REMARK    1  A    between atoms: O_2  and  C_3 
REMARK    2  A    between atoms: C_5  and  C_6 
REMARK    3  A    between atoms: C_10  and  C_11 
REMARK       I    between atoms: C_11  and  N_12 
REMARK    4  A    between atoms: N_12  and  C_13 
REMARK    5  A    between atoms: C_13  and  C_14 
REMARK    6  A    between atoms: C_15  and  C_16 
REMARK    7  A    between atoms: C_16  and  O_17 
REMARK    8  A    between atoms: O_17  and  C_18 
REMARK    9  A    between atoms: C_19  and  C_20 
REMARK   10  A    between atoms: C_20  and  C_21 
REMARK   11  A    between atoms: C_29  and  O_30 
ROOT
HETATM    1  C   UNL     1       4.805  30.029  56.665  1.00  0.00     0.270 C 
HETATM    2  N   UNL     1       4.286  28.759  56.698  1.00  0.00    -0.345 N 
HETATM    3  O   UNL     1       5.361  30.491  55.674  1.00  0.00    -0.266 OA
HETATM    4  H   UNL     1       3.879  28.405  57.550  1.00  0.00     0.163 HD
ENDROOT
BRANCH   1   5
HETATM    5  C   UNL     1       4.672  30.784  57.882  1.00  0.00     0.120 A 
HETATM    6  N   UNL     1       3.562  30.671  58.673  1.00  0.00    -0.272 N 
HETATM    7  N   UNL     1       3.551  31.491  59.734  1.00  0.00    -0.174 NA
HETATM    8  H   UNL     1       2.764  30.063  58.514  1.00  0.00     0.189 HD
HETATM    9  C   UNL     1       4.722  32.139  59.660  1.00  0.00     0.092 A 
HETATM   10  C   UNL     1       5.460  31.721  58.519  1.00  0.00     0.071 A 
BRANCH   9  11
HETATM   11  C   UNL     1       5.083  33.193  60.602  1.00  0.00     0.030 A 
HETATM   12  C   UNL     1       4.380  34.409  60.541  1.00  0.00     0.053 A 
HETATM   13  C   UNL     1       4.657  35.449  61.430  1.00  0.00     0.069 A 
HETATM   14  C   UNL     1       5.657  35.280  62.386  1.00  0.00     0.039 A 
HETATM   15  C   UNL     1       6.370  34.077  62.452  1.00  0.00     0.040 A 
HETATM   16  C   UNL     1       6.081  33.026  61.573  1.00  0.00     0.081 A 
BRANCH  13  17
HETATM   17  O   UNL     1       3.894  36.570  61.250  1.00  0.00    -0.356 OA
HETATM   18  C   UNL     1       4.197  37.381  60.122  1.00  0.00     0.210 C 
ENDBRANCH  13  17
BRANCH  16  19
HETATM   19  O   UNL     1       6.814  31.867  61.569  1.00  0.00    -0.355 OA
HETATM   20  C   UNL     1       7.725  31.747  62.658  1.00  0.00     0.210 C 
ENDBRANCH  16  19
ENDBRANCH   9  11
ENDBRANCH   1   5
BRANCH   2  21
HETATM   21  C   UNL     1       4.481  27.840  55.608  1.00  0.00     0.217 C 
BRANCH  21  22
HETATM   22  C   UNL     1       5.367  26.751  56.024  1.00  0.00    -0.085 C 
HETATM   23  C   UNL     1       6.057  25.821  56.346  1.00  0.00    -0.078 C 
BRANCH  23  24
HETATM   24  C   UNL     1       6.850  24.638  56.706  1.00  0.00     0.269 C 
BRANCH  24  25
HETATM   25  O   UNL     1       7.896  24.410  55.755  1.00  0.00    -0.339 OA
BRANCH  25  26
HETATM   26  C   UNL     1       7.868  23.210  55.092  1.00  0.00     0.076 A 
HETATM   27  C   UNL     1       7.908  23.257  53.688  1.00  0.00    -0.021 A 
HETATM   28  C   UNL     1       7.896  22.052  52.962  1.00  0.00     0.010 A 
HETATM   29  C   UNL     1       7.876  20.823  53.620  1.00  0.00     0.001 A 
HETATM   30  C   UNL     1       7.866  20.783  55.010  1.00  0.00     0.003 A 
HETATM   31  C   UNL     1       7.866  21.971  55.744  1.00  0.00     0.037 A 
BRANCH  27  32
HETATM   32  C   UNL     1       7.914  24.567  52.931  1.00  0.00     0.067 C 
BRANCH  32  33
HETATM   33  C   UNL     1       6.608  24.823  52.229  1.00  0.00    -0.032 C 
HETATM   34  C   UNL     1       5.412  24.835  52.832  1.00  0.00     0.007 C 
ENDBRANCH  32  33
ENDBRANCH  27  32
ENDBRANCH  25  26
ENDBRANCH  24  25
ENDBRANCH  23  24
ENDBRANCH  21  22
ENDBRANCH   2  21
TORSDOF 11
ENDMDL
