MODEL 1
REMARK VINA RESULT:      -8.8      0.000      0.000
REMARK  2 active torsions:
REMARK  status: ('A' for Active; 'I' for Inactive)
REMARK    1  A    between atoms: N_3  and  C_4 
REMARK    2  A    between atoms: C_12  and  C_13 
REMARK       I    between atoms: C_13  and  N_14 
ROOT
HETATM    1  C   UNL     1       5.528  29.010  55.011  1.00  0.00     0.262 C 
HETATM    2  N   UNL     1       5.821  30.027  55.941  1.00  0.00    -0.311 N 
HETATM    3  C   UNL     1       6.900  30.025  56.868  1.00  0.00     0.064 A 
HETATM    4  C   UNL     1       6.818  30.626  58.139  1.00  0.00     0.061 A 
HETATM    5  C   UNL     1       7.942  30.564  58.989  1.00  0.00     0.032 A 
HETATM    6  C   UNL     1       9.130  29.954  58.592  1.00  0.00     0.002 A 
HETATM    7  C   UNL     1       9.224  29.398  57.328  1.00  0.00     0.002 A 
HETATM    8  C   UNL     1       8.123  29.439  56.473  1.00  0.00     0.032 A 
HETATM    9  N   UNL     1       5.705  31.274  58.711  1.00  0.00    -0.325 N 
HETATM   10  C   UNL     1       4.473  31.628  58.274  1.00  0.00     0.227 C 
HETATM   11  O   UNL     1       3.741  32.213  59.082  1.00  0.00    -0.273 OA
HETATM   12  C   UNL     1       3.947  31.306  56.901  1.00  0.00     0.092 C 
HETATM   13  C   UNL     1       3.068  30.060  56.952  1.00  0.00     0.021 C 
HETATM   14  C   UNL     1       5.049  31.260  55.863  1.00  0.00     0.146 C 
HETATM   15  O   UNL     1       4.879  29.247  53.991  1.00  0.00    -0.267 OA
HETATM   16  H   UNL     1       5.825  31.599  59.666  1.00  0.00     0.169 HD
ENDROOT
BRANCH   1  17
HETATM   17  C   UNL     1       5.898  27.625  55.319  1.00  0.00     0.075 C 
HETATM   18  C   UNL     1       6.835  26.853  54.633  1.00  0.00     0.050 C 
HETATM   19  C   UNL     1       7.762  27.282  53.549  1.00  0.00     0.071 C 
HETATM   20  N   UNL     1       6.791  25.579  55.192  1.00  0.00    -0.238 N 
HETATM   21  N   UNL     1       5.992  25.562  56.292  1.00  0.00    -0.179 NA
HETATM   22  C   UNL     1       5.394  26.749  56.297  1.00  0.00     0.158 C 
BRANCH  20  23
HETATM   23  C   UNL     1       7.424  24.365  54.793  1.00  0.00     0.061 A 
HETATM   24  C   UNL     1       7.035  23.765  53.589  1.00  0.00     0.051 A 
HETATM   25  C   UNL     1       7.652  22.588  53.206  1.00  0.00     0.118 A 
HETATM   26  N   UNL     1       8.629  21.988  53.918  1.00  0.00    -0.273 NA
HETATM   27  C   UNL     1       9.010  22.601  55.057  1.00  0.00     0.118 A 
HETATM   28  C   UNL     1       8.448  23.776  55.533  1.00  0.00     0.051 A 
ENDBRANCH  20  23
ENDBRANCH   1  17
TORSDOF 2
ENDMDL
MODEL 2
REMARK VINA RESULT:      -8.5      2.469      6.521
REMARK  2 active torsions:
REMARK  status: ('A' for Active; 'I' for Inactive)
REMARK    1  A    between atoms: N_3  and  C_4 
REMARK    2  A    between atoms: C_12  and  C_13 
REMARK       I    between atoms: C_13  and  N_14 
ROOT
HETATM    1  C   UNL     1       5.104  27.148  55.517  1.00  0.00     0.262 C 
HETATM    2  N   UNL     1       5.263  26.476  54.289  1.00  0.00    -0.311 N 
HETATM    3  C   UNL     1       6.305  25.564  53.966  1.00  0.00     0.064 A 
HETATM    4  C   UNL     1       6.829  25.431  52.664  1.00  0.00     0.061 A 
HETATM    5  C   UNL     1       7.867  24.503  52.445  1.00  0.00     0.032 A 
HETATM    6  C   UNL     1       8.363  23.700  53.471  1.00  0.00     0.002 A 
HETATM    7  C   UNL     1       7.821  23.802  54.742  1.00  0.00     0.002 A 
HETATM    8  C   UNL     1       6.799  24.720  54.984  1.00  0.00     0.032 A 
HETATM    9  N   UNL     1       6.463  26.159  51.514  1.00  0.00    -0.325 N 
HETATM   10  C   UNL     1       5.507  27.073  51.222  1.00  0.00     0.227 C 
HETATM   11  O   UNL     1       5.481  27.503  50.062  1.00  0.00    -0.273 OA
HETATM   12  C   UNL     1       4.531  27.616  52.232  1.00  0.00     0.092 C 
HETATM   13  C   UNL     1       5.013  28.965  52.759  1.00  0.00     0.021 C 
HETATM   14  C   UNL     1       4.195  26.602  53.305  1.00  0.00     0.146 C 
HETATM   15  O   UNL     1       4.003  27.565  55.878  1.00  0.00    -0.267 OA
HETATM   16  H   UNL     1       6.995  25.955  50.673  1.00  0.00     0.169 HD
ENDROOT
BRANCH   1  17
HETATM   17  C   UNL     1       6.288  27.460  56.324  1.00  0.00     0.075 C 
HETATM   18  C   UNL     1       6.878  28.717  56.465  1.00  0.00     0.050 C 
HETATM   19  C   UNL     1       6.379  30.027  55.964  1.00  0.00     0.071 C 
HETATM   20  N   UNL     1       8.029  28.535  57.228  1.00  0.00    -0.238 N 
HETATM   21  N   UNL     1       8.099  27.263  57.700  1.00  0.00    -0.179 NA
HETATM   22  C   UNL     1       7.120  26.614  57.078  1.00  0.00     0.158 C 
BRANCH  20  23
HETATM   23  C   UNL     1       9.079  29.441  57.556  1.00  0.00     0.061 A 
HETATM   24  C   UNL     1      10.321  29.292  56.927  1.00  0.00     0.051 A 
HETATM   25  C   UNL     1      11.338  30.174  57.248  1.00  0.00     0.118 A 
HETATM   26  N   UNL     1      11.197  31.190  58.124  1.00  0.00    -0.273 NA
HETATM   27  C   UNL     1       9.983  31.336  58.693  1.00  0.00     0.118 A 
HETATM   28  C   UNL     1       8.904  30.500  58.446  1.00  0.00     0.051 A 
ENDBRANCH  20  23
ENDBRANCH   1  17
TORSDOF 2
ENDMDL
MODEL 3
REMARK VINA RESULT:      -8.4      2.140      3.046
REMARK  2 active torsions:
REMARK  status: ('A' for Active; 'I' for Inactive)
REMARK    1  A    between atoms: N_3  and  C_4 
REMARK    2  A    between atoms: C_12  and  C_13 
REMARK       I    between atoms: C_13  and  N_14 
ROOT
HETATM    1  C   UNL     1       6.103  27.047  52.662  1.00  0.00     0.262 C 
HETATM    2  N   UNL     1       5.984  28.280  53.333  1.00  0.00    -0.311 N 
HETATM    3  C   UNL     1       6.576  28.610  54.583  1.00  0.00     0.064 A 
HETATM    4  C   UNL     1       5.971  29.484  55.508  1.00  0.00     0.061 A 
HETATM    5  C   UNL     1       6.634  29.744  56.725  1.00  0.00     0.032 A 
HETATM    6  C   UNL     1       7.876  29.183  57.019  1.00  0.00     0.002 A 
HETATM    7  C   UNL     1       8.489  28.355  56.093  1.00  0.00     0.002 A 
HETATM    8  C   UNL     1       7.847  28.077  54.886  1.00  0.00     0.032 A 
HETATM    9  N   UNL     1       4.724  30.131  55.389  1.00  0.00    -0.325 N 
HETATM   10  C   UNL     1       3.791  30.241  54.413  1.00  0.00     0.227 C 
HETATM   11  O   UNL     1       2.791  30.922  54.672  1.00  0.00    -0.273 OA
HETATM   12  C   UNL     1       3.888  29.548  53.080  1.00  0.00     0.092 C 
HETATM   13  C   UNL     1       3.061  28.265  53.091  1.00  0.00     0.021 C 
HETATM   14  C   UNL     1       5.323  29.372  52.630  1.00  0.00     0.146 C 
HETATM   15  O   UNL     1       5.943  26.965  51.444  1.00  0.00    -0.267 OA
HETATM   16  H   UNL     1       4.434  30.684  56.190  1.00  0.00     0.169 HD
ENDROOT
BRANCH   1  17
HETATM   17  C   UNL     1       6.302  25.821  53.442  1.00  0.00     0.075 C 
HETATM   18  C   UNL     1       7.222  24.810  53.164  1.00  0.00     0.050 C 
HETATM   19  C   UNL     1       8.291  24.801  52.127  1.00  0.00     0.071 C 
HETATM   20  N   UNL     1       6.997  23.796  54.091  1.00  0.00    -0.238 N 
HETATM   21  N   UNL     1       6.094  24.191  55.027  1.00  0.00    -0.179 NA
HETATM   22  C   UNL     1       5.618  25.347  54.576  1.00  0.00     0.158 C 
BRANCH  20  23
HETATM   23  C   UNL     1       7.544  22.483  54.185  1.00  0.00     0.061 A 
HETATM   24  C   UNL     1       7.765  21.933  55.454  1.00  0.00     0.051 A 
HETATM   25  C   UNL     1       8.296  20.658  55.540  1.00  0.00     0.118 A 
HETATM   26  N   UNL     1       8.597  19.899  54.466  1.00  0.00    -0.273 NA
HETATM   27  C   UNL     1       8.345  20.436  53.255  1.00  0.00     0.118 A 
HETATM   28  C   UNL     1       7.825  21.707  53.062  1.00  0.00     0.051 A 
ENDBRANCH  20  23
ENDBRANCH   1  17
TORSDOF 2
ENDMDL
MODEL 4
REMARK VINA RESULT:      -8.1      6.918     11.650
REMARK  2 active torsions:
REMARK  status: ('A' for Active; 'I' for Inactive)
REMARK    1  A    between atoms: N_3  and  C_4 
REMARK    2  A    between atoms: C_12  and  C_13 
REMARK       I    between atoms: C_13  and  N_14 
ROOT
HETATM    1  C   UNL     1       3.442  33.983  63.299  1.00  0.00     0.262 C 
HETATM    2  N   UNL     1       4.206  33.022  62.608  1.00  0.00    -0.311 N 
HETATM    3  C   UNL     1       5.615  32.849  62.704  1.00  0.00     0.064 A 
HETATM    4  C   UNL     1       6.407  32.415  61.623  1.00  0.00     0.061 A 
HETATM    5  C   UNL     1       7.798  32.280  61.817  1.00  0.00     0.032 A 
HETATM    6  C   UNL     1       8.396  32.537  63.049  1.00  0.00     0.002 A 
HETATM    7  C   UNL     1       7.612  32.926  64.122  1.00  0.00     0.002 A 
HETATM    8  C   UNL     1       6.235  33.074  63.952  1.00  0.00     0.032 A 
HETATM    9  N   UNL     1       5.983  32.120  60.312  1.00  0.00    -0.325 N 
HETATM   10  C   UNL     1       4.783  32.039  59.689  1.00  0.00     0.227 C 
HETATM   11  O   UNL     1       4.797  31.735  58.489  1.00  0.00    -0.273 OA
HETATM   12  C   UNL     1       3.470  32.345  60.357  1.00  0.00     0.092 C 
HETATM   13  C   UNL     1       3.029  33.768  60.028  1.00  0.00     0.021 C 
HETATM   14  C   UNL     1       3.490  32.015  61.835  1.00  0.00     0.146 C 
HETATM   15  O   UNL     1       2.239  33.814  63.504  1.00  0.00    -0.267 OA
HETATM   16  H   UNL     1       6.716  31.871  59.655  1.00  0.00     0.169 HD
ENDROOT
BRANCH   1  17
HETATM   17  C   UNL     1       4.061  35.257  63.677  1.00  0.00     0.075 C 
HETATM   18  C   UNL     1       4.623  36.189  62.804  1.00  0.00     0.050 C 
HETATM   19  C   UNL     1       4.599  36.183  61.315  1.00  0.00     0.071 C 
HETATM   20  N   UNL     1       5.184  37.190  63.593  1.00  0.00    -0.238 N 
HETATM   21  N   UNL     1       4.862  37.011  64.901  1.00  0.00    -0.179 NA
HETATM   22  C   UNL     1       4.285  35.814  64.949  1.00  0.00     0.158 C 
BRANCH  20  23
HETATM   23  C   UNL     1       6.001  38.303  63.240  1.00  0.00     0.061 A 
HETATM   24  C   UNL     1       6.335  39.236  64.230  1.00  0.00     0.051 A 
HETATM   25  C   UNL     1       7.130  40.315  63.884  1.00  0.00     0.118 A 
HETATM   26  N   UNL     1       7.622  40.514  62.643  1.00  0.00    -0.273 NA
HETATM   27  C   UNL     1       7.314  39.585  61.714  1.00  0.00     0.118 A 
HETATM   28  C   UNL     1       6.519  38.476  61.958  1.00  0.00     0.051 A 
ENDBRANCH  20  23
ENDBRANCH   1  17
TORSDOF 2
ENDMDL
MODEL 5
REMARK VINA RESULT:      -7.8      2.856      7.871
REMARK  2 active torsions:
REMARK  status: ('A' for Active; 'I' for Inactive)
REMARK    1  A    between atoms: N_3  and  C_4 
REMARK    2  A    between atoms: C_12  and  C_13 
REMARK       I    between atoms: C_13  and  N_14 
ROOT
HETATM    1  C   UNL     1       8.313  24.851  56.722  1.00  0.00     0.262 C 
HETATM    2  N   UNL     1       8.565  24.042  55.597  1.00  0.00    -0.311 N 
HETATM    3  C   UNL     1       8.115  24.293  54.271  1.00  0.00     0.064 A 
HETATM    4  C   UNL     1       7.791  23.263  53.366  1.00  0.00     0.061 A 
HETATM    5  C   UNL     1       7.346  23.614  52.075  1.00  0.00     0.032 A 
HETATM    6  C   UNL     1       7.249  24.943  51.668  1.00  0.00     0.002 A 
HETATM    7  C   UNL     1       7.605  25.955  52.544  1.00  0.00     0.002 A 
HETATM    8  C   UNL     1       8.039  25.632  53.829  1.00  0.00     0.032 A 
HETATM    9  N   UNL     1       7.818  21.874  53.602  1.00  0.00    -0.325 N 
HETATM   10  C   UNL     1       8.225  21.083  54.623  1.00  0.00     0.227 C 
HETATM   11  O   UNL     1       8.100  19.862  54.467  1.00  0.00    -0.273 OA
HETATM   12  C   UNL     1       8.760  21.609  55.928  1.00  0.00     0.092 C 
HETATM   13  C   UNL     1       7.657  21.623  56.983  1.00  0.00     0.021 C 
HETATM   14  C   UNL     1       9.488  22.926  55.758  1.00  0.00     0.146 C 
HETATM   15  O   UNL     1       9.052  24.823  57.707  1.00  0.00    -0.267 OA
HETATM   16  H   UNL     1       7.497  21.289  52.836  1.00  0.00     0.169 HD
ENDROOT
BRANCH   1  17
HETATM   17  C   UNL     1       7.085  25.651  56.772  1.00  0.00     0.075 C 
HETATM   18  C   UNL     1       7.000  27.036  56.629  1.00  0.00     0.050 C 
HETATM   19  C   UNL     1       8.082  27.989  56.259  1.00  0.00     0.071 C 
HETATM   20  N   UNL     1       5.669  27.381  56.849  1.00  0.00    -0.238 N 
HETATM   21  N   UNL     1       4.895  26.270  56.963  1.00  0.00    -0.179 NA
HETATM   22  C   UNL     1       5.757  25.258  57.016  1.00  0.00     0.158 C 
BRANCH  20  23
HETATM   23  C   UNL     1       5.046  28.658  56.969  1.00  0.00     0.061 A 
HETATM   24  C   UNL     1       3.901  28.925  56.208  1.00  0.00     0.051 A 
HETATM   25  C   UNL     1       3.300  30.165  56.328  1.00  0.00     0.118 A 
HETATM   26  N   UNL     1       3.743  31.134  57.156  1.00  0.00    -0.273 NA
HETATM   27  C   UNL     1       4.827  30.843  57.904  1.00  0.00     0.118 A 
HETATM   28  C   UNL     1       5.507  29.636  57.849  1.00  0.00     0.051 A 
ENDBRANCH  20  23
ENDBRANCH   1  17
TORSDOF 2
ENDMDL
MODEL 6
REMARK VINA RESULT:      -7.8      2.524      4.139
REMARK  2 active torsions:
REMARK  status: ('A' for Active; 'I' for Inactive)
REMARK    1  A    between atoms: N_3  and  C_4 
REMARK    2  A    between atoms: C_12  and  C_13 
REMARK       I    between atoms: C_13  and  N_14 
ROOT
HETATM    1  C   UNL     1       6.145  31.976  58.039  1.00  0.00     0.262 C 
HETATM    2  N   UNL     1       6.101  32.404  59.380  1.00  0.00    -0.311 N 
HETATM    3  C   UNL     1       7.064  32.106  60.383  1.00  0.00     0.064 A 
HETATM    4  C   UNL     1       6.729  31.947  61.742  1.00  0.00     0.061 A 
HETATM    5  C   UNL     1       7.756  31.645  62.660  1.00  0.00     0.032 A 
HETATM    6  C   UNL     1       9.086  31.531  62.262  1.00  0.00     0.002 A 
HETATM    7  C   UNL     1       9.422  31.727  60.933  1.00  0.00     0.002 A 
HETATM    8  C   UNL     1       8.421  32.017  60.005  1.00  0.00     0.032 A 
HETATM    9  N   UNL     1       5.446  32.016  62.323  1.00  0.00    -0.325 N 
HETATM   10  C   UNL     1       4.208  32.334  61.877  1.00  0.00     0.227 C 
HETATM   11  O   UNL     1       3.289  32.292  62.704  1.00  0.00    -0.273 OA
HETATM   12  C   UNL     1       3.897  32.679  60.445  1.00  0.00     0.092 C 
HETATM   13  C   UNL     1       3.345  31.458  59.716  1.00  0.00     0.021 C 
HETATM   14  C   UNL     1       5.062  33.356  59.753  1.00  0.00     0.146 C 
HETATM   15  O   UNL     1       5.549  32.591  57.153  1.00  0.00    -0.267 OA
HETATM   16  H   UNL     1       5.401  31.820  63.319  1.00  0.00     0.169 HD
ENDROOT
BRANCH   1  17
HETATM   17  C   UNL     1       6.811  30.712  57.708  1.00  0.00     0.075 C 
HETATM   18  C   UNL     1       6.182  29.501  57.422  1.00  0.00     0.050 C 
HETATM   19  C   UNL     1       4.726  29.242  57.245  1.00  0.00     0.071 C 
HETATM   20  N   UNL     1       7.189  28.551  57.273  1.00  0.00    -0.238 N 
HETATM   21  N   UNL     1       8.413  29.139  57.293  1.00  0.00    -0.179 NA
HETATM   22  C   UNL     1       8.181  30.399  57.651  1.00  0.00     0.158 C 
BRANCH  20  23
HETATM   23  C   UNL     1       7.117  27.136  57.116  1.00  0.00     0.061 A 
HETATM   24  C   UNL     1       8.281  26.377  57.292  1.00  0.00     0.051 A 
HETATM   25  C   UNL     1       8.206  25.004  57.140  1.00  0.00     0.118 A 
HETATM   26  N   UNL     1       7.066  24.344  56.849  1.00  0.00    -0.273 NA
HETATM   27  C   UNL     1       5.951  25.092  56.717  1.00  0.00     0.118 A 
HETATM   28  C   UNL     1       5.922  26.473  56.839  1.00  0.00     0.051 A 
ENDBRANCH  20  23
ENDBRANCH   1  17
TORSDOF 2
ENDMDL
MODEL 7
REMARK VINA RESULT:      -7.8      5.851      9.166
REMARK  2 active torsions:
REMARK  status: ('A' for Active; 'I' for Inactive)
REMARK    1  A    between atoms: N_3  and  C_4 
REMARK    2  A    between atoms: C_12  and  C_13 
REMARK       I    between atoms: C_13  and  N_14 
ROOT
HETATM    1  C   UNL     1       4.451  33.492  62.797  1.00  0.00     0.262 C 
HETATM    2  N   UNL     1       4.286  34.762  63.386  1.00  0.00    -0.311 N 
HETATM    3  C   UNL     1       4.977  35.949  63.017  1.00  0.00     0.064 A 
HETATM    4  C   UNL     1       5.311  36.958  63.942  1.00  0.00     0.061 A 
HETATM    5  C   UNL     1       6.004  38.096  63.479  1.00  0.00     0.032 A 
HETATM    6  C   UNL     1       6.336  38.257  62.136  1.00  0.00     0.002 A 
HETATM    7  C   UNL     1       5.973  37.284  61.220  1.00  0.00     0.002 A 
HETATM    8  C   UNL     1       5.295  36.145  61.656  1.00  0.00     0.032 A 
HETATM    9  N   UNL     1       5.068  36.964  65.330  1.00  0.00    -0.325 N 
HETATM   10  C   UNL     1       4.400  36.157  66.190  1.00  0.00     0.227 C 
HETATM   11  O   UNL     1       4.392  36.496  67.380  1.00  0.00    -0.273 OA
HETATM   12  C   UNL     1       3.730  34.873  65.783  1.00  0.00     0.092 C 
HETATM   13  C   UNL     1       4.636  33.684  66.091  1.00  0.00     0.021 C 
HETATM   14  C   UNL     1       3.214  34.922  64.360  1.00  0.00     0.146 C 
HETATM   15  O   UNL     1       3.562  32.642  62.855  1.00  0.00    -0.267 OA
HETATM   16  H   UNL     1       5.433  37.763  65.840  1.00  0.00     0.169 HD
ENDROOT
BRANCH   1  17
HETATM   17  C   UNL     1       5.746  33.135  62.209  1.00  0.00     0.075 C 
HETATM   18  C   UNL     1       5.962  32.687  60.906  1.00  0.00     0.050 C 
HETATM   19  C   UNL     1       4.980  32.605  59.789  1.00  0.00     0.071 C 
HETATM   20  N   UNL     1       7.314  32.368  60.810  1.00  0.00    -0.238 N 
HETATM   21  N   UNL     1       7.979  32.744  61.934  1.00  0.00    -0.179 NA
HETATM   22  C   UNL     1       7.027  33.103  62.790  1.00  0.00     0.158 C 
BRANCH  20  23
HETATM   23  C   UNL     1       8.049  31.736  59.765  1.00  0.00     0.061 A 
HETATM   24  C   UNL     1       9.372  32.133  59.535  1.00  0.00     0.051 A 
HETATM   25  C   UNL     1      10.082  31.517  58.519  1.00  0.00     0.118 A 
HETATM   26  N   UNL     1       9.578  30.535  57.743  1.00  0.00    -0.273 NA
HETATM   27  C   UNL     1       8.312  30.146  58.004  1.00  0.00     0.118 A 
HETATM   28  C   UNL     1       7.515  30.707  58.991  1.00  0.00     0.051 A 
ENDBRANCH  20  23
ENDBRANCH   1  17
TORSDOF 2
ENDMDL
MODEL 8
REMARK VINA RESULT:      -7.8      2.293      6.591
REMARK  2 active torsions:
REMARK  status: ('A' for Active; 'I' for Inactive)
REMARK    1  A    between atoms: N_3  and  C_4 
REMARK    2  A    between atoms: C_12  and  C_13 
REMARK       I    between atoms: C_13  and  N_14 
ROOT
HETATM    1  C   UNL     1       5.125  27.260  55.211  1.00  0.00     0.262 C 
HETATM    2  N   UNL     1       5.716  26.052  54.793  1.00  0.00    -0.311 N 
HETATM    3  C   UNL     1       6.703  25.316  55.506  1.00  0.00     0.064 A 
HETATM    4  C   UNL     1       7.708  24.564  54.865  1.00  0.00     0.061 A 
HETATM    5  C   UNL     1       8.645  23.873  55.660  1.00  0.00     0.032 A 
HETATM    6  C   UNL     1       8.584  23.893  57.052  1.00  0.00     0.002 A 
HETATM    7  C   UNL     1       7.572  24.599  57.682  1.00  0.00     0.002 A 
HETATM    8  C   UNL     1       6.639  25.297  56.916  1.00  0.00     0.032 A 
HETATM    9  N   UNL     1       7.931  24.437  53.479  1.00  0.00    -0.325 N 
HETATM   10  C   UNL     1       7.281  24.841  52.362  1.00  0.00     0.227 C 
HETATM   11  O   UNL     1       7.786  24.527  51.277  1.00  0.00    -0.273 OA
HETATM   12  C   UNL     1       6.031  25.679  52.379  1.00  0.00     0.092 C 
HETATM   13  C   UNL     1       6.378  27.149  52.155  1.00  0.00     0.021 C 
HETATM   14  C   UNL     1       5.178  25.411  53.601  1.00  0.00     0.146 C 
HETATM   15  O   UNL     1       4.021  27.609  54.790  1.00  0.00    -0.267 OA
HETATM   16  H   UNL     1       8.744  23.889  53.210  1.00  0.00     0.169 HD
ENDROOT
BRANCH   1  17
HETATM   17  C   UNL     1       5.887  28.175  56.067  1.00  0.00     0.075 C 
HETATM   18  C   UNL     1       7.186  28.627  55.837  1.00  0.00     0.050 C 
HETATM   19  C   UNL     1       8.032  28.412  54.630  1.00  0.00     0.071 C 
HETATM   20  N   UNL     1       7.549  29.386  56.946  1.00  0.00    -0.238 N 
HETATM   21  N   UNL     1       6.490  29.560  57.779  1.00  0.00    -0.179 NA
HETATM   22  C   UNL     1       5.544  28.759  57.300  1.00  0.00     0.158 C 
BRANCH  20  23
HETATM   23  C   UNL     1       8.801  29.963  57.308  1.00  0.00     0.061 A 
HETATM   24  C   UNL     1       8.816  31.024  58.222  1.00  0.00     0.051 A 
HETATM   25  C   UNL     1      10.034  31.581  58.571  1.00  0.00     0.118 A 
HETATM   26  N   UNL     1      11.219  31.147  58.095  1.00  0.00    -0.273 NA
HETATM   27  C   UNL     1      11.183  30.103  57.242  1.00  0.00     0.118 A 
HETATM   28  C   UNL     1      10.016  29.482  56.822  1.00  0.00     0.051 A 
ENDBRANCH  20  23
ENDBRANCH   1  17
TORSDOF 2
ENDMDL
MODEL 9
REMARK VINA RESULT:      -7.7      2.230      6.968
REMARK  2 active torsions:
REMARK  status: ('A' for Active; 'I' for Inactive)
REMARK    1  A    between atoms: N_3  and  C_4 
REMARK    2  A    between atoms: C_12  and  C_13 
REMARK       I    between atoms: C_13  and  N_14 
ROOT
HETATM    1  C   UNL     1       4.800  29.046  55.118  1.00  0.00     0.262 C 
HETATM    2  N   UNL     1       4.769  27.795  54.471  1.00  0.00    -0.311 N 
HETATM    3  C   UNL     1       5.365  26.595  54.947  1.00  0.00     0.064 A 
HETATM    4  C   UNL     1       5.894  25.611  54.088  1.00  0.00     0.061 A 
HETATM    5  C   UNL     1       6.471  24.457  54.658  1.00  0.00     0.032 A 
HETATM    6  C   UNL     1       6.503  24.256  56.036  1.00  0.00     0.002 A 
HETATM    7  C   UNL     1       5.948  25.204  56.879  1.00  0.00     0.002 A 
HETATM    8  C   UNL     1       5.379  26.358  56.339  1.00  0.00     0.032 A 
HETATM    9  N   UNL     1       5.958  25.646  52.681  1.00  0.00    -0.325 N 
HETATM   10  C   UNL     1       5.493  26.479  51.720  1.00  0.00     0.227 C 
HETATM   11  O   UNL     1       5.744  26.175  50.548  1.00  0.00    -0.273 OA
HETATM   12  C   UNL     1       4.748  27.755  52.008  1.00  0.00     0.092 C 
HETATM   13  C   UNL     1       5.697  28.948  51.939  1.00  0.00     0.021 C 
HETATM   14  C   UNL     1       3.935  27.668  53.283  1.00  0.00     0.146 C 
HETATM   15  O   UNL     1       3.944  29.902  54.893  1.00  0.00    -0.267 OA
HETATM   16  H   UNL     1       6.427  24.860  52.240  1.00  0.00     0.169 HD
ENDROOT
BRANCH   1  17
HETATM   17  C   UNL     1       5.936  29.380  55.984  1.00  0.00     0.075 C 
HETATM   18  C   UNL     1       5.859  29.891  57.279  1.00  0.00     0.050 C 
HETATM   19  C   UNL     1       4.646  30.077  58.123  1.00  0.00     0.071 C 
HETATM   20  N   UNL     1       7.165  30.157  57.683  1.00  0.00    -0.238 N 
HETATM   21  N   UNL     1       8.056  29.691  56.770  1.00  0.00    -0.179 NA
HETATM   22  C   UNL     1       7.317  29.326  55.727  1.00  0.00     0.158 C 
BRANCH  20  23
HETATM   23  C   UNL     1       7.663  30.814  58.846  1.00  0.00     0.061 A 
HETATM   24  C   UNL     1       7.016  31.972  59.297  1.00  0.00     0.051 A 
HETATM   25  C   UNL     1       7.503  32.606  60.427  1.00  0.00     0.118 A 
HETATM   26  N   UNL     1       8.561  32.161  61.137  1.00  0.00    -0.273 NA
HETATM   27  C   UNL     1       9.148  31.027  60.703  1.00  0.00     0.118 A 
HETATM   28  C   UNL     1       8.743  30.324  59.578  1.00  0.00     0.051 A 
ENDBRANCH  20  23
ENDBRANCH   1  17
TORSDOF 2
ENDMDL
MODEL 10
REMARK VINA RESULT:      -7.6      4.769      7.416
REMARK  2 active torsions:
REMARK  status: ('A' for Active; 'I' for Inactive)
REMARK    1  A    between atoms: N_3  and  C_4 
REMARK    2  A    between atoms: C_12  and  C_13 
REMARK       I    between atoms: C_13  and  N_14 
ROOT
HETATM    1  C   UNL     1       3.942  34.313  60.716  1.00  0.00     0.262 C 
HETATM    2  N   UNL     1       4.789  34.289  61.840  1.00  0.00    -0.311 N 
HETATM    3  C   UNL     1       5.938  33.466  62.002  1.00  0.00     0.064 A 
HETATM    4  C   UNL     1       6.352  32.968  63.253  1.00  0.00     0.061 A 
HETATM    5  C   UNL     1       7.502  32.154  63.309  1.00  0.00     0.032 A 
HETATM    6  C   UNL     1       8.248  31.858  62.170  1.00  0.00     0.002 A 
HETATM    7  C   UNL     1       7.864  32.380  60.946  1.00  0.00     0.002 A 
HETATM    8  C   UNL     1       6.725  33.181  60.865  1.00  0.00     0.032 A 
HETATM    9  N   UNL     1       5.723  33.152  64.501  1.00  0.00    -0.325 N 
HETATM   10  C   UNL     1       4.673  33.883  64.946  1.00  0.00     0.227 C 
HETATM   11  O   UNL     1       4.406  33.800  66.151  1.00  0.00    -0.273 OA
HETATM   12  C   UNL     1       3.804  34.729  64.054  1.00  0.00     0.092 C 
HETATM   13  C   UNL     1       2.531  33.972  63.685  1.00  0.00     0.021 C 
HETATM   14  C   UNL     1       4.570  35.291  62.875  1.00  0.00     0.146 C 
HETATM   15  O   UNL     1       3.254  35.301  60.456  1.00  0.00    -0.267 OA
HETATM   16  H   UNL     1       6.146  32.667  65.286  1.00  0.00     0.169 HD
ENDROOT
BRANCH   1  17
HETATM   17  C   UNL     1       3.785  33.099  59.907  1.00  0.00     0.075 C 
HETATM   18  C   UNL     1       4.157  32.947  58.571  1.00  0.00     0.050 C 
HETATM   19  C   UNL     1       4.912  33.903  57.714  1.00  0.00     0.071 C 
HETATM   20  N   UNL     1       3.732  31.681  58.179  1.00  0.00    -0.238 N 
HETATM   21  N   UNL     1       3.260  30.979  59.242  1.00  0.00    -0.179 NA
HETATM   22  C   UNL     1       3.203  31.861  60.235  1.00  0.00     0.158 C 
BRANCH  20  23
HETATM   23  C   UNL     1       3.721  31.061  56.895  1.00  0.00     0.061 A 
HETATM   24  C   UNL     1       4.388  29.840  56.729  1.00  0.00     0.051 A 
HETATM   25  C   UNL     1       4.374  29.242  55.482  1.00  0.00     0.118 A 
HETATM   26  N   UNL     1       3.734  29.757  54.412  1.00  0.00    -0.273 NA
HETATM   27  C   UNL     1       3.070  30.916  54.603  1.00  0.00     0.118 A 
HETATM   28  C   UNL     1       3.032  31.599  55.809  1.00  0.00     0.051 A 
ENDBRANCH  20  23
ENDBRANCH   1  17
TORSDOF 2
ENDMDL
