MODEL 1
REMARK VINA RESULT:      -8.5      0.000      0.000
REMARK  9 active torsions:
REMARK  status: ('A' for Active; 'I' for Inactive)
REMARK    1  A    between atoms: C_2  and  C_3 
REMARK    2  A    between atoms: C_6  and  N_7 
REMARK    3  A    between atoms: C_8  and  O_9 
REMARK    4  A    between atoms: C_8  and  C_10 
REMARK       I    between atoms: C_10  and  N_11 
REMARK    5  A    between atoms: N_11  and  C_12 
REMARK    6  A    between atoms: C_12  and  C_13 
REMARK    7  A    between atoms: C_13  and  N_14 
REMARK    8  A    between atoms: N_14  and  C_16 
REMARK    9  A    between atoms: N_14  and  C_18 
ROOT
HETATM    1  N   UNL     1       6.975  26.336  55.448  1.00  0.00    -0.254 N 
HETATM    2  C   UNL     1       7.466  27.619  54.933  1.00  0.00     0.256 C 
HETATM    3  C   UNL     1       8.099  28.438  56.026  1.00  0.00     0.034 A 
HETATM    4  C   UNL     1       7.536  28.318  57.299  1.00  0.00     0.048 A 
HETATM    5  N   UNL     1       6.483  27.417  57.471  1.00  0.00    -0.308 N 
HETATM    6  C   UNL     1       6.176  26.401  56.590  1.00  0.00     0.330 C 
HETATM    7  O   UNL     1       5.267  25.631  56.889  1.00  0.00    -0.246 OA
HETATM    8  C   UNL     1       9.141  29.350  55.823  1.00  0.00     0.015 A 
HETATM    9  C   UNL     1       9.603  30.126  56.885  1.00  0.00     0.001 A 
HETATM   10  C   UNL     1       9.023  30.006  58.147  1.00  0.00     0.002 A 
HETATM   11  C   UNL     1       7.979  29.104  58.358  1.00  0.00     0.030 A 
HETATM   12  H   UNL     1       6.040  27.331  58.379  1.00  0.00     0.170 HD
ENDROOT
BRANCH   2  13
HETATM   13  O   UNL     1       8.370  27.482  53.840  1.00  0.00    -0.359 OA
HETATM   14  H   UNL     1       8.667  26.553  53.861  1.00  0.00     0.213 HD
ENDBRANCH   2  13
BRANCH   2  15
HETATM   15  C   UNL     1       6.178  28.299  54.288  1.00  0.00     0.279 C 
HETATM   16  N   UNL     1       5.831  27.994  52.986  1.00  0.00    -0.355 N 
HETATM   17  H   UNL     1       6.253  27.157  52.593  1.00  0.00     0.162 HD
HETATM   18  O   UNL     1       5.574  29.207  54.875  1.00  0.00    -0.268 OA
BRANCH  16  19
HETATM   19  C   UNL     1       4.604  28.432  52.323  1.00  0.00     0.150 C 
BRANCH  19  20
HETATM   20  C   UNL     1       4.600  28.599  50.787  1.00  0.00     0.254 C 
BRANCH  20  21
HETATM   21  N   UNL     1       3.721  27.599  50.054  1.00  0.00    -0.070 N 
HETATM   22  H   UNL     1       3.173  27.168  50.821  1.00  0.00     0.279 HD
BRANCH  21  23
HETATM   23  C   UNL     1       2.706  28.182  49.098  1.00  0.00     0.230 C 
HETATM   24  C   UNL     1       1.586  28.904  49.826  1.00  0.00     0.034 C 
ENDBRANCH  21  23
BRANCH  21  25
HETATM   25  C   UNL     1       4.510  26.458  49.443  1.00  0.00     0.230 C 
HETATM   26  C   UNL     1       4.698  26.659  47.950  1.00  0.00     0.034 C 
ENDBRANCH  21  25
ENDBRANCH  20  21
ENDBRANCH  19  20
ENDBRANCH  16  19
ENDBRANCH   2  15
BRANCH   1  27
HETATM   27  C   UNL     1       7.231  25.091  54.793  1.00  0.00     0.043 A 
HETATM   28  C   UNL     1       6.521  24.690  53.656  1.00  0.00     0.030 A 
HETATM   29  C   UNL     1       6.767  23.450  53.050  1.00  0.00     0.009 A 
HETATM   30  C   UNL     1       7.715  22.570  53.583  1.00  0.00    -0.058 A 
HETATM   31  C   UNL     1       8.404  22.949  54.737  1.00  0.00     0.009 A 
HETATM   32  C   UNL     1       8.161  24.191  55.333  1.00  0.00     0.030 A 
BRANCH  30  33
HETATM   33  C   UNL     1       7.970  21.227  52.946  1.00  0.00     0.034 C 
HETATM   34  C   UNL     1       8.725  20.282  53.871  1.00  0.00     0.010 C 
ENDBRANCH  30  33
ENDBRANCH   1  27
TORSDOF 9
ENDMDL
MODEL 2
REMARK VINA RESULT:      -7.9      1.984      6.098
REMARK  9 active torsions:
REMARK  status: ('A' for Active; 'I' for Inactive)
REMARK    1  A    between atoms: C_2  and  C_3 
REMARK    2  A    between atoms: C_6  and  N_7 
REMARK    3  A    between atoms: C_8  and  O_9 
REMARK    4  A    between atoms: C_8  and  C_10 
REMARK       I    between atoms: C_10  and  N_11 
REMARK    5  A    between atoms: N_11  and  C_12 
REMARK    6  A    between atoms: C_12  and  C_13 
REMARK    7  A    between atoms: C_13  and  N_14 
REMARK    8  A    between atoms: N_14  and  C_16 
REMARK    9  A    between atoms: N_14  and  C_18 
ROOT
HETATM    1  N   UNL     1       6.634  26.692  53.860  1.00  0.00    -0.254 N 
HETATM    2  C   UNL     1       5.226  26.939  54.192  1.00  0.00     0.256 C 
HETATM    3  C   UNL     1       4.583  27.858  53.189  1.00  0.00     0.034 A 
HETATM    4  C   UNL     1       5.398  28.851  52.642  1.00  0.00     0.048 A 
HETATM    5  N   UNL     1       6.743  28.879  53.016  1.00  0.00    -0.308 N 
HETATM    6  C   UNL     1       7.408  27.824  53.606  1.00  0.00     0.330 C 
HETATM    7  O   UNL     1       8.611  27.950  53.826  1.00  0.00    -0.246 OA
HETATM    8  C   UNL     1       3.226  27.822  52.847  1.00  0.00     0.015 A 
HETATM    9  C   UNL     1       2.704  28.772  51.970  1.00  0.00     0.001 A 
HETATM   10  C   UNL     1       3.527  29.766  51.441  1.00  0.00     0.002 A 
HETATM   11  C   UNL     1       4.879  29.814  51.782  1.00  0.00     0.030 A 
HETATM   12  H   UNL     1       7.350  29.606  52.654  1.00  0.00     0.170 HD
ENDROOT
BRANCH   2  13
HETATM   13  O   UNL     1       4.458  25.746  54.325  1.00  0.00    -0.359 OA
HETATM   14  H   UNL     1       3.690  25.862  53.736  1.00  0.00     0.213 HD
ENDBRANCH   2  13
BRANCH   2  15
HETATM   15  C   UNL     1       5.273  27.536  55.669  1.00  0.00     0.279 C 
HETATM   16  N   UNL     1       6.485  27.630  56.324  1.00  0.00    -0.355 N 
HETATM   17  H   UNL     1       7.317  27.564  55.742  1.00  0.00     0.162 HD
HETATM   18  O   UNL     1       4.231  27.772  56.296  1.00  0.00    -0.268 OA
BRANCH  16  19
HETATM   19  C   UNL     1       6.690  28.285  57.614  1.00  0.00     0.150 C 
BRANCH  19  20
HETATM   20  C   UNL     1       6.987  29.801  57.648  1.00  0.00     0.254 C 
BRANCH  20  21
HETATM   21  N   UNL     1       8.433  30.146  57.963  1.00  0.00    -0.070 N 
HETATM   22  H   UNL     1       8.576  31.033  57.447  1.00  0.00     0.279 HD
BRANCH  21  23
HETATM   23  C   UNL     1       8.743  30.454  59.410  1.00  0.00     0.230 C 
HETATM   24  C   UNL     1       9.163  31.900  59.607  1.00  0.00     0.034 C 
ENDBRANCH  21  23
BRANCH  21  25
HETATM   25  C   UNL     1       9.419  29.170  57.351  1.00  0.00     0.230 C 
HETATM   26  C   UNL     1      10.564  29.900  56.672  1.00  0.00     0.034 C 
ENDBRANCH  21  25
ENDBRANCH  20  21
ENDBRANCH  19  20
ENDBRANCH  16  19
ENDBRANCH   2  15
BRANCH   1  27
HETATM   27  C   UNL     1       7.211  25.384  53.860  1.00  0.00     0.043 A 
HETATM   28  C   UNL     1       7.265  24.598  52.704  1.00  0.00     0.030 A 
HETATM   29  C   UNL     1       7.806  23.305  52.735  1.00  0.00     0.009 A 
HETATM   30  C   UNL     1       8.285  22.759  53.931  1.00  0.00    -0.058 A 
HETATM   31  C   UNL     1       8.203  23.525  55.095  1.00  0.00     0.009 A 
HETATM   32  C   UNL     1       7.670  24.818  55.057  1.00  0.00     0.030 A 
BRANCH  30  33
HETATM   33  C   UNL     1       8.850  21.361  53.973  1.00  0.00     0.034 C 
HETATM   34  C   UNL     1       8.308  20.483  52.854  1.00  0.00     0.010 C 
ENDBRANCH  30  33
ENDBRANCH   1  27
TORSDOF 9
ENDMDL
MODEL 3
REMARK VINA RESULT:      -7.8      1.822      6.088
REMARK  9 active torsions:
REMARK  status: ('A' for Active; 'I' for Inactive)
REMARK    1  A    between atoms: C_2  and  C_3 
REMARK    2  A    between atoms: C_6  and  N_7 
REMARK    3  A    between atoms: C_8  and  O_9 
REMARK    4  A    between atoms: C_8  and  C_10 
REMARK       I    between atoms: C_10  and  N_11 
REMARK    5  A    between atoms: N_11  and  C_12 
REMARK    6  A    between atoms: C_12  and  C_13 
REMARK    7  A    between atoms: C_13  and  N_14 
REMARK    8  A    between atoms: N_14  and  C_16 
REMARK    9  A    between atoms: N_14  and  C_18 
ROOT
HETATM    1  N   UNL     1       6.152  26.781  53.380  1.00  0.00    -0.254 N 
HETATM    2  C   UNL     1       4.740  27.167  53.292  1.00  0.00     0.256 C 
HETATM    3  C   UNL     1       4.488  28.048  52.098  1.00  0.00     0.034 A 
HETATM    4  C   UNL     1       5.517  28.922  51.742  1.00  0.00     0.048 A 
HETATM    5  N   UNL     1       6.706  28.873  52.473  1.00  0.00    -0.308 N 
HETATM    6  C   UNL     1       7.076  27.822  53.286  1.00  0.00     0.330 C 
HETATM    7  O   UNL     1       8.180  27.868  53.823  1.00  0.00    -0.246 OA
HETATM    8  C   UNL     1       3.279  28.093  51.394  1.00  0.00     0.015 A 
HETATM    9  C   UNL     1       3.114  29.004  50.352  1.00  0.00     0.001 A 
HETATM   10  C   UNL     1       4.145  29.881  50.016  1.00  0.00     0.002 A 
HETATM   11  C   UNL     1       5.352  29.848  50.716  1.00  0.00     0.030 A 
HETATM   12  H   UNL     1       7.458  29.515  52.252  1.00  0.00     0.170 HD
ENDROOT
BRANCH   2  13
HETATM   13  O   UNL     1       3.848  26.056  53.276  1.00  0.00    -0.359 OA
HETATM   14  H   UNL     1       3.175  26.250  53.955  1.00  0.00     0.213 HD
ENDBRANCH   2  13
BRANCH   2  15
HETATM   15  C   UNL     1       4.443  27.881  54.686  1.00  0.00     0.279 C 
HETATM   16  N   UNL     1       4.959  27.340  55.847  1.00  0.00    -0.355 N 
HETATM   17  H   UNL     1       5.716  26.671  55.734  1.00  0.00     0.162 HD
HETATM   18  O   UNL     1       3.637  28.817  54.765  1.00  0.00    -0.268 OA
BRANCH  16  19
HETATM   19  C   UNL     1       4.885  27.965  57.166  1.00  0.00     0.150 C 
BRANCH  19  20
HETATM   20  C   UNL     1       5.744  29.219  57.451  1.00  0.00     0.254 C 
BRANCH  20  21
HETATM   21  N   UNL     1       7.068  28.924  58.133  1.00  0.00    -0.070 N 
HETATM   22  H   UNL     1       6.784  28.365  58.958  1.00  0.00     0.279 HD
BRANCH  21  23
HETATM   23  C   UNL     1       8.036  28.057  57.361  1.00  0.00     0.230 C 
HETATM   24  C   UNL     1       9.340  28.779  57.068  1.00  0.00     0.034 C 
ENDBRANCH  21  23
BRANCH  21  25
HETATM   25  C   UNL     1       7.726  30.165  58.705  1.00  0.00     0.230 C 
HETATM   26  C   UNL     1       6.841  31.386  58.530  1.00  0.00     0.034 C 
ENDBRANCH  21  25
ENDBRANCH  20  21
ENDBRANCH  19  20
ENDBRANCH  16  19
ENDBRANCH   2  15
BRANCH   1  27
HETATM   27  C   UNL     1       6.572  25.436  53.617  1.00  0.00     0.043 A 
HETATM   28  C   UNL     1       6.676  24.907  54.908  1.00  0.00     0.030 A 
HETATM   29  C   UNL     1       7.122  23.594  55.117  1.00  0.00     0.009 A 
HETATM   30  C   UNL     1       7.497  22.786  54.039  1.00  0.00    -0.058 A 
HETATM   31  C   UNL     1       7.429  23.319  52.750  1.00  0.00     0.009 A 
HETATM   32  C   UNL     1       6.976  24.626  52.545  1.00  0.00     0.030 A 
BRANCH  30  33
HETATM   33  C   UNL     1       7.996  21.380  54.259  1.00  0.00     0.034 C 
HETATM   34  C   UNL     1       8.203  20.627  52.952  1.00  0.00     0.010 C 
ENDBRANCH  30  33
ENDBRANCH   1  27
TORSDOF 9
ENDMDL
MODEL 4
REMARK VINA RESULT:      -7.7      2.042      6.019
REMARK  9 active torsions:
REMARK  status: ('A' for Active; 'I' for Inactive)
REMARK    1  A    between atoms: C_2  and  C_3 
REMARK    2  A    between atoms: C_6  and  N_7 
REMARK    3  A    between atoms: C_8  and  O_9 
REMARK    4  A    between atoms: C_8  and  C_10 
REMARK       I    between atoms: C_10  and  N_11 
REMARK    5  A    between atoms: N_11  and  C_12 
REMARK    6  A    between atoms: C_12  and  C_13 
REMARK    7  A    between atoms: C_13  and  N_14 
REMARK    8  A    between atoms: N_14  and  C_16 
REMARK    9  A    between atoms: N_14  and  C_18 
ROOT
HETATM    1  N   UNL     1       6.119  28.198  54.020  1.00  0.00    -0.254 N 
HETATM    2  C   UNL     1       5.141  27.994  55.095  1.00  0.00     0.256 C 
HETATM    3  C   UNL     1       5.129  29.158  56.049  1.00  0.00     0.034 A 
HETATM    4  C   UNL     1       6.353  29.792  56.274  1.00  0.00     0.048 A 
HETATM    5  N   UNL     1       7.467  29.342  55.562  1.00  0.00    -0.308 N 
HETATM    6  C   UNL     1       7.402  28.565  54.425  1.00  0.00     0.330 C 
HETATM    7  O   UNL     1       8.454  28.292  53.851  1.00  0.00    -0.246 OA
HETATM    8  C   UNL     1       4.001  29.576  56.765  1.00  0.00     0.015 A 
HETATM    9  C   UNL     1       4.110  30.613  57.691  1.00  0.00     0.001 A 
HETATM   10  C   UNL     1       5.341  31.228  57.916  1.00  0.00     0.002 A 
HETATM   11  C   UNL     1       6.472  30.814  57.211  1.00  0.00     0.030 A 
HETATM   12  H   UNL     1       8.373  29.768  55.727  1.00  0.00     0.170 HD
ENDROOT
BRANCH   2  13
HETATM   13  O   UNL     1       3.822  27.738  54.619  1.00  0.00    -0.359 OA
HETATM   14  H   UNL     1       3.258  28.417  55.034  1.00  0.00     0.213 HD
ENDBRANCH   2  13
BRANCH   2  15
HETATM   15  C   UNL     1       5.584  26.619  55.769  1.00  0.00     0.279 C 
HETATM   16  N   UNL     1       5.901  25.542  54.965  1.00  0.00    -0.355 N 
HETATM   17  H   UNL     1       6.095  25.752  53.989  1.00  0.00     0.162 HD
HETATM   18  O   UNL     1       5.501  26.453  56.993  1.00  0.00    -0.268 OA
BRANCH  16  19
HETATM   19  C   UNL     1       6.456  24.277  55.442  1.00  0.00     0.150 C 
BRANCH  19  20
HETATM   20  C   UNL     1       7.846  23.828  54.935  1.00  0.00     0.254 C 
BRANCH  20  21
HETATM   21  N   UNL     1       7.944  22.345  54.621  1.00  0.00    -0.070 N 
HETATM   22  H   UNL     1       7.048  21.972  54.985  1.00  0.00     0.279 HD
BRANCH  21  23
HETATM   23  C   UNL     1       7.980  21.978  53.155  1.00  0.00     0.230 C 
HETATM   24  C   UNL     1       8.155  20.483  52.947  1.00  0.00     0.034 C 
ENDBRANCH  21  23
BRANCH  21  25
HETATM   25  C   UNL     1       9.020  21.642  55.425  1.00  0.00     0.230 C 
HETATM   26  C   UNL     1       8.439  20.987  56.664  1.00  0.00     0.034 C 
ENDBRANCH  21  25
ENDBRANCH  20  21
ENDBRANCH  19  20
ENDBRANCH  16  19
ENDBRANCH   2  15
BRANCH   1  27
HETATM   27  C   UNL     1       5.812  27.973  52.643  1.00  0.00     0.043 A 
HETATM   28  C   UNL     1       5.493  29.021  51.772  1.00  0.00     0.030 A 
HETATM   29  C   UNL     1       5.164  28.772  50.432  1.00  0.00     0.009 A 
HETATM   30  C   UNL     1       5.122  27.464  49.937  1.00  0.00    -0.058 A 
HETATM   31  C   UNL     1       5.406  26.411  50.809  1.00  0.00     0.009 A 
HETATM   32  C   UNL     1       5.742  26.665  52.143  1.00  0.00     0.030 A 
BRANCH  30  33
HETATM   33  C   UNL     1       4.749  27.190  48.502  1.00  0.00     0.034 C 
HETATM   34  C   UNL     1       3.801  26.007  48.366  1.00  0.00     0.010 C 
ENDBRANCH  30  33
ENDBRANCH   1  27
TORSDOF 9
ENDMDL
MODEL 5
REMARK VINA RESULT:      -7.7      2.884      6.548
REMARK  9 active torsions:
REMARK  status: ('A' for Active; 'I' for Inactive)
REMARK    1  A    between atoms: C_2  and  C_3 
REMARK    2  A    between atoms: C_6  and  N_7 
REMARK    3  A    between atoms: C_8  and  O_9 
REMARK    4  A    between atoms: C_8  and  C_10 
REMARK       I    between atoms: C_10  and  N_11 
REMARK    5  A    between atoms: N_11  and  C_12 
REMARK    6  A    between atoms: C_12  and  C_13 
REMARK    7  A    between atoms: C_13  and  N_14 
REMARK    8  A    between atoms: N_14  and  C_16 
REMARK    9  A    between atoms: N_14  and  C_18 
ROOT
HETATM    1  N   UNL     1       6.957  26.867  55.363  1.00  0.00    -0.254 N 
HETATM    2  C   UNL     1       6.246  27.406  56.527  1.00  0.00     0.256 C 
HETATM    3  C   UNL     1       5.220  28.427  56.115  1.00  0.00     0.034 A 
HETATM    4  C   UNL     1       5.541  29.221  55.012  1.00  0.00     0.048 A 
HETATM    5  N   UNL     1       6.745  28.972  54.349  1.00  0.00    -0.308 N 
HETATM    6  C   UNL     1       7.476  27.809  54.474  1.00  0.00     0.330 C 
HETATM    7  O   UNL     1       8.485  27.683  53.784  1.00  0.00    -0.246 OA
HETATM    8  C   UNL     1       4.030  28.671  56.809  1.00  0.00     0.015 A 
HETATM    9  C   UNL     1       3.182  29.698  56.398  1.00  0.00     0.001 A 
HETATM   10  C   UNL     1       3.521  30.493  55.302  1.00  0.00     0.002 A 
HETATM   11  C   UNL     1       4.709  30.261  54.608  1.00  0.00     0.030 A 
HETATM   12  H   UNL     1       7.013  29.551  53.561  1.00  0.00     0.170 HD
ENDROOT
BRANCH   2  13
HETATM   13  O   UNL     1       5.638  26.401  57.335  1.00  0.00    -0.359 OA
HETATM   14  H   UNL     1       6.022  26.514  58.225  1.00  0.00     0.213 HD
ENDBRANCH   2  13
BRANCH   2  15
HETATM   15  C   UNL     1       7.402  27.998  57.451  1.00  0.00     0.279 C 
HETATM   16  N   UNL     1       7.277  29.276  57.958  1.00  0.00    -0.355 N 
HETATM   17  H   UNL     1       6.343  29.677  57.940  1.00  0.00     0.162 HD
HETATM   18  O   UNL     1       8.475  27.396  57.595  1.00  0.00    -0.268 OA
BRANCH  16  19
HETATM   19  C   UNL     1       8.186  29.885  58.927  1.00  0.00     0.150 C 
BRANCH  19  20
HETATM   20  C   UNL     1       7.971  31.360  59.335  1.00  0.00     0.254 C 
BRANCH  20  21
HETATM   21  N   UNL     1       6.895  31.564  60.387  1.00  0.00    -0.070 N 
HETATM   22  H   UNL     1       6.477  30.620  60.476  1.00  0.00     0.279 HD
BRANCH  21  23
HETATM   23  C   UNL     1       7.380  31.932  61.771  1.00  0.00     0.230 C 
HETATM   24  C   UNL     1       8.410  30.947  62.295  1.00  0.00     0.034 C 
ENDBRANCH  21  23
BRANCH  21  25
HETATM   25  C   UNL     1       5.764  32.454  59.910  1.00  0.00     0.230 C 
HETATM   26  C   UNL     1       5.223  31.983  58.572  1.00  0.00     0.034 C 
ENDBRANCH  21  25
ENDBRANCH  20  21
ENDBRANCH  19  20
ENDBRANCH  16  19
ENDBRANCH   2  15
BRANCH   1  27
HETATM   27  C   UNL     1       7.175  25.467  55.170  1.00  0.00     0.043 A 
HETATM   28  C   UNL     1       7.984  24.717  56.030  1.00  0.00     0.030 A 
HETATM   29  C   UNL     1       8.209  23.352  55.801  1.00  0.00     0.009 A 
HETATM   30  C   UNL     1       7.648  22.711  54.692  1.00  0.00    -0.058 A 
HETATM   31  C   UNL     1       6.868  23.461  53.811  1.00  0.00     0.009 A 
HETATM   32  C   UNL     1       6.639  24.821  54.047  1.00  0.00     0.030 A 
BRANCH  30  33
HETATM   33  C   UNL     1       7.903  21.247  54.432  1.00  0.00     0.034 C 
HETATM   34  C   UNL     1       8.032  20.937  52.946  1.00  0.00     0.010 C 
ENDBRANCH  30  33
ENDBRANCH   1  27
TORSDOF 9
ENDMDL
MODEL 6
REMARK VINA RESULT:      -7.6      1.900      7.005
REMARK  9 active torsions:
REMARK  status: ('A' for Active; 'I' for Inactive)
REMARK    1  A    between atoms: C_2  and  C_3 
REMARK    2  A    between atoms: C_6  and  N_7 
REMARK    3  A    between atoms: C_8  and  O_9 
REMARK    4  A    between atoms: C_8  and  C_10 
REMARK       I    between atoms: C_10  and  N_11 
REMARK    5  A    between atoms: N_11  and  C_12 
REMARK    6  A    between atoms: C_12  and  C_13 
REMARK    7  A    between atoms: C_13  and  N_14 
REMARK    8  A    between atoms: N_14  and  C_16 
REMARK    9  A    between atoms: N_14  and  C_18 
ROOT
HETATM    1  N   UNL     1       6.197  28.242  55.341  1.00  0.00    -0.254 N 
HETATM    2  C   UNL     1       6.592  28.040  53.942  1.00  0.00     0.256 C 
HETATM    3  C   UNL     1       5.499  28.466  53.000  1.00  0.00     0.034 A 
HETATM    4  C   UNL     1       4.188  28.262  53.435  1.00  0.00     0.048 A 
HETATM    5  N   UNL     1       3.993  27.740  54.715  1.00  0.00    -0.308 N 
HETATM    6  C   UNL     1       4.954  27.726  55.704  1.00  0.00     0.330 C 
HETATM    7  O   UNL     1       4.636  27.300  56.813  1.00  0.00    -0.246 OA
HETATM    8  C   UNL     1       5.722  28.968  51.712  1.00  0.00     0.015 A 
HETATM    9  C   UNL     1       4.640  29.255  50.881  1.00  0.00     0.001 A 
HETATM   10  C   UNL     1       3.336  29.034  51.323  1.00  0.00     0.002 A 
HETATM   11  C   UNL     1       3.104  28.528  52.602  1.00  0.00     0.030 A 
HETATM   12  H   UNL     1       3.051  27.558  55.044  1.00  0.00     0.170 HD
ENDROOT
BRANCH   2  13
HETATM   13  O   UNL     1       7.814  28.689  53.599  1.00  0.00    -0.359 OA
HETATM   14  H   UNL     1       8.521  28.063  53.847  1.00  0.00     0.213 HD
ENDBRANCH   2  13
BRANCH   2  15
HETATM   15  C   UNL     1       6.941  26.487  53.857  1.00  0.00     0.279 C 
HETATM   16  N   UNL     1       6.840  25.706  54.992  1.00  0.00    -0.355 N 
HETATM   17  H   UNL     1       6.298  26.096  55.758  1.00  0.00     0.162 HD
HETATM   18  O   UNL     1       7.446  26.002  52.836  1.00  0.00    -0.268 OA
BRANCH  16  19
HETATM   19  C   UNL     1       6.990  24.253  55.023  1.00  0.00     0.150 C 
BRANCH  19  20
HETATM   20  C   UNL     1       8.411  23.645  55.060  1.00  0.00     0.254 C 
BRANCH  20  21
HETATM   21  N   UNL     1       8.473  22.184  54.651  1.00  0.00    -0.070 N 
HETATM   22  H   UNL     1       9.488  21.977  54.688  1.00  0.00     0.279 HD
BRANCH  21  23
HETATM   23  C   UNL     1       7.817  21.201  55.593  1.00  0.00     0.230 C 
HETATM   24  C   UNL     1       8.821  20.553  56.530  1.00  0.00     0.034 C 
ENDBRANCH  21  23
BRANCH  21  25
HETATM   25  C   UNL     1       8.077  21.958  53.205  1.00  0.00     0.230 C 
HETATM   26  C   UNL     1       8.262  20.505  52.805  1.00  0.00     0.034 C 
ENDBRANCH  21  25
ENDBRANCH  20  21
ENDBRANCH  19  20
ENDBRANCH  16  19
ENDBRANCH   2  15
BRANCH   1  27
HETATM   27  C   UNL     1       7.050  28.867  56.302  1.00  0.00     0.043 A 
HETATM   28  C   UNL     1       8.306  28.344  56.631  1.00  0.00     0.030 A 
HETATM   29  C   UNL     1       9.112  28.957  57.602  1.00  0.00     0.009 A 
HETATM   30  C   UNL     1       8.669  30.094  58.284  1.00  0.00    -0.058 A 
HETATM   31  C   UNL     1       7.403  30.602  57.985  1.00  0.00     0.009 A 
HETATM   32  C   UNL     1       6.606  29.992  57.011  1.00  0.00     0.030 A 
BRANCH  30  33
HETATM   33  C   UNL     1       9.524  30.745  59.342  1.00  0.00     0.034 C 
HETATM   34  C   UNL     1       8.911  30.632  60.732  1.00  0.00     0.010 C 
ENDBRANCH  30  33
ENDBRANCH   1  27
TORSDOF 9
ENDMDL
MODEL 7
REMARK VINA RESULT:      -7.6      2.724      7.971
REMARK  9 active torsions:
REMARK  status: ('A' for Active; 'I' for Inactive)
REMARK    1  A    between atoms: C_2  and  C_3 
REMARK    2  A    between atoms: C_6  and  N_7 
REMARK    3  A    between atoms: C_8  and  O_9 
REMARK    4  A    between atoms: C_8  and  C_10 
REMARK       I    between atoms: C_10  and  N_11 
REMARK    5  A    between atoms: N_11  and  C_12 
REMARK    6  A    between atoms: C_12  and  C_13 
REMARK    7  A    between atoms: C_13  and  N_14 
REMARK    8  A    between atoms: N_14  and  C_16 
REMARK    9  A    between atoms: N_14  and  C_18 
ROOT
HETATM    1  N   UNL     1       5.790  27.957  55.182  1.00  0.00    -0.254 N 
HETATM    2  C   UNL     1       7.115  27.680  54.616  1.00  0.00     0.256 C 
HETATM    3  C   UNL     1       7.158  26.323  53.968  1.00  0.00     0.034 A 
HETATM    4  C   UNL     1       6.384  25.324  54.563  1.00  0.00     0.048 A 
HETATM    5  N   UNL     1       5.596  25.669  55.662  1.00  0.00    -0.308 N 
HETATM    6  C   UNL     1       5.255  26.963  56.000  1.00  0.00     0.330 C 
HETATM    7  O   UNL     1       4.498  27.131  56.953  1.00  0.00    -0.246 OA
HETATM    8  C   UNL     1       7.973  25.997  52.878  1.00  0.00     0.015 A 
HETATM    9  C   UNL     1       8.006  24.687  52.400  1.00  0.00     0.001 A 
HETATM   10  C   UNL     1       7.239  23.697  53.013  1.00  0.00     0.002 A 
HETATM   11  C   UNL     1       6.428  24.011  54.104  1.00  0.00     0.030 A 
HETATM   12  H   UNL     1       5.045  24.957  56.129  1.00  0.00     0.170 HD
ENDROOT
BRANCH   2  13
HETATM   13  O   UNL     1       7.558  28.675  53.697  1.00  0.00    -0.359 OA
HETATM   14  H   UNL     1       7.696  29.481  54.230  1.00  0.00     0.213 HD
ENDBRANCH   2  13
BRANCH   2  15
HETATM   15  C   UNL     1       8.106  27.828  55.855  1.00  0.00     0.279 C 
HETATM   16  N   UNL     1       8.942  28.926  55.927  1.00  0.00    -0.355 N 
HETATM   17  H   UNL     1       8.701  29.714  55.331  1.00  0.00     0.162 HD
HETATM   18  O   UNL     1       8.251  26.908  56.671  1.00  0.00    -0.268 OA
BRANCH  16  19
HETATM   19  C   UNL     1       9.791  29.258  57.069  1.00  0.00     0.150 C 
BRANCH  19  20
HETATM   20  C   UNL     1       9.750  30.692  57.643  1.00  0.00     0.254 C 
BRANCH  20  21
HETATM   21  N   UNL     1       9.125  30.792  59.024  1.00  0.00    -0.070 N 
HETATM   22  H   UNL     1       9.581  30.017  59.540  1.00  0.00     0.279 HD
BRANCH  21  23
HETATM   23  C   UNL     1       9.435  32.048  59.805  1.00  0.00     0.230 C 
HETATM   24  C   UNL     1       9.630  31.766  61.285  1.00  0.00     0.034 C 
ENDBRANCH  21  23
BRANCH  21  25
HETATM   25  C   UNL     1       7.647  30.453  59.029  1.00  0.00     0.230 C 
HETATM   26  C   UNL     1       6.796  31.706  58.927  1.00  0.00     0.034 C 
ENDBRANCH  21  25
ENDBRANCH  20  21
ENDBRANCH  19  20
ENDBRANCH  16  19
ENDBRANCH   2  15
BRANCH   1  27
HETATM   27  C   UNL     1       5.104  29.194  54.973  1.00  0.00     0.043 A 
HETATM   28  C   UNL     1       5.297  30.300  55.809  1.00  0.00     0.030 A 
HETATM   29  C   UNL     1       4.588  31.492  55.604  1.00  0.00     0.009 A 
HETATM   30  C   UNL     1       3.651  31.598  54.571  1.00  0.00    -0.058 A 
HETATM   31  C   UNL     1       3.429  30.488  53.754  1.00  0.00     0.009 A 
HETATM   32  C   UNL     1       4.144  29.303  53.957  1.00  0.00     0.030 A 
BRANCH  30  33
HETATM   33  C   UNL     1       2.872  32.872  54.359  1.00  0.00     0.034 C 
HETATM   34  C   UNL     1       1.500  32.829  55.018  1.00  0.00     0.010 C 
ENDBRANCH  30  33
ENDBRANCH   1  27
TORSDOF 9
ENDMDL
MODEL 8
REMARK VINA RESULT:      -7.5      7.184     11.678
REMARK  9 active torsions:
REMARK  status: ('A' for Active; 'I' for Inactive)
REMARK    1  A    between atoms: C_2  and  C_3 
REMARK    2  A    between atoms: C_6  and  N_7 
REMARK    3  A    between atoms: C_8  and  O_9 
REMARK    4  A    between atoms: C_8  and  C_10 
REMARK       I    between atoms: C_10  and  N_11 
REMARK    5  A    between atoms: N_11  and  C_12 
REMARK    6  A    between atoms: C_12  and  C_13 
REMARK    7  A    between atoms: C_13  and  N_14 
REMARK    8  A    between atoms: N_14  and  C_16 
REMARK    9  A    between atoms: N_14  and  C_18 
ROOT
HETATM    1  N   UNL     1       5.358  32.972  63.093  1.00  0.00    -0.254 N 
HETATM    2  C   UNL     1       5.863  33.759  61.962  1.00  0.00     0.256 C 
HETATM    3  C   UNL     1       4.844  33.844  60.858  1.00  0.00     0.034 A 
HETATM    4  C   UNL     1       4.030  32.724  60.675  1.00  0.00     0.048 A 
HETATM    5  N   UNL     1       4.182  31.649  61.553  1.00  0.00    -0.308 N 
HETATM    6  C   UNL     1       4.816  31.727  62.776  1.00  0.00     0.330 C 
HETATM    7  O   UNL     1       4.823  30.725  63.488  1.00  0.00    -0.246 OA
HETATM    8  C   UNL     1       4.726  34.926  59.978  1.00  0.00     0.015 A 
HETATM    9  C   UNL     1       3.806  34.875  58.932  1.00  0.00     0.001 A 
HETATM   10  C   UNL     1       3.009  33.744  58.752  1.00  0.00     0.002 A 
HETATM   11  C   UNL     1       3.123  32.659  59.621  1.00  0.00     0.030 A 
HETATM   12  H   UNL     1       3.622  30.814  61.425  1.00  0.00     0.170 HD
ENDROOT
BRANCH   2  13
HETATM   13  O   UNL     1       6.296  35.066  62.330  1.00  0.00    -0.359 OA
HETATM   14  H   UNL     1       5.530  35.649  62.171  1.00  0.00     0.213 HD
ENDBRANCH   2  13
BRANCH   2  15
HETATM   15  C   UNL     1       7.206  33.012  61.536  1.00  0.00     0.279 C 
HETATM   16  N   UNL     1       7.333  32.529  60.249  1.00  0.00    -0.355 N 
HETATM   17  H   UNL     1       6.682  32.902  59.563  1.00  0.00     0.162 HD
HETATM   18  O   UNL     1       8.069  32.723  62.376  1.00  0.00    -0.268 OA
BRANCH  16  19
HETATM   19  C   UNL     1       8.555  31.956  59.688  1.00  0.00     0.150 C 
BRANCH  19  20
HETATM   20  C   UNL     1       8.797  30.434  59.811  1.00  0.00     0.254 C 
BRANCH  20  21
HETATM   21  N   UNL     1       8.820  29.698  58.483  1.00  0.00    -0.070 N 
HETATM   22  H   UNL     1       9.355  28.839  58.704  1.00  0.00     0.279 HD
BRANCH  21  23
HETATM   23  C   UNL     1       7.481  29.228  57.960  1.00  0.00     0.230 C 
HETATM   24  C   UNL     1       7.200  29.751  56.562  1.00  0.00     0.034 C 
ENDBRANCH  21  23
BRANCH  21  25
HETATM   25  C   UNL     1       9.639  30.413  57.426  1.00  0.00     0.230 C 
HETATM   26  C   UNL     1      10.898  29.634  57.088  1.00  0.00     0.034 C 
ENDBRANCH  21  25
ENDBRANCH  20  21
ENDBRANCH  19  20
ENDBRANCH  16  19
ENDBRANCH   2  15
BRANCH   1  27
HETATM   27  C   UNL     1       5.469  33.409  64.449  1.00  0.00     0.043 A 
HETATM   28  C   UNL     1       4.363  33.865  65.174  1.00  0.00     0.030 A 
HETATM   29  C   UNL     1       4.503  34.319  66.494  1.00  0.00     0.009 A 
HETATM   30  C   UNL     1       5.757  34.350  67.111  1.00  0.00    -0.058 A 
HETATM   31  C   UNL     1       6.870  33.927  66.381  1.00  0.00     0.009 A 
HETATM   32  C   UNL     1       6.726  33.468  65.068  1.00  0.00     0.030 A 
BRANCH  30  33
HETATM   33  C   UNL     1       5.915  34.855  68.523  1.00  0.00     0.034 C 
HETATM   34  C   UNL     1       7.368  34.860  68.978  1.00  0.00     0.010 C 
ENDBRANCH  30  33
ENDBRANCH   1  27
TORSDOF 9
ENDMDL
MODEL 9
REMARK VINA RESULT:      -7.3      3.207      5.172
REMARK  9 active torsions:
REMARK  status: ('A' for Active; 'I' for Inactive)
REMARK    1  A    between atoms: C_2  and  C_3 
REMARK    2  A    between atoms: C_6  and  N_7 
REMARK    3  A    between atoms: C_8  and  O_9 
REMARK    4  A    between atoms: C_8  and  C_10 
REMARK       I    between atoms: C_10  and  N_11 
REMARK    5  A    between atoms: N_11  and  C_12 
REMARK    6  A    between atoms: C_12  and  C_13 
REMARK    7  A    between atoms: C_13  and  N_14 
REMARK    8  A    between atoms: N_14  and  C_16 
REMARK    9  A    between atoms: N_14  and  C_18 
ROOT
HETATM    1  N   UNL     1       4.935  28.058  51.900  1.00  0.00    -0.254 N 
HETATM    2  C   UNL     1       5.027  28.559  50.525  1.00  0.00     0.256 C 
HETATM    3  C   UNL     1       5.223  30.051  50.499  1.00  0.00     0.034 A 
HETATM    4  C   UNL     1       4.592  30.779  51.511  1.00  0.00     0.048 A 
HETATM    5  N   UNL     1       3.887  30.073  52.487  1.00  0.00    -0.308 N 
HETATM    6  C   UNL     1       4.037  28.724  52.734  1.00  0.00     0.330 C 
HETATM    7  O   UNL     1       3.407  28.234  53.668  1.00  0.00    -0.246 OA
HETATM    8  C   UNL     1       5.919  30.736  49.497  1.00  0.00     0.015 A 
HETATM    9  C   UNL     1       5.974  32.129  49.515  1.00  0.00     0.001 A 
HETATM   10  C   UNL     1       5.328  32.844  50.523  1.00  0.00     0.002 A 
HETATM   11  C   UNL     1       4.626  32.170  51.524  1.00  0.00     0.030 A 
HETATM   12  H   UNL     1       3.398  30.580  53.217  1.00  0.00     0.170 HD
ENDROOT
BRANCH   2  13
HETATM   13  O   UNL     1       6.042  27.919  49.756  1.00  0.00    -0.359 OA
HETATM   14  H   UNL     1       5.571  27.435  49.052  1.00  0.00     0.213 HD
ENDBRANCH   2  13
BRANCH   2  15
HETATM   15  C   UNL     1       3.667  28.081  49.844  1.00  0.00     0.279 C 
HETATM   16  N   UNL     1       3.712  27.166  48.810  1.00  0.00    -0.355 N 
HETATM   17  H   UNL     1       4.578  26.644  48.710  1.00  0.00     0.162 HD
HETATM   18  O   UNL     1       2.590  28.626  50.119  1.00  0.00    -0.268 OA
BRANCH  16  19
HETATM   19  C   UNL     1       2.543  26.539  48.198  1.00  0.00     0.150 C 
BRANCH  19  20
HETATM   20  C   UNL     1       1.934  27.168  46.924  1.00  0.00     0.254 C 
BRANCH  20  21
HETATM   21  N   UNL     1       1.505  28.616  47.089  1.00  0.00    -0.070 N 
HETATM   22  H   UNL     1       1.445  28.723  48.118  1.00  0.00     0.279 HD
BRANCH  21  23
HETATM   23  C   UNL     1       2.495  29.660  46.623  1.00  0.00     0.230 C 
HETATM   24  C   UNL     1       2.560  30.846  47.570  1.00  0.00     0.034 C 
ENDBRANCH  21  23
BRANCH  21  25
HETATM   25  C   UNL     1       0.100  28.877  46.582  1.00  0.00     0.230 C 
HETATM   26  C   UNL     1      -0.420  27.699  45.779  1.00  0.00     0.034 C 
ENDBRANCH  21  25
ENDBRANCH  20  21
ENDBRANCH  19  20
ENDBRANCH  16  19
ENDBRANCH   2  15
BRANCH   1  27
HETATM   27  C   UNL     1       5.663  26.916  52.358  1.00  0.00     0.043 A 
HETATM   28  C   UNL     1       5.196  25.612  52.162  1.00  0.00     0.030 A 
HETATM   29  C   UNL     1       5.911  24.508  52.649  1.00  0.00     0.009 A 
HETATM   30  C   UNL     1       7.100  24.685  53.363  1.00  0.00    -0.058 A 
HETATM   31  C   UNL     1       7.555  25.986  53.591  1.00  0.00     0.009 A 
HETATM   32  C   UNL     1       6.842  27.083  53.097  1.00  0.00     0.030 A 
BRANCH  30  33
HETATM   33  C   UNL     1       7.863  23.502  53.905  1.00  0.00     0.034 C 
HETATM   34  C   UNL     1       7.791  22.294  52.981  1.00  0.00     0.010 C 
ENDBRANCH  30  33
ENDBRANCH   1  27
TORSDOF 9
ENDMDL
MODEL 10
REMARK VINA RESULT:      -7.1      8.493     12.932
REMARK  9 active torsions:
REMARK  status: ('A' for Active; 'I' for Inactive)
REMARK    1  A    between atoms: C_2  and  C_3 
REMARK    2  A    between atoms: C_6  and  N_7 
REMARK    3  A    between atoms: C_8  and  O_9 
REMARK    4  A    between atoms: C_8  and  C_10 
REMARK       I    between atoms: C_10  and  N_11 
REMARK    5  A    between atoms: N_11  and  C_12 
REMARK    6  A    between atoms: C_12  and  C_13 
REMARK    7  A    between atoms: C_13  and  N_14 
REMARK    8  A    between atoms: N_14  and  C_16 
REMARK    9  A    between atoms: N_14  and  C_18 
ROOT
HETATM    1  N   UNL     1       3.932  34.687  63.342  1.00  0.00    -0.254 N 
HETATM    2  C   UNL     1       4.764  34.997  62.174  1.00  0.00     0.256 C 
HETATM    3  C   UNL     1       4.035  35.887  61.205  1.00  0.00     0.034 A 
HETATM    4  C   UNL     1       2.655  35.695  61.100  1.00  0.00     0.048 A 
HETATM    5  N   UNL     1       2.058  34.746  61.932  1.00  0.00    -0.308 N 
HETATM    6  C   UNL     1       2.643  34.229  63.069  1.00  0.00     0.330 C 
HETATM    7  O   UNL     1       1.986  33.450  63.755  1.00  0.00    -0.246 OA
HETATM    8  C   UNL     1       4.660  36.817  60.367  1.00  0.00     0.015 A 
HETATM    9  C   UNL     1       3.907  37.537  59.441  1.00  0.00     0.001 A 
HETATM   10  C   UNL     1       2.532  37.325  59.337  1.00  0.00     0.002 A 
HETATM   11  C   UNL     1       1.901  36.395  60.164  1.00  0.00     0.030 A 
HETATM   12  H   UNL     1       1.062  34.568  61.857  1.00  0.00     0.170 HD
ENDROOT
BRANCH   2  13
HETATM   13  O   UNL     1       6.024  35.570  62.512  1.00  0.00    -0.359 OA
HETATM   14  H   UNL     1       6.484  34.896  63.047  1.00  0.00     0.213 HD
ENDBRANCH   2  13
BRANCH   2  15
HETATM   15  C   UNL     1       5.138  33.568  61.573  1.00  0.00     0.279 C 
HETATM   16  N   UNL     1       5.118  33.383  60.205  1.00  0.00    -0.355 N 
HETATM   17  H   UNL     1       5.126  34.226  59.637  1.00  0.00     0.162 HD
HETATM   18  O   UNL     1       5.296  32.587  62.311  1.00  0.00    -0.268 OA
BRANCH  16  19
HETATM   19  C   UNL     1       5.574  32.176  59.518  1.00  0.00     0.150 C 
BRANCH  19  20
HETATM   20  C   UNL     1       7.090  31.958  59.311  1.00  0.00     0.254 C 
BRANCH  20  21
HETATM   21  N   UNL     1       7.612  30.647  59.874  1.00  0.00    -0.070 N 
HETATM   22  H   UNL     1       6.744  30.147  60.139  1.00  0.00     0.279 HD
BRANCH  21  23
HETATM   23  C   UNL     1       8.328  29.742  58.897  1.00  0.00     0.230 C 
HETATM   24  C   UNL     1       9.476  30.451  58.200  1.00  0.00     0.034 C 
ENDBRANCH  21  23
BRANCH  21  25
HETATM   25  C   UNL     1       8.377  30.825  61.171  1.00  0.00     0.230 C 
HETATM   26  C   UNL     1       8.784  32.274  61.374  1.00  0.00     0.034 C 
ENDBRANCH  21  25
ENDBRANCH  20  21
ENDBRANCH  19  20
ENDBRANCH  16  19
ENDBRANCH   2  15
BRANCH   1  27
HETATM   27  C   UNL     1       4.418  34.779  64.683  1.00  0.00     0.043 A 
HETATM   28  C   UNL     1       5.183  33.763  65.266  1.00  0.00     0.030 A 
HETATM   29  C   UNL     1       5.621  33.860  66.595  1.00  0.00     0.009 A 
HETATM   30  C   UNL     1       5.283  34.967  67.379  1.00  0.00    -0.058 A 
HETATM   31  C   UNL     1       4.492  35.969  66.815  1.00  0.00     0.009 A 
HETATM   32  C   UNL     1       4.064  35.872  65.487  1.00  0.00     0.030 A 
BRANCH  30  33
HETATM   33  C   UNL     1       5.735  35.068  68.815  1.00  0.00     0.034 C 
HETATM   34  C   UNL     1       7.247  34.951  68.955  1.00  0.00     0.010 C 
ENDBRANCH  30  33
ENDBRANCH   1  27
TORSDOF 9
ENDMDL
