MODEL 1
REMARK VINA RESULT:     -10.4      0.000      0.000
REMARK  4 active torsions:
REMARK  status: ('A' for Active; 'I' for Inactive)
REMARK    1  A    between atoms: C_6  and  C_7 
REMARK    2  A    between atoms: C_15  and  C_16 
REMARK       I    between atoms: C_16  and  N_17 
REMARK    3  A    between atoms: N_17  and  N_18 
REMARK       I    between atoms: N_18  and  C_19 
REMARK       I    between atoms: C_19  and  N_20 
REMARK    4  A    between atoms: N_20  and  C_21 
ROOT
HETATM    1  C   UNL     1       5.432  28.274  51.850  1.00  0.00     0.001 A 
HETATM    2  C   UNL     1       5.894  28.069  53.148  1.00  0.00     0.015 A 
HETATM    3  C   UNL     1       6.374  26.801  53.569  1.00  0.00     0.009 A 
HETATM    4  C   UNL     1       6.390  25.744  52.640  1.00  0.00     0.068 A 
HETATM    5  N   UNL     1       6.848  24.517  52.936  1.00  0.00    -0.248 NA
HETATM    6  C   UNL     1       7.318  24.251  54.178  1.00  0.00     0.070 A 
HETATM    7  C   UNL     1       7.307  25.211  55.175  1.00  0.00     0.050 A 
HETATM    8  C   UNL     1       6.865  26.499  54.859  1.00  0.00     0.048 A 
HETATM    9  C   UNL     1       5.926  25.973  51.352  1.00  0.00     0.032 A 
HETATM   10  C   UNL     1       5.447  27.221  50.948  1.00  0.00     0.002 A 
ENDROOT
BRANCH   8  11
HETATM   11  C   UNL     1       6.956  27.539  55.916  1.00  0.00     0.271 C 
HETATM   12  N   UNL     1       8.085  28.329  55.847  1.00  0.00    -0.262 N 
HETATM   13  H   UNL     1       8.863  28.151  55.216  1.00  0.00     0.190 HD
HETATM   14  O   UNL     1       6.073  27.676  56.756  1.00  0.00    -0.266 OA
BRANCH  12  15
HETATM   15  N   UNL     1       8.311  29.276  56.849  1.00  0.00    -0.249 N 
HETATM   16  C   UNL     1       9.607  29.608  57.147  1.00  0.00     0.341 C 
HETATM   17  N   UNL     1       9.822  30.444  58.199  1.00  0.00    -0.286 N 
HETATM   18  O   UNL     1      10.562  29.217  56.472  1.00  0.00    -0.245 OA
HETATM   19  H   UNL     1      10.779  30.704  58.371  1.00  0.00     0.172 HD
HETATM   20  H   UNL     1       7.607  29.341  57.588  1.00  0.00     0.192 HD
BRANCH  17  21
HETATM   21  C   UNL     1       8.854  30.986  58.991  1.00  0.00     0.174 A 
HETATM   22  S   UNL     1       9.030  30.675  60.657  1.00  0.00    -0.062 SA
HETATM   23  C   UNL     1       7.617  31.604  60.954  1.00  0.00     0.072 A 
HETATM   24  C   UNL     1       7.111  32.069  59.758  1.00  0.00     0.126 A 
HETATM   25  N   UNL     1       7.822  31.708  58.629  1.00  0.00    -0.236 NA
ENDBRANCH  17  21
ENDBRANCH  12  15
ENDBRANCH   8  11
BRANCH   6  26
HETATM   26  C   UNL     1       7.805  22.875  54.384  1.00  0.00     0.014 A 
HETATM   27  C   UNL     1       8.247  22.370  55.624  1.00  0.00     0.046 A 
HETATM   28 CL   UNL     1       8.329  23.346  57.055  1.00  0.00    -0.083 Cl
HETATM   29  C   UNL     1       8.693  21.047  55.746  1.00  0.00     0.025 A 
HETATM   30  C   UNL     1       8.725  20.206  54.636  1.00  0.00     0.002 A 
HETATM   31  C   UNL     1       8.316  20.687  53.397  1.00  0.00     0.001 A 
HETATM   32  C   UNL     1       7.863  22.003  53.276  1.00  0.00     0.015 A 
ENDBRANCH   6  26
TORSDOF 4
ENDMDL
MODEL 2
REMARK VINA RESULT:     -10.3      3.772      8.333
REMARK  4 active torsions:
REMARK  status: ('A' for Active; 'I' for Inactive)
REMARK    1  A    between atoms: C_6  and  C_7 
REMARK    2  A    between atoms: C_15  and  C_16 
REMARK       I    between atoms: C_16  and  N_17 
REMARK    3  A    between atoms: N_17  and  N_18 
REMARK       I    between atoms: N_18  and  C_19 
REMARK       I    between atoms: C_19  and  N_20 
REMARK    4  A    between atoms: N_20  and  C_21 
ROOT
HETATM    1  C   UNL     1       7.530  23.503  55.825  1.00  0.00     0.001 A 
HETATM    2  C   UNL     1       6.967  24.673  55.317  1.00  0.00     0.015 A 
HETATM    3  C   UNL     1       7.267  25.940  55.882  1.00  0.00     0.009 A 
HETATM    4  C   UNL     1       8.162  26.002  56.966  1.00  0.00     0.068 A 
HETATM    5  N   UNL     1       8.526  27.155  57.550  1.00  0.00    -0.248 NA
HETATM    6  C   UNL     1       8.021  28.329  57.102  1.00  0.00     0.070 A 
HETATM    7  C   UNL     1       7.103  28.373  56.068  1.00  0.00     0.050 A 
HETATM    8  C   UNL     1       6.750  27.178  55.434  1.00  0.00     0.048 A 
HETATM    9  C   UNL     1       8.710  24.823  57.452  1.00  0.00     0.032 A 
HETATM   10  C   UNL     1       8.405  23.579  56.897  1.00  0.00     0.002 A 
ENDROOT
BRANCH   8  11
HETATM   11  C   UNL     1       5.840  27.259  54.263  1.00  0.00     0.271 C 
HETATM   12  N   UNL     1       6.432  26.949  53.055  1.00  0.00    -0.262 N 
HETATM   13  H   UNL     1       7.431  26.800  52.936  1.00  0.00     0.190 HD
HETATM   14  O   UNL     1       4.658  27.558  54.390  1.00  0.00    -0.266 OA
BRANCH  12  15
HETATM   15  N   UNL     1       5.687  27.085  51.881  1.00  0.00    -0.249 N 
HETATM   16  C   UNL     1       5.115  25.962  51.342  1.00  0.00     0.341 C 
HETATM   17  N   UNL     1       4.489  26.083  50.141  1.00  0.00    -0.286 N 
HETATM   18  O   UNL     1       5.111  24.876  51.928  1.00  0.00    -0.245 OA
HETATM   19  H   UNL     1       4.042  25.252  49.787  1.00  0.00     0.172 HD
HETATM   20  H   UNL     1       5.951  27.849  51.254  1.00  0.00     0.192 HD
BRANCH  17  21
HETATM   21  C   UNL     1       4.377  27.233  49.418  1.00  0.00     0.174 A 
HETATM   22  S   UNL     1       4.810  27.095  47.776  1.00  0.00    -0.062 SA
HETATM   23  C   UNL     1       4.416  28.752  47.559  1.00  0.00     0.072 A 
HETATM   24  C   UNL     1       3.997  29.287  48.759  1.00  0.00     0.126 A 
HETATM   25  N   UNL     1       3.979  28.412  49.829  1.00  0.00    -0.236 NA
ENDBRANCH  17  21
ENDBRANCH  12  15
ENDBRANCH   8  11
BRANCH   6  26
HETATM   26  C   UNL     1       8.500  29.529  57.811  1.00  0.00     0.014 A 
HETATM   27  C   UNL     1       9.782  30.090  57.640  1.00  0.00     0.046 A 
HETATM   28 CL   UNL     1      10.981  29.383  56.607  1.00  0.00    -0.083 Cl
HETATM   29  C   UNL     1      10.168  31.238  58.346  1.00  0.00     0.025 A 
HETATM   30  C   UNL     1       9.293  31.840  59.249  1.00  0.00     0.002 A 
HETATM   31  C   UNL     1       8.032  31.293  59.453  1.00  0.00     0.001 A 
HETATM   32  C   UNL     1       7.644  30.153  58.744  1.00  0.00     0.015 A 
ENDBRANCH   6  26
TORSDOF 4
ENDMDL
MODEL 3
REMARK VINA RESULT:     -10.2      4.348      8.454
REMARK  4 active torsions:
REMARK  status: ('A' for Active; 'I' for Inactive)
REMARK    1  A    between atoms: C_6  and  C_7 
REMARK    2  A    between atoms: C_15  and  C_16 
REMARK       I    between atoms: C_16  and  N_17 
REMARK    3  A    between atoms: N_17  and  N_18 
REMARK       I    between atoms: N_18  and  C_19 
REMARK       I    between atoms: C_19  and  N_20 
REMARK    4  A    between atoms: N_20  and  C_21 
ROOT
HETATM    1  C   UNL     1       8.062  22.056  53.255  1.00  0.00     0.001 A 
HETATM    2  C   UNL     1       7.256  23.132  52.887  1.00  0.00     0.015 A 
HETATM    3  C   UNL     1       7.166  24.296  53.695  1.00  0.00     0.009 A 
HETATM    4  C   UNL     1       7.921  24.355  54.881  1.00  0.00     0.068 A 
HETATM    5  N   UNL     1       7.922  25.421  55.697  1.00  0.00    -0.248 NA
HETATM    6  C   UNL     1       7.167  26.503  55.395  1.00  0.00     0.070 A 
HETATM    7  C   UNL     1       6.357  26.530  54.273  1.00  0.00     0.050 A 
HETATM    8  C   UNL     1       6.382  25.436  53.403  1.00  0.00     0.048 A 
HETATM    9  C   UNL     1       8.718  23.270  55.225  1.00  0.00     0.032 A 
HETATM   10  C   UNL     1       8.795  22.125  54.429  1.00  0.00     0.002 A 
ENDROOT
BRANCH   8  11
HETATM   11  C   UNL     1       5.583  25.527  52.155  1.00  0.00     0.271 C 
HETATM   12  N   UNL     1       6.017  26.487  51.264  1.00  0.00    -0.262 N 
HETATM   13  H   UNL     1       6.740  27.171  51.477  1.00  0.00     0.190 HD
HETATM   14  O   UNL     1       4.631  24.781  51.949  1.00  0.00    -0.266 OA
BRANCH  12  15
HETATM   15  N   UNL     1       5.278  26.716  50.101  1.00  0.00    -0.249 N 
HETATM   16  C   UNL     1       5.280  27.979  49.569  1.00  0.00     0.341 C 
HETATM   17  N   UNL     1       4.469  28.220  48.504  1.00  0.00    -0.286 N 
HETATM   18  O   UNL     1       6.018  28.873  49.990  1.00  0.00    -0.245 OA
HETATM   19  H   UNL     1       4.520  29.144  48.107  1.00  0.00     0.172 HD
HETATM   20  H   UNL     1       4.457  26.124  49.954  1.00  0.00     0.192 HD
BRANCH  17  21
HETATM   21  C   UNL     1       3.647  27.308  47.913  1.00  0.00     0.174 A 
HETATM   22  S   UNL     1       1.983  27.660  48.026  1.00  0.00    -0.062 SA
HETATM   23  C   UNL     1       1.646  26.240  47.123  1.00  0.00     0.072 A 
HETATM   24  C   UNL     1       2.828  25.598  46.815  1.00  0.00     0.126 A 
HETATM   25  N   UNL     1       3.978  26.212  47.275  1.00  0.00    -0.236 NA
ENDBRANCH  17  21
ENDBRANCH  12  15
ENDBRANCH   8  11
BRANCH   6  26
HETATM   26  C   UNL     1       7.255  27.618  56.356  1.00  0.00     0.014 A 
HETATM   27  C   UNL     1       6.145  28.358  56.813  1.00  0.00     0.046 A 
HETATM   28 CL   UNL     1       4.534  28.077  56.239  1.00  0.00    -0.083 Cl
HETATM   29  C   UNL     1       6.304  29.403  57.733  1.00  0.00     0.025 A 
HETATM   30  C   UNL     1       7.571  29.745  58.202  1.00  0.00     0.002 A 
HETATM   31  C   UNL     1       8.684  29.047  57.749  1.00  0.00     0.001 A 
HETATM   32  C   UNL     1       8.525  27.998  56.839  1.00  0.00     0.015 A 
ENDBRANCH   6  26
TORSDOF 4
ENDMDL
MODEL 4
REMARK VINA RESULT:     -10.2      4.200      7.208
REMARK  4 active torsions:
REMARK  status: ('A' for Active; 'I' for Inactive)
REMARK    1  A    between atoms: C_6  and  C_7 
REMARK    2  A    between atoms: C_15  and  C_16 
REMARK       I    between atoms: C_16  and  N_17 
REMARK    3  A    between atoms: N_17  and  N_18 
REMARK       I    between atoms: N_18  and  C_19 
REMARK       I    between atoms: C_19  and  N_20 
REMARK    4  A    between atoms: N_20  and  C_21 
ROOT
HETATM    1  C   UNL     1       6.991  29.004  55.714  1.00  0.00     0.001 A 
HETATM    2  C   UNL     1       6.514  28.120  54.748  1.00  0.00     0.015 A 
HETATM    3  C   UNL     1       6.825  26.736  54.799  1.00  0.00     0.009 A 
HETATM    4  C   UNL     1       7.620  26.261  55.858  1.00  0.00     0.068 A 
HETATM    5  N   UNL     1       7.947  24.967  56.006  1.00  0.00    -0.248 NA
HETATM    6  C   UNL     1       7.511  24.053  55.106  1.00  0.00     0.070 A 
HETATM    7  C   UNL     1       6.757  24.423  54.007  1.00  0.00     0.050 A 
HETATM    8  C   UNL     1       6.385  25.764  53.871  1.00  0.00     0.048 A 
HETATM    9  C   UNL     1       8.082  27.162  56.808  1.00  0.00     0.032 A 
HETATM   10  C   UNL     1       7.779  28.523  56.747  1.00  0.00     0.002 A 
ENDROOT
BRANCH   8  11
HETATM   11  C   UNL     1       5.493  26.122  52.739  1.00  0.00     0.271 C 
HETATM   12  N   UNL     1       6.139  26.287  51.530  1.00  0.00    -0.262 N 
HETATM   13  H   UNL     1       7.150  26.292  51.425  1.00  0.00     0.190 HD
HETATM   14  O   UNL     1       4.282  26.236  52.890  1.00  0.00    -0.266 OA
BRANCH  12  15
HETATM   15  N   UNL     1       5.403  26.715  50.422  1.00  0.00    -0.249 N 
HETATM   16  C   UNL     1       5.350  28.059  50.159  1.00  0.00     0.341 C 
HETATM   17  N   UNL     1       4.540  28.476  49.148  1.00  0.00    -0.286 N 
HETATM   18  O   UNL     1       6.039  28.880  50.769  1.00  0.00    -0.245 OA
HETATM   19  H   UNL     1       4.551  29.463  48.949  1.00  0.00     0.172 HD
HETATM   20  H   UNL     1       4.613  26.129  50.140  1.00  0.00     0.192 HD
BRANCH  17  21
HETATM   21  C   UNL     1       3.770  27.668  48.366  1.00  0.00     0.174 A 
HETATM   22  S   UNL     1       2.090  27.909  48.519  1.00  0.00    -0.062 SA
HETATM   23  C   UNL     1       1.832  26.692  47.336  1.00  0.00     0.072 A 
HETATM   24  C   UNL     1       3.048  26.185  46.925  1.00  0.00     0.126 A 
HETATM   25  N   UNL     1       4.161  26.745  47.522  1.00  0.00    -0.236 NA
ENDBRANCH  17  21
ENDBRANCH  12  15
ENDBRANCH   8  11
BRANCH   6  26
HETATM   26  C   UNL     1       7.922  22.662  55.376  1.00  0.00     0.014 A 
HETATM   27  C   UNL     1       8.116  21.688  54.376  1.00  0.00     0.046 A 
HETATM   28 CL   UNL     1       7.828  22.002  52.695  1.00  0.00    -0.083 Cl
HETATM   29  C   UNL     1       8.512  20.384  54.706  1.00  0.00     0.025 A 
HETATM   30  C   UNL     1       8.705  20.020  56.037  1.00  0.00     0.002 A 
HETATM   31  C   UNL     1       8.497  20.956  57.043  1.00  0.00     0.001 A 
HETATM   32  C   UNL     1       8.110  22.258  56.714  1.00  0.00     0.015 A 
ENDBRANCH   6  26
TORSDOF 4
ENDMDL
MODEL 5
REMARK VINA RESULT:     -10.0      4.230      7.178
REMARK  4 active torsions:
REMARK  status: ('A' for Active; 'I' for Inactive)
REMARK    1  A    between atoms: C_6  and  C_7 
REMARK    2  A    between atoms: C_15  and  C_16 
REMARK       I    between atoms: C_16  and  N_17 
REMARK    3  A    between atoms: N_17  and  N_18 
REMARK       I    between atoms: N_18  and  C_19 
REMARK       I    between atoms: C_19  and  N_20 
REMARK    4  A    between atoms: N_20  and  C_21 
ROOT
HETATM    1  C   UNL     1       6.849  28.749  55.714  1.00  0.00     0.001 A 
HETATM    2  C   UNL     1       6.376  27.978  54.654  1.00  0.00     0.015 A 
HETATM    3  C   UNL     1       6.739  26.612  54.517  1.00  0.00     0.009 A 
HETATM    4  C   UNL     1       7.582  26.037  55.485  1.00  0.00     0.068 A 
HETATM    5  N   UNL     1       7.960  24.749  55.456  1.00  0.00    -0.248 NA
HETATM    6  C   UNL     1       7.531  23.941  54.456  1.00  0.00     0.070 A 
HETATM    7  C   UNL     1       6.732  24.420  53.433  1.00  0.00     0.050 A 
HETATM    8  C   UNL     1       6.308  25.751  53.482  1.00  0.00     0.048 A 
HETATM    9  C   UNL     1       8.039  26.826  56.533  1.00  0.00     0.032 A 
HETATM   10  C   UNL     1       7.685  28.171  56.657  1.00  0.00     0.002 A 
ENDROOT
BRANCH   8  11
HETATM   11  C   UNL     1       5.370  26.217  52.428  1.00  0.00     0.271 C 
HETATM   12  N   UNL     1       5.893  26.211  51.151  1.00  0.00    -0.262 N 
HETATM   13  H   UNL     1       6.872  26.029  50.941  1.00  0.00     0.190 HD
HETATM   14  O   UNL     1       4.222  26.554  52.697  1.00  0.00    -0.266 OA
BRANCH  12  15
HETATM   15  N   UNL     1       5.123  26.718  50.101  1.00  0.00    -0.249 N 
HETATM   16  C   UNL     1       5.251  28.045  49.785  1.00  0.00     0.341 C 
HETATM   17  N   UNL     1       4.417  28.555  48.839  1.00  0.00    -0.286 N 
HETATM   18  O   UNL     1       6.117  28.764  50.289  1.00  0.00    -0.245 OA
HETATM   19  H   UNL     1       4.559  29.522  48.596  1.00  0.00     0.172 HD
HETATM   20  H   UNL     1       4.228  26.256  49.922  1.00  0.00     0.192 HD
BRANCH  17  21
HETATM   21  C   UNL     1       3.456  27.857  48.171  1.00  0.00     0.174 A 
HETATM   22  S   UNL     1       1.854  28.238  48.610  1.00  0.00    -0.062 SA
HETATM   23  C   UNL     1       1.292  27.106  47.448  1.00  0.00     0.072 A 
HETATM   24  C   UNL     1       2.370  26.513  46.824  1.00  0.00     0.126 A 
HETATM   25  N   UNL     1       3.614  26.944  47.245  1.00  0.00    -0.236 NA
ENDBRANCH  17  21
ENDBRANCH  12  15
ENDBRANCH   8  11
BRANCH   6  26
HETATM   26  C   UNL     1       7.999  22.545  54.532  1.00  0.00     0.014 A 
HETATM   27  C   UNL     1       8.347  21.892  55.732  1.00  0.00     0.046 A 
HETATM   28 CL   UNL     1       8.322  22.689  57.271  1.00  0.00    -0.083 Cl
HETATM   29  C   UNL     1       8.781  20.559  55.729  1.00  0.00     0.025 A 
HETATM   30  C   UNL     1       8.896  19.856  54.531  1.00  0.00     0.002 A 
HETATM   31  C   UNL     1       8.582  20.485  53.332  1.00  0.00     0.001 A 
HETATM   32  C   UNL     1       8.141  21.811  53.335  1.00  0.00     0.015 A 
ENDBRANCH   6  26
TORSDOF 4
ENDMDL
MODEL 6
REMARK VINA RESULT:      -9.9      1.853      2.339
REMARK  4 active torsions:
REMARK  status: ('A' for Active; 'I' for Inactive)
REMARK    1  A    between atoms: C_6  and  C_7 
REMARK    2  A    between atoms: C_15  and  C_16 
REMARK       I    between atoms: C_16  and  N_17 
REMARK    3  A    between atoms: N_17  and  N_18 
REMARK       I    between atoms: N_18  and  C_19 
REMARK       I    between atoms: C_19  and  N_20 
REMARK    4  A    between atoms: N_20  and  C_21 
ROOT
HETATM    1  C   UNL     1       3.748  29.653  53.664  1.00  0.00     0.001 A 
HETATM    2  C   UNL     1       4.595  29.344  54.727  1.00  0.00     0.015 A 
HETATM    3  C   UNL     1       5.275  28.099  54.790  1.00  0.00     0.009 A 
HETATM    4  C   UNL     1       5.089  27.175  53.745  1.00  0.00     0.068 A 
HETATM    5  N   UNL     1       5.707  25.984  53.703  1.00  0.00    -0.248 NA
HETATM    6  C   UNL     1       6.549  25.623  54.701  1.00  0.00     0.070 A 
HETATM    7  C   UNL     1       6.768  26.443  55.794  1.00  0.00     0.050 A 
HETATM    8  C   UNL     1       6.155  27.699  55.822  1.00  0.00     0.048 A 
HETATM    9  C   UNL     1       4.241  27.507  52.697  1.00  0.00     0.032 A 
HETATM   10  C   UNL     1       3.570  28.730  52.646  1.00  0.00     0.002 A 
ENDROOT
BRANCH   8  11
HETATM   11  C   UNL     1       6.482  28.603  56.954  1.00  0.00     0.271 C 
HETATM   12  N   UNL     1       7.820  28.919  57.067  1.00  0.00    -0.262 N 
HETATM   13  H   UNL     1       8.554  28.483  56.513  1.00  0.00     0.190 HD
HETATM   14  O   UNL     1       5.610  29.035  57.700  1.00  0.00    -0.266 OA
BRANCH  12  15
HETATM   15  N   UNL     1       8.245  29.688  58.153  1.00  0.00    -0.249 N 
HETATM   16  C   UNL     1       9.447  30.339  58.056  1.00  0.00     0.341 C 
HETATM   17  N   UNL     1       9.906  30.991  59.159  1.00  0.00    -0.286 N 
HETATM   18  O   UNL     1      10.089  30.390  57.004  1.00  0.00    -0.245 OA
HETATM   19  H   UNL     1      10.771  31.495  59.049  1.00  0.00     0.172 HD
HETATM   20  H   UNL     1       7.919  29.398  59.078  1.00  0.00     0.192 HD
BRANCH  17  21
HETATM   21  C   UNL     1       9.270  31.056  60.363  1.00  0.00     0.174 A 
HETATM   22  S   UNL     1       8.322  32.451  60.601  1.00  0.00    -0.062 SA
HETATM   23  C   UNL     1       7.873  31.852  62.146  1.00  0.00     0.072 A 
HETATM   24  C   UNL     1       8.492  30.638  62.367  1.00  0.00     0.126 A 
HETATM   25  N   UNL     1       9.299  30.185  61.341  1.00  0.00    -0.236 NA
ENDBRANCH  17  21
ENDBRANCH  12  15
ENDBRANCH   8  11
BRANCH   6  26
HETATM   26  C   UNL     1       7.179  24.299  54.543  1.00  0.00     0.014 A 
HETATM   27  C   UNL     1       7.835  23.870  53.372  1.00  0.00     0.046 A 
HETATM   28 CL   UNL     1       7.922  24.843  51.939  1.00  0.00    -0.083 Cl
HETATM   29  C   UNL     1       8.416  22.597  53.295  1.00  0.00     0.025 A 
HETATM   30  C   UNL     1       8.339  21.719  54.374  1.00  0.00     0.002 A 
HETATM   31  C   UNL     1       7.677  22.109  55.532  1.00  0.00     0.001 A 
HETATM   32  C   UNL     1       7.105  23.382  55.613  1.00  0.00     0.015 A 
ENDBRANCH   6  26
TORSDOF 4
ENDMDL
MODEL 7
REMARK VINA RESULT:      -9.7      4.170      6.635
REMARK  4 active torsions:
REMARK  status: ('A' for Active; 'I' for Inactive)
REMARK    1  A    between atoms: C_6  and  C_7 
REMARK    2  A    between atoms: C_15  and  C_16 
REMARK       I    between atoms: C_16  and  N_17 
REMARK    3  A    between atoms: N_17  and  N_18 
REMARK       I    between atoms: N_18  and  C_19 
REMARK       I    between atoms: C_19  and  N_20 
REMARK    4  A    between atoms: N_20  and  C_21 
ROOT
HETATM    1  C   UNL     1       6.884  28.501  56.825  1.00  0.00     0.001 A 
HETATM    2  C   UNL     1       6.409  27.977  55.625  1.00  0.00     0.015 A 
HETATM    3  C   UNL     1       6.729  26.654  55.220  1.00  0.00     0.009 A 
HETATM    4  C   UNL     1       7.531  25.865  56.065  1.00  0.00     0.068 A 
HETATM    5  N   UNL     1       7.866  24.596  55.782  1.00  0.00    -0.248 NA
HETATM    6  C   UNL     1       7.432  24.023  54.634  1.00  0.00     0.070 A 
HETATM    7  C   UNL     1       6.673  24.727  53.716  1.00  0.00     0.050 A 
HETATM    8  C   UNL     1       6.292  26.036  54.026  1.00  0.00     0.048 A 
HETATM    9  C   UNL     1       7.990  26.410  57.257  1.00  0.00     0.032 A 
HETATM   10  C   UNL     1       7.679  27.714  57.645  1.00  0.00     0.002 A 
ENDROOT
BRANCH   8  11
HETATM   11  C   UNL     1       5.394  26.739  53.074  1.00  0.00     0.271 C 
HETATM   12  N   UNL     1       5.965  27.021  51.850  1.00  0.00    -0.262 N 
HETATM   13  H   UNL     1       6.951  26.884  51.640  1.00  0.00     0.190 HD
HETATM   14  O   UNL     1       4.237  27.015  53.372  1.00  0.00    -0.266 OA
BRANCH  12  15
HETATM   15  N   UNL     1       5.235  27.762  50.917  1.00  0.00    -0.249 N 
HETATM   16  C   UNL     1       4.628  27.091  49.888  1.00  0.00     0.341 C 
HETATM   17  N   UNL     1       4.016  27.829  48.923  1.00  0.00    -0.286 N 
HETATM   18  O   UNL     1       4.581  25.859  49.838  1.00  0.00    -0.245 OA
HETATM   19  H   UNL     1       3.543  27.311  48.200  1.00  0.00     0.172 HD
HETATM   20  H   UNL     1       5.531  28.729  50.764  1.00  0.00     0.192 HD
BRANCH  17  21
HETATM   21  C   UNL     1       3.951  29.190  48.888  1.00  0.00     0.174 A 
HETATM   22  S   UNL     1       4.387  29.893  47.398  1.00  0.00    -0.062 SA
HETATM   23  C   UNL     1       4.057  31.441  48.061  1.00  0.00     0.072 A 
HETATM   24  C   UNL     1       3.652  31.305  49.373  1.00  0.00     0.126 A 
HETATM   25  N   UNL     1       3.596  30.009  49.848  1.00  0.00    -0.236 NA
ENDBRANCH  17  21
ENDBRANCH  12  15
ENDBRANCH   8  11
BRANCH   6  26
HETATM   26  C   UNL     1       7.852  22.624  54.434  1.00  0.00     0.014 A 
HETATM   27  C   UNL     1       8.226  21.753  55.477  1.00  0.00     0.046 A 
HETATM   28 CL   UNL     1       8.296  22.257  57.135  1.00  0.00    -0.083 Cl
HETATM   29  C   UNL     1       8.610  20.431  55.212  1.00  0.00     0.025 A 
HETATM   30  C   UNL     1       8.648  19.955  53.903  1.00  0.00     0.002 A 
HETATM   31  C   UNL     1       8.307  20.801  52.854  1.00  0.00     0.001 A 
HETATM   32  C   UNL     1       7.916  22.116  53.118  1.00  0.00     0.015 A 
ENDBRANCH   6  26
TORSDOF 4
ENDMDL
MODEL 8
REMARK VINA RESULT:      -9.7      2.167      4.857
REMARK  4 active torsions:
REMARK  status: ('A' for Active; 'I' for Inactive)
REMARK    1  A    between atoms: C_6  and  C_7 
REMARK    2  A    between atoms: C_15  and  C_16 
REMARK       I    between atoms: C_16  and  N_17 
REMARK    3  A    between atoms: N_17  and  N_18 
REMARK       I    between atoms: N_18  and  C_19 
REMARK       I    between atoms: C_19  and  N_20 
REMARK    4  A    between atoms: N_20  and  C_21 
ROOT
HETATM    1  C   UNL     1       8.415  23.227  56.993  1.00  0.00     0.001 A 
HETATM    2  C   UNL     1       8.278  24.614  56.949  1.00  0.00     0.015 A 
HETATM    3  C   UNL     1       7.639  25.256  55.856  1.00  0.00     0.009 A 
HETATM    4  C   UNL     1       7.128  24.464  54.812  1.00  0.00     0.068 A 
HETATM    5  N   UNL     1       6.487  24.977  53.749  1.00  0.00    -0.248 NA
HETATM    6  C   UNL     1       6.313  26.317  53.647  1.00  0.00     0.070 A 
HETATM    7  C   UNL     1       6.813  27.186  54.601  1.00  0.00     0.050 A 
HETATM    8  C   UNL     1       7.449  26.651  55.725  1.00  0.00     0.048 A 
HETATM    9  C   UNL     1       7.276  23.085  54.879  1.00  0.00     0.032 A 
HETATM   10  C   UNL     1       7.913  22.460  55.953  1.00  0.00     0.002 A 
ENDROOT
BRANCH   8  11
HETATM   11  C   UNL     1       7.889  27.595  56.784  1.00  0.00     0.271 C 
HETATM   12  N   UNL     1       6.863  28.143  57.526  1.00  0.00    -0.262 N 
HETATM   13  H   UNL     1       5.878  28.025  57.304  1.00  0.00     0.190 HD
HETATM   14  O   UNL     1       9.077  27.834  56.975  1.00  0.00    -0.266 OA
BRANCH  12  15
HETATM   15  N   UNL     1       7.165  29.113  58.486  1.00  0.00    -0.249 N 
HETATM   16  C   UNL     1       6.949  30.429  58.168  1.00  0.00     0.341 C 
HETATM   17  N   UNL     1       7.351  31.371  59.063  1.00  0.00    -0.286 N 
HETATM   18  O   UNL     1       6.368  30.773  57.136  1.00  0.00    -0.245 OA
HETATM   19  H   UNL     1       7.144  32.328  58.824  1.00  0.00     0.172 HD
HETATM   20  H   UNL     1       7.906  28.886  59.153  1.00  0.00     0.192 HD
BRANCH  17  21
HETATM   21  C   UNL     1       7.955  31.122  60.259  1.00  0.00     0.174 A 
HETATM   22  S   UNL     1       7.239  31.890  61.601  1.00  0.00    -0.062 SA
HETATM   23  C   UNL     1       8.405  31.147  62.618  1.00  0.00     0.072 A 
HETATM   24  C   UNL     1       9.260  30.380  61.854  1.00  0.00     0.126 A 
HETATM   25  N   UNL     1       9.001  30.370  60.497  1.00  0.00    -0.236 NA
ENDBRANCH  17  21
ENDBRANCH  12  15
ENDBRANCH   8  11
BRANCH   6  26
HETATM   26  C   UNL     1       5.585  26.765  52.445  1.00  0.00     0.014 A 
HETATM   27  C   UNL     1       4.770  27.914  52.398  1.00  0.00     0.046 A 
HETATM   28 CL   UNL     1       4.475  28.910  53.786  1.00  0.00    -0.083 Cl
HETATM   29  C   UNL     1       4.111  28.283  51.216  1.00  0.00     0.025 A 
HETATM   30  C   UNL     1       4.235  27.506  50.066  1.00  0.00     0.002 A 
HETATM   31  C   UNL     1       5.015  26.356  50.094  1.00  0.00     0.001 A 
HETATM   32  C   UNL     1       5.679  25.992  51.268  1.00  0.00     0.015 A 
ENDBRANCH   6  26
TORSDOF 4
ENDMDL
MODEL 9
REMARK VINA RESULT:      -9.5      3.864      8.314
REMARK  4 active torsions:
REMARK  status: ('A' for Active; 'I' for Inactive)
REMARK    1  A    between atoms: C_6  and  C_7 
REMARK    2  A    between atoms: C_15  and  C_16 
REMARK       I    between atoms: C_16  and  N_17 
REMARK    3  A    between atoms: N_17  and  N_18 
REMARK       I    between atoms: N_18  and  C_19 
REMARK       I    between atoms: C_19  and  N_20 
REMARK    4  A    between atoms: N_20  and  C_21 
ROOT
HETATM    1  C   UNL     1       7.459  23.230  55.654  1.00  0.00     0.001 A 
HETATM    2  C   UNL     1       7.219  24.392  54.924  1.00  0.00     0.015 A 
HETATM    3  C   UNL     1       7.571  25.670  55.434  1.00  0.00     0.009 A 
HETATM    4  C   UNL     1       8.185  25.746  56.698  1.00  0.00     0.068 A 
HETATM    5  N   UNL     1       8.576  26.904  57.254  1.00  0.00    -0.248 NA
HETATM    6  C   UNL     1       8.379  28.070  56.594  1.00  0.00     0.070 A 
HETATM    7  C   UNL     1       7.747  28.108  55.364  1.00  0.00     0.050 A 
HETATM    8  C   UNL     1       7.372  26.900  54.767  1.00  0.00     0.048 A 
HETATM    9  C   UNL     1       8.415  24.573  57.406  1.00  0.00     0.032 A 
HETATM   10  C   UNL     1       8.058  23.321  56.901  1.00  0.00     0.002 A 
ENDROOT
BRANCH   8  11
HETATM   11  C   UNL     1       6.786  26.955  53.403  1.00  0.00     0.271 C 
HETATM   12  N   UNL     1       5.746  27.851  53.262  1.00  0.00    -0.262 N 
HETATM   13  H   UNL     1       5.317  28.348  54.039  1.00  0.00     0.190 HD
HETATM   14  O   UNL     1       7.225  26.265  52.491  1.00  0.00    -0.266 OA
BRANCH  12  15
HETATM   15  N   UNL     1       5.066  27.913  52.043  1.00  0.00    -0.249 N 
HETATM   16  C   UNL     1       3.798  28.430  52.033  1.00  0.00     0.341 C 
HETATM   17  N   UNL     1       3.101  28.381  50.865  1.00  0.00    -0.286 N 
HETATM   18  O   UNL     1       3.297  28.972  53.022  1.00  0.00    -0.245 OA
HETATM   19  H   UNL     1       2.188  28.804  50.875  1.00  0.00     0.172 HD
HETATM   20  H   UNL     1       5.314  27.210  51.342  1.00  0.00     0.192 HD
BRANCH  17  21
HETATM   21  C   UNL     1       3.558  27.859  49.692  1.00  0.00     0.174 A 
HETATM   22  S   UNL     1       3.225  28.796  48.309  1.00  0.00    -0.062 SA
HETATM   23  C   UNL     1       4.047  27.633  47.352  1.00  0.00     0.072 A 
HETATM   24  C   UNL     1       4.503  26.611  48.160  1.00  0.00     0.126 A 
HETATM   25  N   UNL     1       4.216  26.741  49.505  1.00  0.00    -0.236 NA
ENDBRANCH  17  21
ENDBRANCH  12  15
ENDBRANCH   8  11
BRANCH   6  26
HETATM   26  C   UNL     1       8.859  29.276  57.295  1.00  0.00     0.014 A 
HETATM   27  C   UNL     1       8.024  30.161  58.007  1.00  0.00     0.046 A 
HETATM   28 CL   UNL     1       6.304  29.964  58.087  1.00  0.00    -0.083 Cl
HETATM   29  C   UNL     1       8.552  31.288  58.654  1.00  0.00     0.025 A 
HETATM   30  C   UNL     1       9.916  31.565  58.590  1.00  0.00     0.002 A 
HETATM   31  C   UNL     1      10.757  30.721  57.875  1.00  0.00     0.001 A 
HETATM   32  C   UNL     1      10.233  29.593  57.237  1.00  0.00     0.015 A 
ENDBRANCH   6  26
TORSDOF 4
ENDMDL
MODEL 10
REMARK VINA RESULT:      -9.3      3.439      8.143
REMARK  4 active torsions:
REMARK  status: ('A' for Active; 'I' for Inactive)
REMARK    1  A    between atoms: C_6  and  C_7 
REMARK    2  A    between atoms: C_15  and  C_16 
REMARK       I    between atoms: C_16  and  N_17 
REMARK    3  A    between atoms: N_17  and  N_18 
REMARK       I    between atoms: N_18  and  C_19 
REMARK       I    between atoms: C_19  and  N_20 
REMARK    4  A    between atoms: N_20  and  C_21 
ROOT
HETATM    1  C   UNL     1       3.845  29.301  53.851  1.00  0.00     0.001 A 
HETATM    2  C   UNL     1       4.665  28.485  54.628  1.00  0.00     0.015 A 
HETATM    3  C   UNL     1       5.454  29.022  55.679  1.00  0.00     0.009 A 
HETATM    4  C   UNL     1       5.386  30.403  55.938  1.00  0.00     0.068 A 
HETATM    5  N   UNL     1       6.074  30.999  56.925  1.00  0.00    -0.248 NA
HETATM    6  C   UNL     1       6.885  30.264  57.723  1.00  0.00     0.070 A 
HETATM    7  C   UNL     1       7.054  28.905  57.526  1.00  0.00     0.050 A 
HETATM    8  C   UNL     1       6.311  28.276  56.522  1.00  0.00     0.048 A 
HETATM    9  C   UNL     1       4.560  31.195  55.150  1.00  0.00     0.032 A 
HETATM   10  C   UNL     1       3.793  30.661  54.113  1.00  0.00     0.002 A 
ENDROOT
BRANCH   8  11
HETATM   11  C   UNL     1       6.431  26.801  56.393  1.00  0.00     0.271 C 
HETATM   12  N   UNL     1       7.664  26.363  55.955  1.00  0.00    -0.262 N 
HETATM   13  H   UNL     1       8.400  26.982  55.623  1.00  0.00     0.190 HD
HETATM   14  O   UNL     1       5.500  26.056  56.679  1.00  0.00    -0.266 OA
BRANCH  12  15
HETATM   15  N   UNL     1       7.851  25.000  55.713  1.00  0.00    -0.249 N 
HETATM   16  C   UNL     1       8.504  24.256  56.660  1.00  0.00     0.341 C 
HETATM   17  N   UNL     1       8.782  22.957  56.366  1.00  0.00    -0.286 N 
HETATM   18  O   UNL     1       8.796  24.708  57.770  1.00  0.00    -0.245 OA
HETATM   19  H   UNL     1       9.225  22.422  57.095  1.00  0.00     0.172 HD
HETATM   20  H   UNL     1       7.918  24.712  54.733  1.00  0.00     0.192 HD
BRANCH  17  21
HETATM   21  C   UNL     1       8.467  22.324  55.201  1.00  0.00     0.174 A 
HETATM   22  S   UNL     1       7.949  20.710  55.378  1.00  0.00    -0.062 SA
HETATM   23  C   UNL     1       7.732  20.620  53.677  1.00  0.00     0.072 A 
HETATM   24  C   UNL     1       8.084  21.824  53.103  1.00  0.00     0.126 A 
HETATM   25  N   UNL     1       8.510  22.802  53.982  1.00  0.00    -0.236 NA
ENDBRANCH  17  21
ENDBRANCH  12  15
ENDBRANCH   8  11
BRANCH   6  26
HETATM   26  C   UNL     1       7.581  31.021  58.779  1.00  0.00     0.014 A 
HETATM   27  C   UNL     1       8.983  31.101  58.901  1.00  0.00     0.046 A 
HETATM   28 CL   UNL     1      10.064  30.252  57.845  1.00  0.00    -0.083 Cl
HETATM   29  C   UNL     1       9.577  31.845  59.930  1.00  0.00     0.025 A 
HETATM   30  C   UNL     1       8.788  32.510  60.868  1.00  0.00     0.002 A 
HETATM   31  C   UNL     1       7.403  32.428  60.783  1.00  0.00     0.001 A 
HETATM   32  C   UNL     1       6.811  31.693  59.752  1.00  0.00     0.015 A 
ENDBRANCH   6  26
TORSDOF 4
ENDMDL
