MODEL 1
REMARK VINA RESULT:     -10.2      0.000      0.000
REMARK  4 active torsions:
REMARK  status: ('A' for Active; 'I' for Inactive)
REMARK    1  A    between atoms: C_7  and  C_8 
REMARK    2  A    between atoms: N_9  and  N_10 
REMARK       I    between atoms: N_10  and  C_11 
REMARK    3  A    between atoms: C_11  and  C_12 
REMARK    4  A    between atoms: C_16  and  C_17 
ROOT
HETATM    1  N   UNL     1       8.277  28.294  57.495  1.00  0.00    -0.242 N 
HETATM    2  C   UNL     1       9.191  29.337  57.476  1.00  0.00     0.289 C 
HETATM    3  O   UNL     1      10.133  29.420  56.693  1.00  0.00    -0.264 OA
HETATM    4  H   UNL     1       7.548  28.263  58.195  1.00  0.00     0.192 HD
ENDROOT
BRANCH   1   5
HETATM    5  N   UNL     1       8.403  27.257  56.612  1.00  0.00    -0.183 NA
HETATM    6  C   UNL     1       7.301  26.689  56.242  1.00  0.00     0.153 C 
BRANCH   6   7
HETATM    7  C   UNL     1       7.326  25.575  55.313  1.00  0.00     0.018 A 
HETATM    8  C   UNL     1       7.022  25.606  53.958  1.00  0.00     0.018 A 
HETATM    9  C   UNL     1       6.599  26.727  53.073  1.00  0.00     0.069 C 
HETATM   10  N   UNL     1       7.175  24.335  53.465  1.00  0.00    -0.358 N 
HETATM   11  H   UNL     1       7.020  24.064  52.504  1.00  0.00     0.166 HD
HETATM   12  C   UNL     1       7.572  23.474  54.458  1.00  0.00     0.043 A 
HETATM   13  C   UNL     1       7.677  24.219  55.631  1.00  0.00     0.004 A 
HETATM   14  C   UNL     1       7.843  22.101  54.401  1.00  0.00     0.030 A 
HETATM   15  C   UNL     1       8.075  23.553  56.811  1.00  0.00     0.014 A 
HETATM   16  C   UNL     1       8.351  22.182  56.772  1.00  0.00     0.001 A 
HETATM   17  C   UNL     1       8.235  21.468  55.584  1.00  0.00     0.002 A 
ENDBRANCH   6   7
ENDBRANCH   1   5
BRANCH   2  18
HETATM   18  C   UNL     1       8.967  30.348  58.479  1.00  0.00     0.121 A 
HETATM   19  N   UNL     1       9.675  31.518  58.473  1.00  0.00    -0.272 N 
HETATM   20  H   UNL     1      10.386  31.792  57.801  1.00  0.00     0.189 HD
HETATM   21  N   UNL     1       9.361  32.355  59.473  1.00  0.00    -0.174 NA
HETATM   22  C   UNL     1       8.421  31.706  60.178  1.00  0.00     0.091 A 
HETATM   23  C   UNL     1       8.122  30.457  59.566  1.00  0.00     0.071 A 
BRANCH  22  24
HETATM   24  C   UNL     1       7.814  32.314  61.365  1.00  0.00     0.016 A 
HETATM   25  C   UNL     1       6.566  32.960  61.360  1.00  0.00     0.046 A 
HETATM   26 CL   UNL     1       5.552  33.062  59.960  1.00  0.00    -0.083 Cl
HETATM   27  C   UNL     1       6.059  33.531  62.536  1.00  0.00     0.025 A 
HETATM   28  C   UNL     1       6.782  33.459  63.727  1.00  0.00     0.002 A 
HETATM   29  C   UNL     1       8.012  32.811  63.751  1.00  0.00     0.001 A 
HETATM   30  C   UNL     1       8.521  32.243  62.581  1.00  0.00     0.015 A 
ENDBRANCH  22  24
ENDBRANCH   2  18
TORSDOF 4
ENDMDL
MODEL 2
REMARK VINA RESULT:     -10.2      1.494      1.769
REMARK  4 active torsions:
REMARK  status: ('A' for Active; 'I' for Inactive)
REMARK    1  A    between atoms: C_7  and  C_8 
REMARK    2  A    between atoms: N_9  and  N_10 
REMARK       I    between atoms: N_10  and  C_11 
REMARK    3  A    between atoms: C_11  and  C_12 
REMARK    4  A    between atoms: C_16  and  C_17 
ROOT
HETATM    1  N   UNL     1       7.993  28.262  56.597  1.00  0.00    -0.242 N 
HETATM    2  C   UNL     1       8.841  29.354  56.489  1.00  0.00     0.289 C 
HETATM    3  O   UNL     1       9.547  29.590  55.512  1.00  0.00    -0.264 OA
HETATM    4  H   UNL     1       7.471  28.100  57.448  1.00  0.00     0.192 HD
ENDROOT
BRANCH   1   5
HETATM    5  N   UNL     1       7.915  27.352  55.579  1.00  0.00    -0.183 NA
HETATM    6  C   UNL     1       7.071  26.386  55.745  1.00  0.00     0.153 C 
BRANCH   6   7
HETATM    7  C   UNL     1       6.916  25.363  54.726  1.00  0.00     0.018 A 
HETATM    8  C   UNL     1       6.019  25.366  53.666  1.00  0.00     0.018 A 
HETATM    9  C   UNL     1       4.987  26.358  53.256  1.00  0.00     0.069 C 
HETATM   10  N   UNL     1       6.213  24.210  52.951  1.00  0.00    -0.358 N 
HETATM   11  H   UNL     1       5.696  23.947  52.123  1.00  0.00     0.166 HD
HETATM   12  C   UNL     1       7.213  23.454  53.512  1.00  0.00     0.043 A 
HETATM   13  C   UNL     1       7.677  24.149  54.628  1.00  0.00     0.004 A 
HETATM   14  C   UNL     1       7.734  22.217  53.115  1.00  0.00     0.030 A 
HETATM   15  C   UNL     1       8.719  23.573  55.387  1.00  0.00     0.014 A 
HETATM   16  C   UNL     1       9.253  22.337  55.003  1.00  0.00     0.001 A 
HETATM   17  C   UNL     1       8.766  21.670  53.883  1.00  0.00     0.002 A 
ENDBRANCH   6   7
ENDBRANCH   1   5
BRANCH   2  18
HETATM   18  C   UNL     1       8.857  30.217  57.644  1.00  0.00     0.121 A 
HETATM   19  N   UNL     1       9.820  31.176  57.795  1.00  0.00    -0.272 N 
HETATM   20  H   UNL     1      10.578  31.380  57.150  1.00  0.00     0.189 HD
HETATM   21  N   UNL     1       9.708  31.894  58.923  1.00  0.00    -0.174 NA
HETATM   22  C   UNL     1       8.639  31.378  59.550  1.00  0.00     0.091 A 
HETATM   23  C   UNL     1       8.057  30.346  58.761  1.00  0.00     0.071 A 
BRANCH  22  24
HETATM   24  C   UNL     1       8.186  31.915  60.835  1.00  0.00     0.016 A 
HETATM   25  C   UNL     1       8.574  31.393  62.081  1.00  0.00     0.046 A 
HETATM   26 CL   UNL     1       9.693  30.083  62.257  1.00  0.00    -0.083 Cl
HETATM   27  C   UNL     1       8.084  31.955  63.269  1.00  0.00     0.025 A 
HETATM   28  C   UNL     1       7.212  33.044  63.230  1.00  0.00     0.002 A 
HETATM   29  C   UNL     1       6.831  33.581  62.006  1.00  0.00     0.001 A 
HETATM   30  C   UNL     1       7.315  33.022  60.820  1.00  0.00     0.015 A 
ENDBRANCH  22  24
ENDBRANCH   2  18
TORSDOF 4
ENDMDL
MODEL 3
REMARK VINA RESULT:      -9.9      1.686      2.206
REMARK  4 active torsions:
REMARK  status: ('A' for Active; 'I' for Inactive)
REMARK    1  A    between atoms: C_7  and  C_8 
REMARK    2  A    between atoms: N_9  and  N_10 
REMARK       I    between atoms: N_10  and  C_11 
REMARK    3  A    between atoms: C_11  and  C_12 
REMARK    4  A    between atoms: C_16  and  C_17 
ROOT
HETATM    1  N   UNL     1       6.790  27.016  56.246  1.00  0.00    -0.242 N 
HETATM    2  C   UNL     1       7.357  28.238  55.918  1.00  0.00     0.289 C 
HETATM    3  O   UNL     1       7.887  28.491  54.840  1.00  0.00    -0.264 OA
HETATM    4  H   UNL     1       6.408  26.858  57.169  1.00  0.00     0.192 HD
ENDROOT
BRANCH   1   5
HETATM    5  N   UNL     1       6.815  25.987  55.345  1.00  0.00    -0.183 NA
HETATM    6  C   UNL     1       7.780  25.137  55.482  1.00  0.00     0.153 C 
BRANCH   6   7
HETATM    7  C   UNL     1       7.901  24.011  54.573  1.00  0.00     0.018 A 
HETATM    8  C   UNL     1       7.852  24.045  53.185  1.00  0.00     0.018 A 
HETATM    9  C   UNL     1       7.671  25.179  52.237  1.00  0.00     0.069 C 
HETATM   10  N   UNL     1       8.008  22.760  52.729  1.00  0.00    -0.358 N 
HETATM   11  H   UNL     1       8.013  22.487  51.756  1.00  0.00     0.166 HD
HETATM   12  C   UNL     1       8.159  21.887  53.779  1.00  0.00     0.043 A 
HETATM   13  C   UNL     1       8.098  22.640  54.951  1.00  0.00     0.004 A 
HETATM   14  C   UNL     1       8.345  20.499  53.774  1.00  0.00     0.030 A 
HETATM   15  C   UNL     1       8.229  21.964  56.184  1.00  0.00     0.014 A 
HETATM   16  C   UNL     1       8.417  20.578  56.198  1.00  0.00     0.001 A 
HETATM   17  C   UNL     1       8.473  19.857  55.009  1.00  0.00     0.002 A 
ENDBRANCH   6   7
ENDBRANCH   1   5
BRANCH   2  18
HETATM   18  C   UNL     1       7.297  29.227  56.966  1.00  0.00     0.121 A 
HETATM   19  N   UNL     1       6.475  30.315  56.864  1.00  0.00    -0.272 N 
HETATM   20  H   UNL     1       5.850  30.532  56.093  1.00  0.00     0.189 HD
HETATM   21  N   UNL     1       6.535  31.149  57.913  1.00  0.00    -0.174 NA
HETATM   22  C   UNL     1       7.445  30.600  58.733  1.00  0.00     0.091 A 
HETATM   23  C   UNL     1       7.921  29.373  58.189  1.00  0.00     0.071 A 
BRANCH  22  24
HETATM   24  C   UNL     1       7.785  31.228  60.012  1.00  0.00     0.016 A 
HETATM   25  C   UNL     1       6.909  32.056  60.734  1.00  0.00     0.046 A 
HETATM   26 CL   UNL     1       5.285  32.388  60.233  1.00  0.00    -0.083 Cl
HETATM   27  C   UNL     1       7.316  32.633  61.945  1.00  0.00     0.025 A 
HETATM   28  C   UNL     1       8.591  32.387  62.454  1.00  0.00     0.002 A 
HETATM   29  C   UNL     1       9.464  31.558  61.759  1.00  0.00     0.001 A 
HETATM   30  C   UNL     1       9.064  30.983  60.550  1.00  0.00     0.015 A 
ENDBRANCH  22  24
ENDBRANCH   2  18
TORSDOF 4
ENDMDL
MODEL 4
REMARK VINA RESULT:      -9.6      6.893     10.462
REMARK  4 active torsions:
REMARK  status: ('A' for Active; 'I' for Inactive)
REMARK    1  A    between atoms: C_7  and  C_8 
REMARK    2  A    between atoms: N_9  and  N_10 
REMARK       I    between atoms: N_10  and  C_11 
REMARK    3  A    between atoms: C_11  and  C_12 
REMARK    4  A    between atoms: C_16  and  C_17 
ROOT
HETATM    1  N   UNL     1       6.333  25.939  51.148  1.00  0.00    -0.242 N 
HETATM    2  C   UNL     1       5.393  26.948  51.292  1.00  0.00     0.289 C 
HETATM    3  O   UNL     1       5.049  27.428  52.369  1.00  0.00    -0.264 OA
HETATM    4  H   UNL     1       6.539  25.556  50.235  1.00  0.00     0.192 HD
ENDROOT
BRANCH   1   5
HETATM    5  N   UNL     1       6.934  25.400  52.252  1.00  0.00    -0.183 NA
HETATM    6  C   UNL     1       6.343  24.375  52.775  1.00  0.00     0.153 C 
BRANCH   6   7
HETATM    7  C   UNL     1       6.896  23.732  53.954  1.00  0.00     0.018 A 
HETATM    8  C   UNL     1       6.880  24.214  55.257  1.00  0.00     0.018 A 
HETATM    9  C   UNL     1       6.323  25.470  55.831  1.00  0.00     0.069 C 
HETATM   10  N   UNL     1       7.510  23.290  56.053  1.00  0.00    -0.358 N 
HETATM   11  H   UNL     1       7.644  23.380  57.050  1.00  0.00     0.166 HD
HETATM   12  C   UNL     1       7.935  22.218  55.308  1.00  0.00     0.043 A 
HETATM   13  C   UNL     1       7.566  22.462  53.986  1.00  0.00     0.004 A 
HETATM   14  C   UNL     1       8.615  21.060  55.707  1.00  0.00     0.030 A 
HETATM   15  C   UNL     1       7.894  21.494  53.012  1.00  0.00     0.014 A 
HETATM   16  C   UNL     1       8.572  20.331  53.393  1.00  0.00     0.001 A 
HETATM   17  C   UNL     1       8.927  20.119  54.722  1.00  0.00     0.002 A 
ENDBRANCH   6   7
ENDBRANCH   1   5
BRANCH   2  18
HETATM   18  C   UNL     1       4.809  27.405  50.055  1.00  0.00     0.121 A 
HETATM   19  N   UNL     1       5.288  26.977  48.848  1.00  0.00    -0.272 N 
HETATM   20  H   UNL     1       6.054  26.327  48.697  1.00  0.00     0.189 HD
HETATM   21  N   UNL     1       4.649  27.495  47.789  1.00  0.00    -0.174 NA
HETATM   22  C   UNL     1       3.722  28.311  48.316  1.00  0.00     0.091 A 
HETATM   23  C   UNL     1       3.768  28.254  49.738  1.00  0.00     0.071 A 
BRANCH  22  24
HETATM   24  C   UNL     1       2.804  29.063  47.458  1.00  0.00     0.016 A 
HETATM   25  C   UNL     1       1.498  28.644  47.152  1.00  0.00     0.046 A 
HETATM   26 CL   UNL     1       0.782  27.209  47.806  1.00  0.00    -0.083 Cl
HETATM   27  C   UNL     1       0.685  29.415  46.309  1.00  0.00     0.025 A 
HETATM   28  C   UNL     1       1.158  30.612  45.770  1.00  0.00     0.002 A 
HETATM   29  C   UNL     1       2.442  31.047  46.075  1.00  0.00     0.001 A 
HETATM   30  C   UNL     1       3.256  30.281  46.913  1.00  0.00     0.015 A 
ENDBRANCH  22  24
ENDBRANCH   2  18
TORSDOF 4
ENDMDL
MODEL 5
REMARK VINA RESULT:      -9.6      8.031     11.270
REMARK  4 active torsions:
REMARK  status: ('A' for Active; 'I' for Inactive)
REMARK    1  A    between atoms: C_7  and  C_8 
REMARK    2  A    between atoms: N_9  and  N_10 
REMARK       I    between atoms: N_10  and  C_11 
REMARK    3  A    between atoms: C_11  and  C_12 
REMARK    4  A    between atoms: C_16  and  C_17 
ROOT
HETATM    1  N   UNL     1       5.195  26.839  50.268  1.00  0.00    -0.242 N 
HETATM    2  C   UNL     1       5.152  26.619  51.637  1.00  0.00     0.289 C 
HETATM    3  O   UNL     1       4.434  27.237  52.417  1.00  0.00    -0.264 OA
HETATM    4  H   UNL     1       5.842  26.325  49.686  1.00  0.00     0.192 HD
ENDROOT
BRANCH   1   5
HETATM    5  N   UNL     1       4.414  27.812  49.707  1.00  0.00    -0.183 NA
HETATM    6  C   UNL     1       4.199  27.703  48.436  1.00  0.00     0.153 C 
BRANCH   6   7
HETATM    7  C   UNL     1       3.388  28.687  47.742  1.00  0.00     0.018 A 
HETATM    8  C   UNL     1       3.709  30.017  47.500  1.00  0.00     0.018 A 
HETATM    9  C   UNL     1       4.916  30.815  47.852  1.00  0.00     0.069 C 
HETATM   10  N   UNL     1       2.662  30.582  46.816  1.00  0.00    -0.358 N 
HETATM   11  H   UNL     1       2.622  31.543  46.508  1.00  0.00     0.166 HD
HETATM   12  C   UNL     1       1.667  29.659  46.603  1.00  0.00     0.043 A 
HETATM   13  C   UNL     1       2.091  28.458  47.171  1.00  0.00     0.004 A 
HETATM   14  C   UNL     1       0.434  29.801  45.953  1.00  0.00     0.030 A 
HETATM   15  C   UNL     1       1.233  27.340  47.083  1.00  0.00     0.014 A 
HETATM   16  C   UNL     1      -0.002  27.464  46.437  1.00  0.00     0.001 A 
HETATM   17  C   UNL     1      -0.394  28.677  45.881  1.00  0.00     0.002 A 
ENDBRANCH   6   7
ENDBRANCH   1   5
BRANCH   2  18
HETATM   18  C   UNL     1       6.048  25.591  52.107  1.00  0.00     0.121 A 
HETATM   19  N   UNL     1       7.359  25.567  51.721  1.00  0.00    -0.272 N 
HETATM   20  H   UNL     1       7.822  26.231  51.106  1.00  0.00     0.189 HD
HETATM   21  N   UNL     1       8.065  24.547  52.233  1.00  0.00    -0.174 NA
HETATM   22  C   UNL     1       7.180  23.860  52.974  1.00  0.00     0.091 A 
HETATM   23  C   UNL     1       5.911  24.504  52.947  1.00  0.00     0.071 A 
BRANCH  22  24
HETATM   24  C   UNL     1       7.584  22.660  53.711  1.00  0.00     0.016 A 
HETATM   25  C   UNL     1       7.643  22.587  55.113  1.00  0.00     0.046 A 
HETATM   26 CL   UNL     1       7.182  23.892  56.154  1.00  0.00    -0.083 Cl
HETATM   27  C   UNL     1       8.055  21.405  55.744  1.00  0.00     0.025 A 
HETATM   28  C   UNL     1       8.403  20.284  54.991  1.00  0.00     0.002 A 
HETATM   29  C   UNL     1       8.335  20.336  53.603  1.00  0.00     0.001 A 
HETATM   30  C   UNL     1       7.928  21.513  52.970  1.00  0.00     0.015 A 
ENDBRANCH  22  24
ENDBRANCH   2  18
TORSDOF 4
ENDMDL
MODEL 6
REMARK VINA RESULT:      -9.4      2.782     10.065
REMARK  4 active torsions:
REMARK  status: ('A' for Active; 'I' for Inactive)
REMARK    1  A    between atoms: C_7  and  C_8 
REMARK    2  A    between atoms: N_9  and  N_10 
REMARK       I    between atoms: N_10  and  C_11 
REMARK    3  A    between atoms: C_11  and  C_12 
REMARK    4  A    between atoms: C_16  and  C_17 
ROOT
HETATM    1  N   UNL     1       6.622  30.630  57.796  1.00  0.00    -0.242 N 
HETATM    2  C   UNL     1       7.481  29.541  57.804  1.00  0.00     0.289 C 
HETATM    3  O   UNL     1       8.336  29.338  58.662  1.00  0.00    -0.264 OA
HETATM    4  H   UNL     1       5.969  30.763  57.035  1.00  0.00     0.192 HD
ENDROOT
BRANCH   1   5
HETATM    5  N   UNL     1       6.706  31.575  58.781  1.00  0.00    -0.183 NA
HETATM    6  C   UNL     1       5.596  31.880  59.371  1.00  0.00     0.153 C 
BRANCH   6   7
HETATM    7  C   UNL     1       5.575  32.876  60.426  1.00  0.00     0.018 A 
HETATM    8  C   UNL     1       4.808  34.033  60.472  1.00  0.00     0.018 A 
HETATM    9  C   UNL     1       3.818  34.592  59.511  1.00  0.00     0.069 C 
HETATM   10  N   UNL     1       5.099  34.683  61.645  1.00  0.00    -0.358 N 
HETATM   11  H   UNL     1       4.686  35.556  61.942  1.00  0.00     0.166 HD
HETATM   12  C   UNL     1       6.034  33.983  62.369  1.00  0.00     0.043 A 
HETATM   13  C   UNL     1       6.354  32.843  61.632  1.00  0.00     0.004 A 
HETATM   14  C   UNL     1       6.612  34.275  63.610  1.00  0.00     0.030 A 
HETATM   15  C   UNL     1       7.304  31.947  62.170  1.00  0.00     0.014 A 
HETATM   16  C   UNL     1       7.891  32.223  63.410  1.00  0.00     0.001 A 
HETATM   17  C   UNL     1       7.549  33.371  64.118  1.00  0.00     0.002 A 
ENDBRANCH   6   7
ENDBRANCH   1   5
BRANCH   2  18
HETATM   18  C   UNL     1       7.314  28.638  56.692  1.00  0.00     0.121 A 
HETATM   19  N   UNL     1       6.498  28.954  55.642  1.00  0.00    -0.272 N 
HETATM   20  H   UNL     1       5.959  29.808  55.530  1.00  0.00     0.189 HD
HETATM   21  N   UNL     1       6.438  28.011  54.689  1.00  0.00    -0.174 NA
HETATM   22  C   UNL     1       7.233  27.026  55.136  1.00  0.00     0.091 A 
HETATM   23  C   UNL     1       7.828  27.397  56.374  1.00  0.00     0.071 A 
BRANCH  22  24
HETATM   24  C   UNL     1       7.434  25.805  54.352  1.00  0.00     0.016 A 
HETATM   25  C   UNL     1       7.395  24.510  54.896  1.00  0.00     0.046 A 
HETATM   26 CL   UNL     1       7.039  24.188  56.560  1.00  0.00    -0.083 Cl
HETATM   27  C   UNL     1       7.613  23.391  54.080  1.00  0.00     0.025 A 
HETATM   28  C   UNL     1       7.862  23.547  52.716  1.00  0.00     0.002 A 
HETATM   29  C   UNL     1       7.888  24.821  52.160  1.00  0.00     0.001 A 
HETATM   30  C   UNL     1       7.675  25.938  52.970  1.00  0.00     0.015 A 
ENDBRANCH  22  24
ENDBRANCH   2  18
TORSDOF 4
ENDMDL
MODEL 7
REMARK VINA RESULT:      -9.2      2.852     10.481
REMARK  4 active torsions:
REMARK  status: ('A' for Active; 'I' for Inactive)
REMARK    1  A    between atoms: C_7  and  C_8 
REMARK    2  A    between atoms: N_9  and  N_10 
REMARK       I    between atoms: N_10  and  C_11 
REMARK    3  A    between atoms: C_11  and  C_12 
REMARK    4  A    between atoms: C_16  and  C_17 
ROOT
HETATM    1  N   UNL     1       7.473  31.570  60.077  1.00  0.00    -0.242 N 
HETATM    2  C   UNL     1       8.557  31.474  59.217  1.00  0.00     0.289 C 
HETATM    3  O   UNL     1       9.429  32.331  59.102  1.00  0.00    -0.264 OA
HETATM    4  H   UNL     1       6.765  30.848  60.091  1.00  0.00     0.192 HD
ENDROOT
BRANCH   1   5
HETATM    5  N   UNL     1       7.314  32.681  60.857  1.00  0.00    -0.183 NA
HETATM    6  C   UNL     1       6.286  32.681  61.642  1.00  0.00     0.153 C 
BRANCH   6   7
HETATM    7  C   UNL     1       6.023  33.817  62.507  1.00  0.00     0.018 A 
HETATM    8  C   UNL     1       6.587  34.072  63.751  1.00  0.00     0.018 A 
HETATM    9  C   UNL     1       7.584  33.308  64.551  1.00  0.00     0.069 C 
HETATM   10  N   UNL     1       6.058  35.250  64.217  1.00  0.00    -0.358 N 
HETATM   11  H   UNL     1       6.290  35.679  65.101  1.00  0.00     0.166 HD
HETATM   12  C   UNL     1       5.167  35.773  63.312  1.00  0.00     0.043 A 
HETATM   13  C   UNL     1       5.121  34.898  62.227  1.00  0.00     0.004 A 
HETATM   14  C   UNL     1       4.406  36.947  63.378  1.00  0.00     0.030 A 
HETATM   15  C   UNL     1       4.266  35.218  61.149  1.00  0.00     0.014 A 
HETATM   16  C   UNL     1       3.499  36.388  61.197  1.00  0.00     0.001 A 
HETATM   17  C   UNL     1       3.569  37.238  62.297  1.00  0.00     0.002 A 
ENDBRANCH   6   7
ENDBRANCH   1   5
BRANCH   2  18
HETATM   18  C   UNL     1       8.590  30.270  58.425  1.00  0.00     0.121 A 
HETATM   19  N   UNL     1       9.706  29.920  57.717  1.00  0.00    -0.272 N 
HETATM   20  H   UNL     1      10.583  30.432  57.677  1.00  0.00     0.189 HD
HETATM   21  N   UNL     1       9.581  28.779  57.023  1.00  0.00    -0.174 NA
HETATM   22  C   UNL     1       8.327  28.367  57.268  1.00  0.00     0.091 A 
HETATM   23  C   UNL     1       7.684  29.258  58.172  1.00  0.00     0.071 A 
BRANCH  22  24
HETATM   24  C   UNL     1       7.813  27.127  56.681  1.00  0.00     0.016 A 
HETATM   25  C   UNL     1       7.540  26.964  55.313  1.00  0.00     0.046 A 
HETATM   26 CL   UNL     1       7.840  28.193  54.129  1.00  0.00    -0.083 Cl
HETATM   27  C   UNL     1       7.033  25.749  54.830  1.00  0.00     0.025 A 
HETATM   28  C   UNL     1       6.801  24.683  55.700  1.00  0.00     0.002 A 
HETATM   29  C   UNL     1       7.081  24.824  57.055  1.00  0.00     0.001 A 
HETATM   30  C   UNL     1       7.583  26.034  57.540  1.00  0.00     0.015 A 
ENDBRANCH  22  24
ENDBRANCH   2  18
TORSDOF 4
ENDMDL
MODEL 8
REMARK VINA RESULT:      -9.0      3.445      4.558
REMARK  4 active torsions:
REMARK  status: ('A' for Active; 'I' for Inactive)
REMARK    1  A    between atoms: C_7  and  C_8 
REMARK    2  A    between atoms: N_9  and  N_10 
REMARK       I    between atoms: N_10  and  C_11 
REMARK    3  A    between atoms: C_11  and  C_12 
REMARK    4  A    between atoms: C_16  and  C_17 
ROOT
HETATM    1  N   UNL     1       6.916  31.372  59.321  1.00  0.00    -0.242 N 
HETATM    2  C   UNL     1       7.894  32.155  59.916  1.00  0.00     0.289 C 
HETATM    3  O   UNL     1       8.897  32.567  59.341  1.00  0.00    -0.264 OA
HETATM    4  H   UNL     1       6.134  31.027  59.863  1.00  0.00     0.192 HD
ENDROOT
BRANCH   1   5
HETATM    5  N   UNL     1       7.043  30.994  58.013  1.00  0.00    -0.183 NA
HETATM    6  C   UNL     1       7.477  29.793  57.809  1.00  0.00     0.153 C 
BRANCH   6   7
HETATM    7  C   UNL     1       7.654  29.296  56.456  1.00  0.00     0.018 A 
HETATM    8  C   UNL     1       8.836  29.248  55.729  1.00  0.00     0.018 A 
HETATM    9  C   UNL     1      10.222  29.665  56.080  1.00  0.00     0.069 C 
HETATM   10  N   UNL     1       8.550  28.707  54.500  1.00  0.00    -0.358 N 
HETATM   11  H   UNL     1       9.224  28.553  53.764  1.00  0.00     0.166 HD
HETATM   12  C   UNL     1       7.215  28.398  54.405  1.00  0.00     0.043 A 
HETATM   13  C   UNL     1       6.623  28.755  55.616  1.00  0.00     0.004 A 
HETATM   14  C   UNL     1       6.497  27.834  53.343  1.00  0.00     0.030 A 
HETATM   15  C   UNL     1       5.237  28.533  55.770  1.00  0.00     0.014 A 
HETATM   16  C   UNL     1       4.504  27.970  54.720  1.00  0.00     0.001 A 
HETATM   17  C   UNL     1       5.127  27.626  53.524  1.00  0.00     0.002 A 
ENDBRANCH   6   7
ENDBRANCH   1   5
BRANCH   2  18
HETATM   18  C   UNL     1       7.659  32.454  61.307  1.00  0.00     0.121 A 
HETATM   19  N   UNL     1       8.598  32.169  62.259  1.00  0.00    -0.272 N 
HETATM   20  H   UNL     1       9.510  31.749  62.103  1.00  0.00     0.189 HD
HETATM   21  N   UNL     1       8.232  32.496  63.507  1.00  0.00    -0.174 NA
HETATM   22  C   UNL     1       6.995  33.002  63.377  1.00  0.00     0.091 A 
HETATM   23  C   UNL     1       6.614  33.025  62.006  1.00  0.00     0.071 A 
BRANCH  22  24
HETATM   24  C   UNL     1       6.253  33.488  64.543  1.00  0.00     0.016 A 
HETATM   25  C   UNL     1       4.868  33.725  64.545  1.00  0.00     0.046 A 
HETATM   26 CL   UNL     1       3.847  33.411  63.182  1.00  0.00    -0.083 Cl
HETATM   27  C   UNL     1       4.233  34.206  65.700  1.00  0.00     0.025 A 
HETATM   28  C   UNL     1       4.965  34.446  66.863  1.00  0.00     0.002 A 
HETATM   29  C   UNL     1       6.333  34.202  66.881  1.00  0.00     0.001 A 
HETATM   30  C   UNL     1       6.970  33.726  65.732  1.00  0.00     0.015 A 
ENDBRANCH  22  24
ENDBRANCH   2  18
TORSDOF 4
ENDMDL
MODEL 9
REMARK VINA RESULT:      -8.9      7.517     14.788
REMARK  4 active torsions:
REMARK  status: ('A' for Active; 'I' for Inactive)
REMARK    1  A    between atoms: C_7  and  C_8 
REMARK    2  A    between atoms: N_9  and  N_10 
REMARK       I    between atoms: N_10  and  C_11 
REMARK    3  A    between atoms: C_11  and  C_12 
REMARK    4  A    between atoms: C_16  and  C_17 
ROOT
HETATM    1  N   UNL     1       6.348  34.198  67.709  1.00  0.00    -0.242 N 
HETATM    2  C   UNL     1       5.299  34.220  66.802  1.00  0.00     0.289 C 
HETATM    3  O   UNL     1       4.175  34.647  67.052  1.00  0.00    -0.264 OA
HETATM    4  H   UNL     1       7.239  33.792  67.454  1.00  0.00     0.192 HD
ENDROOT
BRANCH   1   5
HETATM    5  N   UNL     1       6.160  34.656  68.984  1.00  0.00    -0.183 NA
HETATM    6  C   UNL     1       7.234  34.902  69.662  1.00  0.00     0.153 C 
BRANCH   6   7
HETATM    7  C   UNL     1       7.145  35.386  71.028  1.00  0.00     0.018 A 
HETATM    8  C   UNL     1       6.634  34.707  72.126  1.00  0.00     0.018 A 
HETATM    9  C   UNL     1       6.048  33.344  72.252  1.00  0.00     0.069 C 
HETATM   10  N   UNL     1       6.743  35.533  73.217  1.00  0.00    -0.358 N 
HETATM   11  H   UNL     1       6.448  35.297  74.154  1.00  0.00     0.166 HD
HETATM   12  C   UNL     1       7.312  36.732  72.863  1.00  0.00     0.043 A 
HETATM   13  C   UNL     1       7.577  36.673  71.495  1.00  0.00     0.004 A 
HETATM   14  C   UNL     1       7.608  37.853  73.649  1.00  0.00     0.030 A 
HETATM   15  C   UNL     1       8.172  37.798  70.883  1.00  0.00     0.014 A 
HETATM   16  C   UNL     1       8.475  38.926  71.654  1.00  0.00     0.001 A 
HETATM   17  C   UNL     1       8.196  38.951  73.017  1.00  0.00     0.002 A 
ENDBRANCH   6   7
ENDBRANCH   1   5
BRANCH   2  18
HETATM   18  C   UNL     1       5.617  33.677  65.504  1.00  0.00     0.121 A 
HETATM   19  N   UNL     1       4.663  33.063  64.743  1.00  0.00    -0.272 N 
HETATM   20  H   UNL     1       3.684  32.935  64.986  1.00  0.00     0.189 HD
HETATM   21  N   UNL     1       5.111  32.602  63.566  1.00  0.00    -0.174 NA
HETATM   22  C   UNL     1       6.418  32.908  63.556  1.00  0.00     0.091 A 
HETATM   23  C   UNL     1       6.766  33.615  64.742  1.00  0.00     0.071 A 
BRANCH  22  24
HETATM   24  C   UNL     1       7.265  32.567  62.410  1.00  0.00     0.016 A 
HETATM   25  C   UNL     1       6.867  32.720  61.072  1.00  0.00     0.046 A 
HETATM   26 CL   UNL     1       5.343  33.396  60.603  1.00  0.00    -0.083 Cl
HETATM   27  C   UNL     1       7.732  32.356  60.029  1.00  0.00     0.025 A 
HETATM   28  C   UNL     1       8.999  31.845  60.307  1.00  0.00     0.002 A 
HETATM   29  C   UNL     1       9.413  31.702  61.626  1.00  0.00     0.001 A 
HETATM   30  C   UNL     1       8.554  32.061  62.668  1.00  0.00     0.015 A 
ENDBRANCH  22  24
ENDBRANCH   2  18
TORSDOF 4
ENDMDL
MODEL 10
REMARK VINA RESULT:      -8.7      6.239     11.196
REMARK  4 active torsions:
REMARK  status: ('A' for Active; 'I' for Inactive)
REMARK    1  A    between atoms: C_7  and  C_8 
REMARK    2  A    between atoms: N_9  and  N_10 
REMARK       I    between atoms: N_10  and  C_11 
REMARK    3  A    between atoms: C_11  and  C_12 
REMARK    4  A    between atoms: C_16  and  C_17 
ROOT
HETATM    1  N   UNL     1       5.020  25.710  51.111  1.00  0.00    -0.242 N 
HETATM    2  C   UNL     1       4.978  26.925  50.444  1.00  0.00     0.289 C 
HETATM    3  O   UNL     1       5.742  27.862  50.660  1.00  0.00    -0.264 OA
HETATM    4  H   UNL     1       4.333  24.994  50.916  1.00  0.00     0.192 HD
ENDROOT
BRANCH   1   5
HETATM    5  N   UNL     1       5.947  25.500  52.094  1.00  0.00    -0.183 NA
HETATM    6  C   UNL     1       5.738  24.481  52.863  1.00  0.00     0.153 C 
BRANCH   6   7
HETATM    7  C   UNL     1       6.660  24.175  53.942  1.00  0.00     0.018 A 
HETATM    8  C   UNL     1       7.571  23.128  53.995  1.00  0.00     0.018 A 
HETATM    9  C   UNL     1       7.879  22.046  53.019  1.00  0.00     0.069 C 
HETATM   10  N   UNL     1       8.238  23.213  55.191  1.00  0.00    -0.358 N 
HETATM   11  H   UNL     1       8.961  22.577  55.498  1.00  0.00     0.166 HD
HETATM   12  C   UNL     1       7.790  24.286  55.922  1.00  0.00     0.043 A 
HETATM   13  C   UNL     1       6.799  24.912  55.166  1.00  0.00     0.004 A 
HETATM   14  C   UNL     1       8.187  24.742  57.185  1.00  0.00     0.030 A 
HETATM   15  C   UNL     1       6.174  26.058  55.707  1.00  0.00     0.014 A 
HETATM   16  C   UNL     1       6.559  26.528  56.967  1.00  0.00     0.001 A 
HETATM   17  C   UNL     1       7.551  25.877  57.694  1.00  0.00     0.002 A 
ENDBRANCH   6   7
ENDBRANCH   1   5
BRANCH   2  18
HETATM   18  C   UNL     1       3.933  27.031  49.456  1.00  0.00     0.121 A 
HETATM   19  N   UNL     1       3.492  25.931  48.774  1.00  0.00    -0.272 N 
HETATM   20  H   UNL     1       3.824  24.977  48.884  1.00  0.00     0.189 HD
HETATM   21  N   UNL     1       2.523  26.189  47.883  1.00  0.00    -0.174 NA
HETATM   22  C   UNL     1       2.327  27.514  47.967  1.00  0.00     0.091 A 
HETATM   23  C   UNL     1       3.170  28.073  48.969  1.00  0.00     0.071 A 
BRANCH  22  24
HETATM   24  C   UNL     1       1.321  28.183  47.139  1.00  0.00     0.016 A 
HETATM   25  C   UNL     1       1.483  29.469  46.598  1.00  0.00     0.046 A 
HETATM   26 CL   UNL     1       2.926  30.408  46.790  1.00  0.00    -0.083 Cl
HETATM   27  C   UNL     1       0.465  30.047  45.826  1.00  0.00     0.025 A 
HETATM   28  C   UNL     1      -0.717  29.350  45.577  1.00  0.00     0.002 A 
HETATM   29  C   UNL     1      -0.886  28.070  46.092  1.00  0.00     0.001 A 
HETATM   30  C   UNL     1       0.124  27.492  46.864  1.00  0.00     0.015 A 
ENDBRANCH  22  24
ENDBRANCH   2  18
TORSDOF 4
ENDMDL
