MODEL 1
REMARK VINA RESULT:      -8.6      0.000      0.000
REMARK  7 active torsions:
REMARK  status: ('A' for Active; 'I' for Inactive)
REMARK    1  A    between atoms: O_2  and  C_3 
REMARK    2  A    between atoms: C_4  and  O_5 
REMARK    3  A    between atoms: C_7  and  C_8 
REMARK       I    between atoms: C_8  and  N_9 
REMARK    4  A    between atoms: N_9  and  C_10 
REMARK    5  A    between atoms: C_10  and  C_11 
REMARK    6  A    between atoms: C_11  and  N_12 
REMARK    7  A    between atoms: C_11  and  C_18 
ROOT
HETATM    1  C   UNL     1       5.839  27.026  56.582  1.00  0.00     0.239 C 
ENDROOT
BRANCH   1   2
HETATM    2  C   UNL     1       5.741  25.477  56.796  1.00  0.00     0.161 C 
BRANCH   2   3
HETATM    3  N   UNL     1       6.887  24.803  57.387  1.00  0.00    -0.354 N 
HETATM    4  C   UNL     1       7.930  24.148  56.772  1.00  0.00     0.254 C 
HETATM    5  O   UNL     1       8.914  23.843  57.434  1.00  0.00    -0.268 OA
HETATM    6  H   UNL     1       7.158  25.068  58.331  1.00  0.00     0.162 HD
BRANCH   4   7
HETATM    7  C   UNL     1       7.852  23.788  55.341  1.00  0.00     0.068 A 
HETATM    8  C   UNL     1       7.643  22.442  54.970  1.00  0.00     0.117 A 
HETATM    9  C   UNL     1       7.682  22.120  53.603  1.00  0.00     0.102 A 
HETATM   10  C   UNL     1       7.813  23.142  52.649  1.00  0.00     0.040 A 
HETATM   11  C   UNL     1       7.989  24.470  53.034  1.00  0.00     0.004 A 
HETATM   12  C   UNL     1       8.039  24.793  54.385  1.00  0.00     0.020 A 
BRANCH   8  13
HETATM   13  O   UNL     1       7.378  21.595  56.016  1.00  0.00    -0.352 OA
HETATM   14  C   UNL     1       8.364  20.670  56.447  1.00  0.00     0.210 C 
ENDBRANCH   8  13
BRANCH   9  15
HETATM   15  O   UNL     1       7.526  20.820  53.197  1.00  0.00    -0.353 OA
HETATM   16  C   UNL     1       8.748  20.173  52.826  1.00  0.00     0.210 C 
ENDBRANCH   9  15
ENDBRANCH   4   7
ENDBRANCH   2   3
ENDBRANCH   1   2
BRANCH   1  17
HETATM   17  N   UNL     1       7.258  27.586  56.688  1.00  0.00    -0.061 N 
HETATM   18  H   UNL     1       7.841  26.750  56.830  1.00  0.00     0.280 HD
HETATM   19  C   UNL     1       7.580  28.494  57.854  1.00  0.00     0.236 C 
HETATM   20  C   UNL     1       8.017  29.794  57.210  1.00  0.00     0.029 C 
HETATM   21  C   UNL     1       8.718  29.335  55.949  1.00  0.00     0.029 C 
HETATM   22  C   UNL     1       7.803  28.240  55.434  1.00  0.00     0.236 C 
ENDBRANCH   1  17
BRANCH   1  23
HETATM   23  C   UNL     1       5.185  27.495  55.277  1.00  0.00    -0.015 A 
HETATM   24  C   UNL     1       4.549  28.776  55.184  1.00  0.00    -0.018 A 
HETATM   25  C   UNL     1       3.975  29.159  53.941  1.00  0.00    -0.025 A 
HETATM   26  C   UNL     1       4.439  29.708  56.249  1.00  0.00     0.013 A 
HETATM   27  C   UNL     1       3.337  30.401  53.800  1.00  0.00     0.012 A 
HETATM   28  C   UNL     1       4.036  28.301  52.837  1.00  0.00     0.012 A 
HETATM   29  C   UNL     1       3.253  31.289  54.867  1.00  0.00     0.001 A 
HETATM   30  C   UNL     1       3.803  30.943  56.091  1.00  0.00     0.001 A 
HETATM   31  C   UNL     1       4.664  27.069  52.929  1.00  0.00     0.002 A 
HETATM   32  C   UNL     1       5.240  26.673  54.131  1.00  0.00     0.010 A 
ENDBRANCH   1  23
TORSDOF 7
ENDMDL
MODEL 2
REMARK VINA RESULT:      -8.6      1.450      4.007
REMARK  7 active torsions:
REMARK  status: ('A' for Active; 'I' for Inactive)
REMARK    1  A    between atoms: O_2  and  C_3 
REMARK    2  A    between atoms: C_4  and  O_5 
REMARK    3  A    between atoms: C_7  and  C_8 
REMARK       I    between atoms: C_8  and  N_9 
REMARK    4  A    between atoms: N_9  and  C_10 
REMARK    5  A    between atoms: C_10  and  C_11 
REMARK    6  A    between atoms: C_11  and  N_12 
REMARK    7  A    between atoms: C_11  and  C_18 
ROOT
HETATM    1  C   UNL     1       6.827  27.735  55.814  1.00  0.00     0.239 C 
ENDROOT
BRANCH   1   2
HETATM    2  C   UNL     1       6.354  26.435  56.549  1.00  0.00     0.161 C 
BRANCH   2   3
HETATM    3  N   UNL     1       7.365  25.634  57.224  1.00  0.00    -0.354 N 
HETATM    4  C   UNL     1       8.224  24.691  56.706  1.00  0.00     0.254 C 
HETATM    5  O   UNL     1       9.155  24.292  57.394  1.00  0.00    -0.268 OA
HETATM    6  H   UNL     1       7.727  25.978  58.110  1.00  0.00     0.162 HD
BRANCH   4   7
HETATM    7  C   UNL     1       8.008  24.143  55.351  1.00  0.00     0.068 A 
HETATM    8  C   UNL     1       7.788  22.758  55.185  1.00  0.00     0.117 A 
HETATM    9  C   UNL     1       7.695  22.256  53.876  1.00  0.00     0.102 A 
HETATM   10  C   UNL     1       7.711  23.142  52.786  1.00  0.00     0.040 A 
HETATM   11  C   UNL     1       7.900  24.511  52.972  1.00  0.00     0.004 A 
HETATM   12  C   UNL     1       8.080  25.012  54.256  1.00  0.00     0.020 A 
BRANCH   8  13
HETATM   13  O   UNL     1       7.645  22.057  56.355  1.00  0.00    -0.352 OA
HETATM   14  C   UNL     1       8.503  20.962  56.635  1.00  0.00     0.210 C 
ENDBRANCH   8  13
BRANCH   9  15
HETATM   15  O   UNL     1       7.523  20.914  53.663  1.00  0.00    -0.353 OA
HETATM   16  C   UNL     1       8.502  20.328  52.799  1.00  0.00     0.210 C 
ENDBRANCH   9  15
ENDBRANCH   4   7
ENDBRANCH   2   3
ENDBRANCH   1   2
BRANCH   1  17
HETATM   17  N   UNL     1       5.954  28.136  54.624  1.00  0.00    -0.061 N 
HETATM   18  H   UNL     1       5.657  29.095  54.849  1.00  0.00     0.280 HD
HETATM   19  C   UNL     1       4.671  27.371  54.391  1.00  0.00     0.236 C 
HETATM   20  C   UNL     1       4.827  26.783  53.004  1.00  0.00     0.029 C 
HETATM   21  C   UNL     1       5.624  27.841  52.270  1.00  0.00     0.029 C 
HETATM   22  C   UNL     1       6.670  28.246  53.291  1.00  0.00     0.236 C 
ENDBRANCH   1  17
BRANCH   1  23
HETATM   23  C   UNL     1       7.008  28.928  56.759  1.00  0.00    -0.015 A 
HETATM   24  C   UNL     1       8.310  29.443  57.063  1.00  0.00    -0.018 A 
HETATM   25  C   UNL     1       8.409  30.563  57.934  1.00  0.00    -0.025 A 
HETATM   26  C   UNL     1       9.529  28.917  56.563  1.00  0.00     0.013 A 
HETATM   27  C   UNL     1       9.661  31.101  58.267  1.00  0.00     0.012 A 
HETATM   28  C   UNL     1       7.257  31.145  58.475  1.00  0.00     0.012 A 
HETATM   29  C   UNL     1      10.834  30.559  57.753  1.00  0.00     0.001 A 
HETATM   30  C   UNL     1      10.769  29.468  56.901  1.00  0.00     0.001 A 
HETATM   31  C   UNL     1       5.999  30.651  58.167  1.00  0.00     0.002 A 
HETATM   32  C   UNL     1       5.873  29.562  57.312  1.00  0.00     0.010 A 
ENDBRANCH   1  23
TORSDOF 7
ENDMDL
MODEL 3
REMARK VINA RESULT:      -8.4      2.880      7.428
REMARK  7 active torsions:
REMARK  status: ('A' for Active; 'I' for Inactive)
REMARK    1  A    between atoms: O_2  and  C_3 
REMARK    2  A    between atoms: C_4  and  O_5 
REMARK    3  A    between atoms: C_7  and  C_8 
REMARK       I    between atoms: C_8  and  N_9 
REMARK    4  A    between atoms: N_9  and  C_10 
REMARK    5  A    between atoms: C_10  and  C_11 
REMARK    6  A    between atoms: C_11  and  N_12 
REMARK    7  A    between atoms: C_11  and  C_18 
ROOT
HETATM    1  C   UNL     1       6.679  25.730  55.817  1.00  0.00     0.239 C 
ENDROOT
BRANCH   1   2
HETATM    2  C   UNL     1       7.752  26.723  56.381  1.00  0.00     0.161 C 
BRANCH   2   3
HETATM    3  N   UNL     1       8.355  27.667  55.452  1.00  0.00    -0.354 N 
HETATM    4  C   UNL     1       8.693  28.987  55.642  1.00  0.00     0.254 C 
HETATM    5  O   UNL     1       9.397  29.547  54.811  1.00  0.00    -0.268 OA
HETATM    6  H   UNL     1       8.877  27.288  54.665  1.00  0.00     0.162 HD
BRANCH   4   7
HETATM    7  C   UNL     1       8.188  29.730  56.815  1.00  0.00     0.068 A 
HETATM    8  C   UNL     1       8.995  29.845  57.968  1.00  0.00     0.117 A 
HETATM    9  C   UNL     1       8.442  30.463  59.103  1.00  0.00     0.102 A 
HETATM   10  C   UNL     1       7.165  31.041  59.029  1.00  0.00     0.040 A 
HETATM   11  C   UNL     1       6.394  30.942  57.872  1.00  0.00     0.004 A 
HETATM   12  C   UNL     1       6.893  30.258  56.770  1.00  0.00     0.020 A 
BRANCH   8  13
HETATM   13  O   UNL     1      10.272  29.365  57.823  1.00  0.00    -0.352 OA
HETATM   14  C   UNL     1      11.338  30.258  57.543  1.00  0.00     0.210 C 
ENDBRANCH   8  13
BRANCH   9  15
HETATM   15  O   UNL     1       9.173  30.562  60.258  1.00  0.00    -0.353 OA
HETATM   16  C   UNL     1       9.480  31.906  60.642  1.00  0.00     0.210 C 
ENDBRANCH   9  15
ENDBRANCH   4   7
ENDBRANCH   2   3
ENDBRANCH   1   2
BRANCH   1  17
HETATM   17  N   UNL     1       5.303  26.357  55.588  1.00  0.00    -0.061 N 
HETATM   18  H   UNL     1       4.653  25.565  55.688  1.00  0.00     0.280 HD
HETATM   19  C   UNL     1       5.004  26.942  54.226  1.00  0.00     0.236 C 
HETATM   20  C   UNL     1       4.692  28.399  54.502  1.00  0.00     0.029 C 
HETATM   21  C   UNL     1       4.009  28.355  55.852  1.00  0.00     0.029 C 
HETATM   22  C   UNL     1       4.859  27.366  56.628  1.00  0.00     0.236 C 
ENDBRANCH   1  17
BRANCH   1  23
HETATM   23  C   UNL     1       7.141  25.000  54.551  1.00  0.00    -0.015 A 
HETATM   24  C   UNL     1       7.428  23.596  54.567  1.00  0.00    -0.018 A 
HETATM   25  C   UNL     1       7.837  22.975  53.355  1.00  0.00    -0.025 A 
HETATM   26  C   UNL     1       7.340  22.761  55.711  1.00  0.00     0.013 A 
HETATM   27  C   UNL     1       8.134  21.604  53.319  1.00  0.00     0.012 A 
HETATM   28  C   UNL     1       7.952  23.723  52.178  1.00  0.00     0.012 A 
HETATM   29  C   UNL     1       8.032  20.818  54.462  1.00  0.00     0.001 A 
HETATM   30  C   UNL     1       7.635  21.396  55.658  1.00  0.00     0.001 A 
HETATM   31  C   UNL     1       7.662  25.078  52.165  1.00  0.00     0.002 A 
HETATM   32  C   UNL     1       7.252  25.709  53.335  1.00  0.00     0.010 A 
ENDBRANCH   1  23
TORSDOF 7
ENDMDL
MODEL 4
REMARK VINA RESULT:      -8.3      3.570      5.481
REMARK  7 active torsions:
REMARK  status: ('A' for Active; 'I' for Inactive)
REMARK    1  A    between atoms: O_2  and  C_3 
REMARK    2  A    between atoms: C_4  and  O_5 
REMARK    3  A    between atoms: C_7  and  C_8 
REMARK       I    between atoms: C_8  and  N_9 
REMARK    4  A    between atoms: N_9  and  C_10 
REMARK    5  A    between atoms: C_10  and  C_11 
REMARK    6  A    between atoms: C_11  and  N_12 
REMARK    7  A    between atoms: C_11  and  C_18 
ROOT
HETATM    1  C   UNL     1       4.416  28.943  51.720  1.00  0.00     0.239 C 
ENDROOT
BRANCH   1   2
HETATM    2  C   UNL     1       4.992  28.159  52.948  1.00  0.00     0.161 C 
BRANCH   2   3
HETATM    3  N   UNL     1       6.269  28.597  53.492  1.00  0.00    -0.354 N 
HETATM    4  C   UNL     1       7.426  27.880  53.697  1.00  0.00     0.254 C 
HETATM    5  O   UNL     1       8.461  28.481  53.952  1.00  0.00    -0.268 OA
HETATM    6  H   UNL     1       6.483  29.591  53.453  1.00  0.00     0.162 HD
BRANCH   4   7
HETATM    7  C   UNL     1       7.413  26.403  53.642  1.00  0.00     0.068 A 
HETATM    8  C   UNL     1       7.128  25.664  54.811  1.00  0.00     0.117 A 
HETATM    9  C   UNL     1       7.231  24.264  54.749  1.00  0.00     0.102 A 
HETATM   10  C   UNL     1       7.500  23.638  53.521  1.00  0.00     0.040 A 
HETATM   11  C   UNL     1       7.749  24.385  52.370  1.00  0.00     0.004 A 
HETATM   12  C   UNL     1       7.736  25.773  52.435  1.00  0.00     0.020 A 
BRANCH   8  13
HETATM   13  O   UNL     1       6.733  26.421  55.885  1.00  0.00    -0.352 OA
HETATM   14  C   UNL     1       5.371  26.430  56.283  1.00  0.00     0.210 C 
ENDBRANCH   8  13
BRANCH   9  15
HETATM   15  O   UNL     1       7.004  23.507  55.868  1.00  0.00    -0.353 OA
HETATM   16  C   UNL     1       8.195  23.108  56.556  1.00  0.00     0.210 C 
ENDBRANCH   9  15
ENDBRANCH   4   7
ENDBRANCH   2   3
ENDBRANCH   1   2
BRANCH   1  17
HETATM   17  N   UNL     1       5.272  30.130  51.276  1.00  0.00    -0.061 N 
HETATM   18  H   UNL     1       6.067  30.117  51.929  1.00  0.00     0.280 HD
HETATM   19  C   UNL     1       4.684  31.518  51.397  1.00  0.00     0.236 C 
HETATM   20  C   UNL     1       4.695  32.058  49.981  1.00  0.00     0.029 C 
HETATM   21  C   UNL     1       5.945  31.442  49.388  1.00  0.00     0.029 C 
HETATM   22  C   UNL     1       5.892  30.013  49.897  1.00  0.00     0.236 C 
ENDBRANCH   1  17
BRANCH   1  23
HETATM   23  C   UNL     1       4.105  28.040  50.521  1.00  0.00    -0.015 A 
HETATM   24  C   UNL     1       3.054  28.362  49.602  1.00  0.00    -0.018 A 
HETATM   25  C   UNL     1       2.827  27.491  48.501  1.00  0.00    -0.025 A 
HETATM   26  C   UNL     1       2.204  29.494  49.703  1.00  0.00     0.013 A 
HETATM   27  C   UNL     1       1.808  27.759  47.576  1.00  0.00     0.012 A 
HETATM   28  C   UNL     1       3.618  26.350  48.324  1.00  0.00     0.012 A 
HETATM   29  C   UNL     1       0.997  28.882  47.707  1.00  0.00     0.001 A 
HETATM   30  C   UNL     1       1.195  29.749  48.771  1.00  0.00     0.001 A 
HETATM   31  C   UNL     1       4.641  26.051  49.209  1.00  0.00     0.002 A 
HETATM   32  C   UNL     1       4.890  26.889  50.290  1.00  0.00     0.010 A 
ENDBRANCH   1  23
TORSDOF 7
ENDMDL
MODEL 5
REMARK VINA RESULT:      -8.2      2.834      7.481
REMARK  7 active torsions:
REMARK  status: ('A' for Active; 'I' for Inactive)
REMARK    1  A    between atoms: O_2  and  C_3 
REMARK    2  A    between atoms: C_4  and  O_5 
REMARK    3  A    between atoms: C_7  and  C_8 
REMARK       I    between atoms: C_8  and  N_9 
REMARK    4  A    between atoms: N_9  and  C_10 
REMARK    5  A    between atoms: C_10  and  C_11 
REMARK    6  A    between atoms: C_11  and  N_12 
REMARK    7  A    between atoms: C_11  and  C_18 
ROOT
HETATM    1  C   UNL     1       6.415  27.018  54.251  1.00  0.00     0.239 C 
ENDROOT
BRANCH   1   2
HETATM    2  C   UNL     1       7.473  28.060  54.750  1.00  0.00     0.161 C 
BRANCH   2   3
HETATM    3  N   UNL     1       7.986  27.907  56.103  1.00  0.00    -0.354 N 
HETATM    4  C   UNL     1       7.461  28.354  57.295  1.00  0.00     0.254 C 
HETATM    5  O   UNL     1       7.923  27.929  58.346  1.00  0.00    -0.268 OA
HETATM    6  H   UNL     1       8.636  27.144  56.279  1.00  0.00     0.162 HD
BRANCH   4   7
HETATM    7  C   UNL     1       6.376  29.357  57.308  1.00  0.00     0.068 A 
HETATM    8  C   UNL     1       6.657  30.684  57.700  1.00  0.00     0.117 A 
HETATM    9  C   UNL     1       5.583  31.584  57.805  1.00  0.00     0.102 A 
HETATM   10  C   UNL     1       4.295  31.180  57.417  1.00  0.00     0.040 A 
HETATM   11  C   UNL     1       4.043  29.873  57.003  1.00  0.00     0.004 A 
HETATM   12  C   UNL     1       5.079  28.948  56.977  1.00  0.00     0.020 A 
BRANCH   8  13
HETATM   13  O   UNL     1       7.988  30.953  57.896  1.00  0.00    -0.352 OA
HETATM   14  C   UNL     1       8.461  31.289  59.191  1.00  0.00     0.210 C 
ENDBRANCH   8  13
BRANCH   9  15
HETATM   15  O   UNL     1       5.800  32.871  58.222  1.00  0.00    -0.353 OA
HETATM   16  C   UNL     1       5.142  33.208  59.447  1.00  0.00     0.210 C 
ENDBRANCH   9  15
ENDBRANCH   4   7
ENDBRANCH   2   3
ENDBRANCH   1   2
BRANCH   1  17
HETATM   17  N   UNL     1       5.428  27.569  53.220  1.00  0.00    -0.061 N 
HETATM   18  H   UNL     1       5.482  26.895  52.444  1.00  0.00     0.280 HD
HETATM   19  C   UNL     1       5.727  28.913  52.596  1.00  0.00     0.236 C 
HETATM   20  C   UNL     1       4.532  29.771  52.957  1.00  0.00     0.029 C 
HETATM   21  C   UNL     1       3.383  28.785  52.944  1.00  0.00     0.029 C 
HETATM   22  C   UNL     1       3.972  27.572  53.641  1.00  0.00     0.236 C 
ENDBRANCH   1  17
BRANCH   1  23
HETATM   23  C   UNL     1       7.047  25.721  53.733  1.00  0.00    -0.015 A 
HETATM   24  C   UNL     1       7.440  24.677  54.632  1.00  0.00    -0.018 A 
HETATM   25  C   UNL     1       8.005  23.491  54.087  1.00  0.00    -0.025 A 
HETATM   26  C   UNL     1       7.314  24.730  56.045  1.00  0.00     0.013 A 
HETATM   27  C   UNL     1       8.411  22.442  54.925  1.00  0.00     0.012 A 
HETATM   28  C   UNL     1       8.168  23.354  52.704  1.00  0.00     0.012 A 
HETATM   29  C   UNL     1       8.268  22.530  56.306  1.00  0.00     0.001 A 
HETATM   30  C   UNL     1       7.720  23.674  56.866  1.00  0.00     0.001 A 
HETATM   31  C   UNL     1       7.774  24.361  51.838  1.00  0.00     0.002 A 
HETATM   32  C   UNL     1       7.211  25.528  52.344  1.00  0.00     0.010 A 
ENDBRANCH   1  23
TORSDOF 7
ENDMDL
MODEL 6
REMARK VINA RESULT:      -8.2      3.245      7.445
REMARK  7 active torsions:
REMARK  status: ('A' for Active; 'I' for Inactive)
REMARK    1  A    between atoms: O_2  and  C_3 
REMARK    2  A    between atoms: C_4  and  O_5 
REMARK    3  A    between atoms: C_7  and  C_8 
REMARK       I    between atoms: C_8  and  N_9 
REMARK    4  A    between atoms: N_9  and  C_10 
REMARK    5  A    between atoms: C_10  and  C_11 
REMARK    6  A    between atoms: C_11  and  N_12 
REMARK    7  A    between atoms: C_11  and  C_18 
ROOT
HETATM    1  C   UNL     1       5.577  25.681  55.259  1.00  0.00     0.239 C 
ENDROOT
BRANCH   1   2
HETATM    2  C   UNL     1       4.799  26.673  56.190  1.00  0.00     0.161 C 
BRANCH   2   3
HETATM    3  N   UNL     1       4.406  27.958  55.631  1.00  0.00    -0.354 N 
HETATM    4  C   UNL     1       5.139  29.116  55.497  1.00  0.00     0.254 C 
HETATM    5  O   UNL     1       4.703  30.019  54.795  1.00  0.00    -0.268 OA
HETATM    6  H   UNL     1       3.621  27.972  54.984  1.00  0.00     0.162 HD
BRANCH   4   7
HETATM    7  C   UNL     1       6.420  29.280  56.215  1.00  0.00     0.068 A 
HETATM    8  C   UNL     1       6.419  29.758  57.544  1.00  0.00     0.117 A 
HETATM    9  C   UNL     1       7.658  30.005  58.158  1.00  0.00     0.102 A 
HETATM   10  C   UNL     1       8.847  29.672  57.489  1.00  0.00     0.040 A 
HETATM   11  C   UNL     1       8.827  29.173  56.187  1.00  0.00     0.004 A 
HETATM   12  C   UNL     1       7.612  29.005  55.534  1.00  0.00     0.020 A 
BRANCH   8  13
HETATM   13  O   UNL     1       5.174  29.885  58.104  1.00  0.00    -0.352 OA
HETATM   14  C   UNL     1       4.590  31.171  58.251  1.00  0.00     0.210 C 
ENDBRANCH   8  13
BRANCH   9  15
HETATM   15  O   UNL     1       7.708  30.507  59.431  1.00  0.00    -0.353 OA
HETATM   16  C   UNL     1       9.033  30.665  59.947  1.00  0.00     0.210 C 
ENDBRANCH   9  15
ENDBRANCH   4   7
ENDBRANCH   2   3
ENDBRANCH   1   2
BRANCH   1  17
HETATM   17  N   UNL     1       5.888  26.238  53.869  1.00  0.00    -0.061 N 
HETATM   18  H   UNL     1       5.751  27.253  53.975  1.00  0.00     0.280 HD
HETATM   19  C   UNL     1       4.988  25.836  52.723  1.00  0.00     0.236 C 
HETATM   20  C   UNL     1       5.914  25.155  51.736  1.00  0.00     0.029 C 
HETATM   21  C   UNL     1       7.212  25.918  51.899  1.00  0.00     0.029 C 
HETATM   22  C   UNL     1       7.322  26.079  53.403  1.00  0.00     0.236 C 
ENDBRANCH   1  17
BRANCH   1  23
HETATM   23  C   UNL     1       6.854  25.128  55.902  1.00  0.00    -0.015 A 
HETATM   24  C   UNL     1       7.479  23.938  55.406  1.00  0.00    -0.018 A 
HETATM   25  C   UNL     1       8.671  23.487  56.037  1.00  0.00    -0.025 A 
HETATM   26  C   UNL     1       6.998  23.158  54.322  1.00  0.00     0.013 A 
HETATM   27  C   UNL     1       9.319  22.325  55.592  1.00  0.00     0.012 A 
HETATM   28  C   UNL     1       9.216  24.194  57.114  1.00  0.00     0.012 A 
HETATM   29  C   UNL     1       8.818  21.588  54.523  1.00  0.00     0.001 A 
HETATM   30  C   UNL     1       7.658  22.005  53.889  1.00  0.00     0.001 A 
HETATM   31  C   UNL     1       8.613  25.351  57.582  1.00  0.00     0.002 A 
HETATM   32  C   UNL     1       7.451  25.820  56.978  1.00  0.00     0.010 A 
ENDBRANCH   1  23
TORSDOF 7
ENDMDL
MODEL 7
REMARK VINA RESULT:      -8.2      3.846      7.114
REMARK  7 active torsions:
REMARK  status: ('A' for Active; 'I' for Inactive)
REMARK    1  A    between atoms: O_2  and  C_3 
REMARK    2  A    between atoms: C_4  and  O_5 
REMARK    3  A    between atoms: C_7  and  C_8 
REMARK       I    between atoms: C_8  and  N_9 
REMARK    4  A    between atoms: N_9  and  C_10 
REMARK    5  A    between atoms: C_10  and  C_11 
REMARK    6  A    between atoms: C_11  and  N_12 
REMARK    7  A    between atoms: C_11  and  C_18 
ROOT
HETATM    1  C   UNL     1       5.956  28.308  54.524  1.00  0.00     0.239 C 
ENDROOT
BRANCH   1   2
HETATM    2  C   UNL     1       5.261  28.406  53.123  1.00  0.00     0.161 C 
BRANCH   2   3
HETATM    3  N   UNL     1       5.954  29.140  52.075  1.00  0.00    -0.354 N 
HETATM    4  C   UNL     1       5.446  29.746  50.948  1.00  0.00     0.254 C 
HETATM    5  O   UNL     1       6.160  30.506  50.307  1.00  0.00    -0.268 OA
HETATM    6  H   UNL     1       6.864  29.536  52.297  1.00  0.00     0.162 HD
BRANCH   4   7
HETATM    7  C   UNL     1       4.068  29.459  50.498  1.00  0.00     0.068 A 
HETATM    8  C   UNL     1       3.817  28.323  49.697  1.00  0.00     0.117 A 
HETATM    9  C   UNL     1       2.516  28.141  49.198  1.00  0.00     0.102 A 
HETATM   10  C   UNL     1       1.489  29.014  49.591  1.00  0.00     0.040 A 
HETATM   11  C   UNL     1       1.751  30.114  50.407  1.00  0.00     0.004 A 
HETATM   12  C   UNL     1       3.050  30.357  50.839  1.00  0.00     0.020 A 
BRANCH   8  13
HETATM   13  O   UNL     1       4.894  27.489  49.535  1.00  0.00    -0.352 OA
HETATM   14  C   UNL     1       4.904  26.215  50.159  1.00  0.00     0.210 C 
ENDBRANCH   8  13
BRANCH   9  15
HETATM   15  O   UNL     1       2.234  27.076  48.383  1.00  0.00    -0.353 OA
HETATM   16  C   UNL     1       0.963  27.160  47.731  1.00  0.00     0.210 C 
ENDBRANCH   9  15
ENDBRANCH   4   7
ENDBRANCH   2   3
ENDBRANCH   1   2
BRANCH   1  17
HETATM   17  N   UNL     1       5.325  29.191  55.601  1.00  0.00    -0.061 N 
HETATM   18  H   UNL     1       5.002  28.519  56.311  1.00  0.00     0.280 HD
HETATM   19  C   UNL     1       4.099  29.996  55.235  1.00  0.00     0.236 C 
HETATM   20  C   UNL     1       4.505  31.435  55.481  1.00  0.00     0.029 C 
HETATM   21  C   UNL     1       5.435  31.331  56.671  1.00  0.00     0.029 C 
HETATM   22  C   UNL     1       6.277  30.114  56.336  1.00  0.00     0.236 C 
ENDBRANCH   1  17
BRANCH   1  23
HETATM   23  C   UNL     1       6.084  26.868  55.033  1.00  0.00    -0.015 A 
HETATM   24  C   UNL     1       6.765  25.867  54.265  1.00  0.00    -0.018 A 
HETATM   25  C   UNL     1       6.863  24.553  54.800  1.00  0.00    -0.025 A 
HETATM   26  C   UNL     1       7.355  26.081  52.992  1.00  0.00     0.013 A 
HETATM   27  C   UNL     1       7.515  23.538  54.085  1.00  0.00     0.012 A 
HETATM   28  C   UNL     1       6.309  24.253  56.049  1.00  0.00     0.012 A 
HETATM   29  C   UNL     1       8.084  23.788  52.841  1.00  0.00     0.001 A 
HETATM   30  C   UNL     1       8.004  25.059  52.294  1.00  0.00     0.001 A 
HETATM   31  C   UNL     1       5.663  25.228  56.793  1.00  0.00     0.002 A 
HETATM   32  C   UNL     1       5.559  26.522  56.297  1.00  0.00     0.010 A 
ENDBRANCH   1  23
TORSDOF 7
ENDMDL
MODEL 8
REMARK VINA RESULT:      -8.1      3.572      6.215
REMARK  7 active torsions:
REMARK  status: ('A' for Active; 'I' for Inactive)
REMARK    1  A    between atoms: O_2  and  C_3 
REMARK    2  A    between atoms: C_4  and  O_5 
REMARK    3  A    between atoms: C_7  and  C_8 
REMARK       I    between atoms: C_8  and  N_9 
REMARK    4  A    between atoms: N_9  and  C_10 
REMARK    5  A    between atoms: C_10  and  C_11 
REMARK    6  A    between atoms: C_11  and  N_12 
REMARK    7  A    between atoms: C_11  and  C_18 
ROOT
HETATM    1  C   UNL     1       6.812  28.892  56.476  1.00  0.00     0.239 C 
ENDROOT
BRANCH   1   2
HETATM    2  C   UNL     1       6.558  28.832  54.931  1.00  0.00     0.161 C 
BRANCH   2   3
HETATM    3  N   UNL     1       5.323  29.413  54.426  1.00  0.00    -0.354 N 
HETATM    4  C   UNL     1       4.382  28.871  53.581  1.00  0.00     0.254 C 
HETATM    5  O   UNL     1       3.301  29.432  53.455  1.00  0.00    -0.268 OA
HETATM    6  H   UNL     1       4.911  30.179  54.953  1.00  0.00     0.162 HD
BRANCH   4   7
HETATM    7  C   UNL     1       4.681  27.645  52.812  1.00  0.00     0.068 A 
HETATM    8  C   UNL     1       4.750  27.704  51.403  1.00  0.00     0.117 A 
HETATM    9  C   UNL     1       4.928  26.501  50.699  1.00  0.00     0.102 A 
HETATM   10  C   UNL     1       5.142  25.305  51.404  1.00  0.00     0.040 A 
HETATM   11  C   UNL     1       5.099  25.272  52.797  1.00  0.00     0.004 A 
HETATM   12  C   UNL     1       4.837  26.439  53.505  1.00  0.00     0.020 A 
BRANCH   8  13
HETATM   13  O   UNL     1       4.676  28.970  50.880  1.00  0.00    -0.352 OA
HETATM   14  C   UNL     1       5.788  29.517  50.188  1.00  0.00     0.210 C 
ENDBRANCH   8  13
BRANCH   9  15
HETATM   15  O   UNL     1       4.961  26.503  49.329  1.00  0.00    -0.353 OA
HETATM   16  C   UNL     1       3.688  26.284  48.714  1.00  0.00     0.210 C 
ENDBRANCH   9  15
ENDBRANCH   4   7
ENDBRANCH   2   3
ENDBRANCH   1   2
BRANCH   1  17
HETATM   17  N   UNL     1       6.642  27.552  57.193  1.00  0.00    -0.061 N 
HETATM   18  H   UNL     1       6.687  27.800  58.191  1.00  0.00     0.280 HD
HETATM   19  C   UNL     1       7.712  26.501  57.000  1.00  0.00     0.236 C 
HETATM   20  C   UNL     1       6.977  25.318  56.402  1.00  0.00     0.029 C 
HETATM   21  C   UNL     1       5.614  25.393  57.059  1.00  0.00     0.029 C 
HETATM   22  C   UNL     1       5.297  26.876  57.013  1.00  0.00     0.236 C 
ENDBRANCH   1  17
BRANCH   1  23
HETATM   23  C   UNL     1       8.164  29.516  56.840  1.00  0.00    -0.015 A 
HETATM   24  C   UNL     1       8.300  30.385  57.971  1.00  0.00    -0.018 A 
HETATM   25  C   UNL     1       9.586  30.918  58.265  1.00  0.00    -0.025 A 
HETATM   26  C   UNL     1       7.241  30.767  58.835  1.00  0.00     0.013 A 
HETATM   27  C   UNL     1       9.770  31.777  59.358  1.00  0.00     0.012 A 
HETATM   28  C   UNL     1      10.687  30.595  57.464  1.00  0.00     0.012 A 
HETATM   29  C   UNL     1       8.707  32.126  60.184  1.00  0.00     0.001 A 
HETATM   30  C   UNL     1       7.442  31.622  59.922  1.00  0.00     0.001 A 
HETATM   31  C   UNL     1      10.552  29.744  56.379  1.00  0.00     0.002 A 
HETATM   32  C   UNL     1       9.308  29.202  56.074  1.00  0.00     0.010 A 
ENDBRANCH   1  23
TORSDOF 7
ENDMDL
MODEL 9
REMARK VINA RESULT:      -8.1      3.225      6.518
REMARK  7 active torsions:
REMARK  status: ('A' for Active; 'I' for Inactive)
REMARK    1  A    between atoms: O_2  and  C_3 
REMARK    2  A    between atoms: C_4  and  O_5 
REMARK    3  A    between atoms: C_7  and  C_8 
REMARK       I    between atoms: C_8  and  N_9 
REMARK    4  A    between atoms: N_9  and  C_10 
REMARK    5  A    between atoms: C_10  and  C_11 
REMARK    6  A    between atoms: C_11  and  N_12 
REMARK    7  A    between atoms: C_11  and  C_18 
ROOT
HETATM    1  C   UNL     1       8.249  28.307  55.783  1.00  0.00     0.239 C 
ENDROOT
BRANCH   1   2
HETATM    2  C   UNL     1       7.097  29.338  55.524  1.00  0.00     0.161 C 
BRANCH   2   3
HETATM    3  N   UNL     1       5.799  29.066  56.121  1.00  0.00    -0.354 N 
HETATM    4  C   UNL     1       4.654  28.571  55.540  1.00  0.00     0.254 C 
HETATM    5  O   UNL     1       3.734  28.200  56.257  1.00  0.00    -0.268 OA
HETATM    6  H   UNL     1       5.762  28.922  57.128  1.00  0.00     0.162 HD
BRANCH   4   7
HETATM    7  C   UNL     1       4.522  28.518  54.069  1.00  0.00     0.068 A 
HETATM    8  C   UNL     1       4.226  29.699  53.352  1.00  0.00     0.117 A 
HETATM    9  C   UNL     1       4.001  29.592  51.968  1.00  0.00     0.102 A 
HETATM   10  C   UNL     1       4.182  28.357  51.325  1.00  0.00     0.040 A 
HETATM   11  C   UNL     1       4.503  27.208  52.047  1.00  0.00     0.004 A 
HETATM   12  C   UNL     1       4.644  27.280  53.427  1.00  0.00     0.020 A 
BRANCH   8  13
HETATM   13  O   UNL     1       4.237  30.844  54.106  1.00  0.00    -0.352 OA
HETATM   14  C   UNL     1       3.015  31.470  54.462  1.00  0.00     0.210 C 
ENDBRANCH   8  13
BRANCH   9  15
HETATM   15  O   UNL     1       3.671  30.703  51.237  1.00  0.00    -0.353 OA
HETATM   16  C   UNL     1       4.611  31.026  50.207  1.00  0.00     0.210 C 
ENDBRANCH   9  15
ENDBRANCH   4   7
ENDBRANCH   2   3
ENDBRANCH   1   2
BRANCH   1  17
HETATM   17  N   UNL     1       9.165  28.670  56.951  1.00  0.00    -0.061 N 
HETATM   18  H   UNL     1       9.424  27.758  57.353  1.00  0.00     0.280 HD
HETATM   19  C   UNL     1       8.576  29.454  58.102  1.00  0.00     0.236 C 
HETATM   20  C   UNL     1       9.401  30.724  58.156  1.00  0.00     0.029 C 
HETATM   21  C   UNL     1      10.779  30.257  57.735  1.00  0.00     0.029 C 
HETATM   22  C   UNL     1      10.481  29.325  56.576  1.00  0.00     0.236 C 
ENDBRANCH   1  17
BRANCH   1  23
HETATM   23  C   UNL     1       7.743  26.868  55.938  1.00  0.00    -0.015 A 
HETATM   24  C   UNL     1       7.632  25.995  54.807  1.00  0.00    -0.018 A 
HETATM   25  C   UNL     1       7.172  24.666  55.020  1.00  0.00    -0.025 A 
HETATM   26  C   UNL     1       7.943  26.353  53.470  1.00  0.00     0.013 A 
HETATM   27  C   UNL     1       7.041  23.774  53.946  1.00  0.00     0.012 A 
HETATM   28  C   UNL     1       6.842  24.228  56.308  1.00  0.00     0.012 A 
HETATM   29  C   UNL     1       7.359  24.162  52.648  1.00  0.00     0.001 A 
HETATM   30  C   UNL     1       7.810  25.451  52.410  1.00  0.00     0.001 A 
HETATM   31  C   UNL     1       6.964  25.073  57.399  1.00  0.00     0.002 A 
HETATM   32  C   UNL     1       7.418  26.375  57.220  1.00  0.00     0.010 A 
ENDBRANCH   1  23
TORSDOF 7
ENDMDL
MODEL 10
REMARK VINA RESULT:      -8.0      3.086      6.068
REMARK  7 active torsions:
REMARK  status: ('A' for Active; 'I' for Inactive)
REMARK    1  A    between atoms: O_2  and  C_3 
REMARK    2  A    between atoms: C_4  and  O_5 
REMARK    3  A    between atoms: C_7  and  C_8 
REMARK       I    between atoms: C_8  and  N_9 
REMARK    4  A    between atoms: N_9  and  C_10 
REMARK    5  A    between atoms: C_10  and  C_11 
REMARK    6  A    between atoms: C_11  and  N_12 
REMARK    7  A    between atoms: C_11  and  C_18 
ROOT
HETATM    1  C   UNL     1       7.514  27.912  55.631  1.00  0.00     0.239 C 
ENDROOT
BRANCH   1   2
HETATM    2  C   UNL     1       6.190  28.649  56.028  1.00  0.00     0.161 C 
BRANCH   2   3
HETATM    3  N   UNL     1       5.709  29.700  55.142  1.00  0.00    -0.354 N 
HETATM    4  C   UNL     1       5.018  29.598  53.957  1.00  0.00     0.254 C 
HETATM    5  O   UNL     1       4.506  30.601  53.477  1.00  0.00    -0.268 OA
HETATM    6  H   UNL     1       5.578  30.628  55.537  1.00  0.00     0.162 HD
BRANCH   4   7
HETATM    7  C   UNL     1       4.919  28.301  53.255  1.00  0.00     0.068 A 
HETATM    8  C   UNL     1       5.324  28.206  51.905  1.00  0.00     0.117 A 
HETATM    9  C   UNL     1       5.116  26.986  51.238  1.00  0.00     0.102 A 
HETATM   10  C   UNL     1       4.623  25.878  51.946  1.00  0.00     0.040 A 
HETATM   11  C   UNL     1       4.256  25.985  53.287  1.00  0.00     0.004 A 
HETATM   12  C   UNL     1       4.375  27.207  53.938  1.00  0.00     0.020 A 
BRANCH   8  13
HETATM   13  O   UNL     1       5.928  29.332  51.408  1.00  0.00    -0.352 OA
HETATM   14  C   UNL     1       5.373  29.996  50.283  1.00  0.00     0.210 C 
ENDBRANCH   8  13
BRANCH   9  15
HETATM   15  O   UNL     1       5.455  26.858  49.916  1.00  0.00    -0.353 OA
HETATM   16  C   UNL     1       4.346  26.590  49.052  1.00  0.00     0.210 C 
ENDBRANCH   9  15
ENDBRANCH   4   7
ENDBRANCH   2   3
ENDBRANCH   1   2
BRANCH   1  17
HETATM   17  N   UNL     1       8.750  28.386  56.397  1.00  0.00    -0.061 N 
HETATM   18  H   UNL     1       9.301  27.526  56.529  1.00  0.00     0.280 HD
HETATM   19  C   UNL     1       8.554  28.946  57.788  1.00  0.00     0.236 C 
HETATM   20  C   UNL     1       9.100  30.357  57.707  1.00  0.00     0.029 C 
HETATM   21  C   UNL     1      10.246  30.227  56.726  1.00  0.00     0.029 C 
HETATM   22  C   UNL     1       9.667  29.331  55.646  1.00  0.00     0.236 C 
ENDBRANCH   1  17
BRANCH   1  23
HETATM   23  C   UNL     1       7.400  26.386  55.708  1.00  0.00    -0.015 A 
HETATM   24  C   UNL     1       7.604  25.566  54.551  1.00  0.00    -0.018 A 
HETATM   25  C   UNL     1       7.500  24.155  54.693  1.00  0.00    -0.025 A 
HETATM   26  C   UNL     1       7.904  26.054  53.252  1.00  0.00     0.013 A 
HETATM   27  C   UNL     1       7.687  23.310  53.590  1.00  0.00     0.012 A 
HETATM   28  C   UNL     1       7.207  23.588  55.938  1.00  0.00     0.012 A 
HETATM   29  C   UNL     1       7.982  23.826  52.332  1.00  0.00     0.001 A 
HETATM   30  C   UNL     1       8.091  25.198  52.163  1.00  0.00     0.001 A 
HETATM   31  C   UNL     1       7.022  24.384  57.057  1.00  0.00     0.002 A 
HETATM   32  C   UNL     1       7.127  25.767  56.948  1.00  0.00     0.010 A 
ENDBRANCH   1  23
TORSDOF 7
ENDMDL
