MODEL 1
REMARK VINA RESULT:      -8.4      0.000      0.000
REMARK  11 active torsions:
REMARK  status: ('A' for Active; 'I' for Inactive)
REMARK    1  A    between atoms: C_3  and  C_4 
REMARK    2  A    between atoms: C_4  and  O_5 
REMARK    3  A    between atoms: C_12  and  C_13 
REMARK    4  A    between atoms: C_13  and  C_14 
REMARK    5  A    between atoms: C_15  and  C_16 
REMARK    6  A    between atoms: C_18  and  N_19 
REMARK    7  A    between atoms: N_25  and  C_26 
REMARK    8  A    between atoms: C_26  and  C_27 
REMARK    9  A    between atoms: C_27  and  C_28 
REMARK   10  A    between atoms: C_28  and  N_29 
REMARK   11  A    between atoms: C_38  and  O_39 
ROOT
HETATM    1  C   UNL     1       6.065  27.702  55.685  1.00  0.00     0.059 C 
HETATM    2  C   UNL     1       7.458  27.270  56.077  1.00  0.00     0.161 C 
HETATM    3  N   UNL     1       7.181  26.216  57.042  1.00  0.00    -0.333 N 
HETATM    4  C   UNL     1       5.826  25.988  57.144  1.00  0.00     0.278 C 
HETATM    5  O   UNL     1       5.314  25.038  57.719  1.00  0.00    -0.265 OA
HETATM    6  C   UNL     1       5.122  27.049  56.384  1.00  0.00     0.146 C 
ENDROOT
BRANCH   1   7
HETATM    7  C   UNL     1       5.983  28.725  54.614  1.00  0.00     0.196 C 
HETATM    8  O   UNL     1       6.830  28.749  53.728  1.00  0.00    -0.287 OA
BRANCH   7   9
HETATM    9  C   UNL     1       4.878  29.679  54.642  1.00  0.00     0.045 A 
HETATM   10  C   UNL     1       4.814  30.855  55.476  1.00  0.00    -0.013 A 
HETATM   11  C   UNL     1       5.835  31.259  56.492  1.00  0.00     0.052 C 
HETATM   12  C   UNL     1       3.666  31.559  55.126  1.00  0.00     0.115 A 
HETATM   13  N   UNL     1       3.024  30.818  54.161  1.00  0.00    -0.354 N 
HETATM   14  H   UNL     1       2.161  31.119  53.718  1.00  0.00     0.166 HD
HETATM   15  C   UNL     1       3.774  29.726  53.800  1.00  0.00     0.020 A 
HETATM   16  C   UNL     1       3.345  28.892  52.643  1.00  0.00     0.069 C 
BRANCH  12  17
HETATM   17  C   UNL     1       3.116  32.831  55.549  1.00  0.00     0.310 C 
HETATM   18  O   UNL     1       3.047  33.814  54.823  1.00  0.00    -0.258 OA
BRANCH  17  19
HETATM   19  O   UNL     1       2.737  32.791  56.853  1.00  0.00    -0.321 OA
HETATM   20  C   UNL     1       3.399  33.745  57.684  1.00  0.00     0.213 C 
ENDBRANCH  17  19
ENDBRANCH  12  17
ENDBRANCH   7   9
ENDBRANCH   1   7
BRANCH   2  21
HETATM   21  C   UNL     1       8.343  28.337  56.703  1.00  0.00    -0.028 A 
HETATM   22  C   UNL     1       8.058  28.904  57.958  1.00  0.00     0.045 A 
HETATM   23  C   UNL     1       8.890  29.905  58.485  1.00  0.00     0.103 A 
HETATM   24  C   UNL     1      10.024  30.335  57.788  1.00  0.00     0.036 A 
HETATM   25  C   UNL     1      10.321  29.762  56.553  1.00  0.00     0.003 A 
HETATM   26  C   UNL     1       9.490  28.775  56.016  1.00  0.00     0.010 A 
BRANCH  23  27
HETATM   27  N   UNL     1       8.565  30.503  59.788  1.00  0.00    -0.116 N 
HETATM   28  O   UNL     1       9.249  30.153  60.760  1.00  0.00    -0.532 OA
HETATM   29  O   UNL     1       7.648  31.333  59.831  1.00  0.00    -0.532 OA
ENDBRANCH  23  27
ENDBRANCH   2  21
BRANCH   6  30
HETATM   30  O   UNL     1       3.768  27.174  56.418  1.00  0.00    -0.355 OA
HETATM   31  H   UNL     1       3.342  26.341  56.149  1.00  0.00     0.218 HD
ENDBRANCH   6  30
BRANCH   3  32
HETATM   32  C   UNL     1       8.186  25.241  57.425  1.00  0.00     0.129 C 
BRANCH  32  33
HETATM   33  C   UNL     1       8.589  24.269  56.310  1.00  0.00     0.048 C 
BRANCH  33  34
HETATM   34  C   UNL     1       7.505  23.786  55.339  1.00  0.00     0.236 C 
BRANCH  34  35
HETATM   35  N   UNL     1       7.613  22.333  54.971  1.00  0.00    -0.067 N 
HETATM   36  H   UNL     1       6.745  21.886  55.333  1.00  0.00     0.280 HD
HETATM   37  C   UNL     1       7.785  22.040  53.492  1.00  0.00     0.261 C 
HETATM   38  C   UNL     1       7.832  20.525  53.264  1.00  0.00     0.195 C 
HETATM   39  O   UNL     1       8.885  19.923  54.022  1.00  0.00    -0.388 OA
HETATM   40  C   UNL     1       8.704  20.130  55.429  1.00  0.00     0.195 C 
HETATM   41  C   UNL     1       8.715  21.627  55.765  1.00  0.00     0.261 C 
ENDBRANCH  34  35
ENDBRANCH  33  34
ENDBRANCH  32  33
ENDBRANCH   3  32
TORSDOF 11
ENDMDL
MODEL 2
REMARK VINA RESULT:      -8.4      5.186      9.112
REMARK  11 active torsions:
REMARK  status: ('A' for Active; 'I' for Inactive)
REMARK    1  A    between atoms: C_3  and  C_4 
REMARK    2  A    between atoms: C_4  and  O_5 
REMARK    3  A    between atoms: C_12  and  C_13 
REMARK    4  A    between atoms: C_13  and  C_14 
REMARK    5  A    between atoms: C_15  and  C_16 
REMARK    6  A    between atoms: C_18  and  N_19 
REMARK    7  A    between atoms: N_25  and  C_26 
REMARK    8  A    between atoms: C_26  and  C_27 
REMARK    9  A    between atoms: C_27  and  C_28 
REMARK   10  A    between atoms: C_28  and  N_29 
REMARK   11  A    between atoms: C_38  and  O_39 
ROOT
HETATM    1  C   UNL     1       5.522  32.234  61.319  1.00  0.00     0.059 C 
HETATM    2  C   UNL     1       4.396  32.389  60.324  1.00  0.00     0.161 C 
HETATM    3  N   UNL     1       5.104  32.289  59.057  1.00  0.00    -0.333 N 
HETATM    4  C   UNL     1       6.441  32.022  59.261  1.00  0.00     0.278 C 
HETATM    5  O   UNL     1       7.233  31.690  58.391  1.00  0.00    -0.265 OA
HETATM    6  C   UNL     1       6.716  32.141  60.714  1.00  0.00     0.146 C 
ENDROOT
BRANCH   1   7
HETATM    7  C   UNL     1       5.120  32.191  62.747  1.00  0.00     0.196 C 
HETATM    8  O   UNL     1       4.556  31.198  63.192  1.00  0.00    -0.287 OA
BRANCH   7   9
HETATM    9  C   UNL     1       5.422  33.343  63.591  1.00  0.00     0.045 A 
HETATM   10  C   UNL     1       4.445  34.262  64.127  1.00  0.00    -0.013 A 
HETATM   11  C   UNL     1       2.975  34.226  63.855  1.00  0.00     0.052 C 
HETATM   12  C   UNL     1       5.114  35.144  64.970  1.00  0.00     0.115 A 
HETATM   13  N   UNL     1       6.449  34.818  64.910  1.00  0.00    -0.354 N 
HETATM   14  H   UNL     1       7.159  35.301  65.451  1.00  0.00     0.166 HD
HETATM   15  C   UNL     1       6.646  33.691  64.150  1.00  0.00     0.020 A 
HETATM   16  C   UNL     1       7.996  33.063  64.105  1.00  0.00     0.069 C 
BRANCH  12  17
HETATM   17  C   UNL     1       4.668  36.217  65.836  1.00  0.00     0.310 C 
HETATM   18  O   UNL     1       4.896  37.400  65.621  1.00  0.00    -0.258 OA
BRANCH  17  19
HETATM   19  O   UNL     1       4.014  35.730  66.922  1.00  0.00    -0.321 OA
HETATM   20  C   UNL     1       4.839  34.982  67.816  1.00  0.00     0.213 C 
ENDBRANCH  17  19
ENDBRANCH  12  17
ENDBRANCH   7   9
ENDBRANCH   1   7
BRANCH   2  21
HETATM   21  C   UNL     1       3.615  33.693  60.388  1.00  0.00    -0.028 A 
HETATM   22  C   UNL     1       2.208  33.722  60.407  1.00  0.00     0.045 A 
HETATM   23  C   UNL     1       1.528  34.951  60.441  1.00  0.00     0.103 A 
HETATM   24  C   UNL     1       2.233  36.159  60.481  1.00  0.00     0.036 A 
HETATM   25  C   UNL     1       3.627  36.134  60.481  1.00  0.00     0.003 A 
HETATM   26  C   UNL     1       4.309  34.915  60.434  1.00  0.00     0.010 A 
BRANCH  23  27
HETATM   27  N   UNL     1       0.059  34.964  60.439  1.00  0.00    -0.116 N 
HETATM   28  O   UNL     1      -0.512  34.915  61.538  1.00  0.00    -0.532 OA
HETATM   29  O   UNL     1      -0.517  35.047  59.346  1.00  0.00    -0.532 OA
ENDBRANCH  23  27
ENDBRANCH   2  21
BRANCH   6  30
HETATM   30  O   UNL     1       7.982  32.074  61.208  1.00  0.00    -0.355 OA
HETATM   31  H   UNL     1       8.568  32.688  60.730  1.00  0.00     0.218 HD
ENDBRANCH   6  30
BRANCH   3  32
HETATM   32  C   UNL     1       4.415  32.006  57.811  1.00  0.00     0.129 C 
BRANCH  32  33
HETATM   33  C   UNL     1       3.873  30.577  57.692  1.00  0.00     0.048 C 
BRANCH  33  34
HETATM   34  C   UNL     1       4.464  29.663  56.612  1.00  0.00     0.236 C 
BRANCH  34  35
HETATM   35  N   UNL     1       5.860  29.188  56.906  1.00  0.00    -0.067 N 
HETATM   36  H   UNL     1       6.207  29.799  57.674  1.00  0.00     0.280 HD
HETATM   37  C   UNL     1       5.989  27.726  57.291  1.00  0.00     0.261 C 
HETATM   38  C   UNL     1       7.452  27.398  57.607  1.00  0.00     0.195 C 
HETATM   39  O   UNL     1       8.300  27.704  56.496  1.00  0.00    -0.388 OA
HETATM   40  C   UNL     1       8.244  29.097  56.161  1.00  0.00     0.195 C 
HETATM   41  C   UNL     1       6.820  29.503  55.758  1.00  0.00     0.261 C 
ENDBRANCH  34  35
ENDBRANCH  33  34
ENDBRANCH  32  33
ENDBRANCH   3  32
TORSDOF 11
ENDMDL
MODEL 3
REMARK VINA RESULT:      -8.4      3.114      7.154
REMARK  11 active torsions:
REMARK  status: ('A' for Active; 'I' for Inactive)
REMARK    1  A    between atoms: C_3  and  C_4 
REMARK    2  A    between atoms: C_4  and  O_5 
REMARK    3  A    between atoms: C_12  and  C_13 
REMARK    4  A    between atoms: C_13  and  C_14 
REMARK    5  A    between atoms: C_15  and  C_16 
REMARK    6  A    between atoms: C_18  and  N_19 
REMARK    7  A    between atoms: N_25  and  C_26 
REMARK    8  A    between atoms: C_26  and  C_27 
REMARK    9  A    between atoms: C_27  and  C_28 
REMARK   10  A    between atoms: C_28  and  N_29 
REMARK   11  A    between atoms: C_38  and  O_39 
ROOT
HETATM    1  C   UNL     1       5.139  28.892  55.443  1.00  0.00     0.059 C 
HETATM    2  C   UNL     1       5.841  28.457  54.179  1.00  0.00     0.161 C 
HETATM    3  N   UNL     1       5.094  29.181  53.161  1.00  0.00    -0.333 N 
HETATM    4  C   UNL     1       4.145  29.998  53.737  1.00  0.00     0.278 C 
HETATM    5  O   UNL     1       3.512  30.863  53.150  1.00  0.00    -0.265 OA
HETATM    6  C   UNL     1       4.088  29.686  55.186  1.00  0.00     0.146 C 
ENDROOT
BRANCH   1   7
HETATM    7  C   UNL     1       5.731  28.398  56.712  1.00  0.00     0.196 C 
HETATM    8  O   UNL     1       5.178  27.498  57.333  1.00  0.00    -0.287 OA
BRANCH   7   9
HETATM    9  C   UNL     1       6.975  29.001  57.182  1.00  0.00     0.045 A 
HETATM   10  C   UNL     1       7.097  30.321  57.754  1.00  0.00    -0.013 A 
HETATM   11  C   UNL     1       5.987  31.312  57.901  1.00  0.00     0.052 C 
HETATM   12  C   UNL     1       8.412  30.475  58.182  1.00  0.00     0.115 A 
HETATM   13  N   UNL     1       9.081  29.325  57.836  1.00  0.00    -0.354 N 
HETATM   14  H   UNL     1      10.061  29.171  58.053  1.00  0.00     0.166 HD
HETATM   15  C   UNL     1       8.220  28.395  57.306  1.00  0.00     0.020 A 
HETATM   16  C   UNL     1       8.707  27.014  57.033  1.00  0.00     0.069 C 
BRANCH  12  17
HETATM   17  C   UNL     1       9.106  31.533  58.890  1.00  0.00     0.310 C 
HETATM   18  O   UNL     1      10.066  32.137  58.432  1.00  0.00    -0.258 OA
BRANCH  17  19
HETATM   19  O   UNL     1       8.577  31.722  60.126  1.00  0.00    -0.321 OA
HETATM   20  C   UNL     1       8.923  30.710  61.072  1.00  0.00     0.213 C 
ENDBRANCH  17  19
ENDBRANCH  12  17
ENDBRANCH   7   9
ENDBRANCH   1   7
BRANCH   2  21
HETATM   21  C   UNL     1       5.829  26.966  53.879  1.00  0.00    -0.028 A 
HETATM   22  C   UNL     1       6.952  26.148  54.103  1.00  0.00     0.045 A 
HETATM   23  C   UNL     1       6.903  24.780  53.788  1.00  0.00     0.103 A 
HETATM   24  C   UNL     1       5.736  24.206  53.272  1.00  0.00     0.036 A 
HETATM   25  C   UNL     1       4.616  25.008  53.065  1.00  0.00     0.003 A 
HETATM   26  C   UNL     1       4.662  26.373  53.365  1.00  0.00     0.010 A 
BRANCH  23  27
HETATM   27  N   UNL     1       8.091  23.945  54.008  1.00  0.00    -0.116 N 
HETATM   28  O   UNL     1       8.485  23.255  53.058  1.00  0.00    -0.532 OA
HETATM   29  O   UNL     1       8.639  23.999  55.117  1.00  0.00    -0.532 OA
ENDBRANCH  23  27
ENDBRANCH   2  21
BRANCH   6  30
HETATM   30  O   UNL     1       3.142  30.231  55.997  1.00  0.00    -0.355 OA
HETATM   31  H   UNL     1       3.253  29.914  56.912  1.00  0.00     0.218 HD
ENDBRANCH   6  30
BRANCH   3  32
HETATM   32  C   UNL     1       5.616  29.386  51.822  1.00  0.00     0.129 C 
BRANCH  32  33
HETATM   33  C   UNL     1       4.954  28.525  50.740  1.00  0.00     0.048 C 
BRANCH  33  34
HETATM   34  C   UNL     1       3.536  28.893  50.285  1.00  0.00     0.236 C 
BRANCH  34  35
HETATM   35  N   UNL     1       2.843  27.814  49.502  1.00  0.00    -0.067 N 
HETATM   36  H   UNL     1       2.450  27.161  50.211  1.00  0.00     0.280 HD
HETATM   37  C   UNL     1       1.757  28.285  48.553  1.00  0.00     0.261 C 
HETATM   38  C   UNL     1       1.110  27.078  47.863  1.00  0.00     0.195 C 
HETATM   39  O   UNL     1       2.086  26.300  47.165  1.00  0.00    -0.388 OA
HETATM   40  C   UNL     1       3.085  25.789  48.056  1.00  0.00     0.195 C 
HETATM   41  C   UNL     1       3.840  26.934  48.744  1.00  0.00     0.261 C 
ENDBRANCH  34  35
ENDBRANCH  33  34
ENDBRANCH  32  33
ENDBRANCH   3  32
TORSDOF 11
ENDMDL
MODEL 4
REMARK VINA RESULT:      -8.3      3.174      7.967
REMARK  11 active torsions:
REMARK  status: ('A' for Active; 'I' for Inactive)
REMARK    1  A    between atoms: C_3  and  C_4 
REMARK    2  A    between atoms: C_4  and  O_5 
REMARK    3  A    between atoms: C_12  and  C_13 
REMARK    4  A    between atoms: C_13  and  C_14 
REMARK    5  A    between atoms: C_15  and  C_16 
REMARK    6  A    between atoms: C_18  and  N_19 
REMARK    7  A    between atoms: N_25  and  C_26 
REMARK    8  A    between atoms: C_26  and  C_27 
REMARK    9  A    between atoms: C_27  and  C_28 
REMARK   10  A    between atoms: C_28  and  N_29 
REMARK   11  A    between atoms: C_38  and  O_39 
ROOT
HETATM    1  C   UNL     1       5.293  26.632  52.845  1.00  0.00     0.059 C 
HETATM    2  C   UNL     1       4.784  27.866  53.550  1.00  0.00     0.161 C 
HETATM    3  N   UNL     1       4.933  28.880  52.517  1.00  0.00    -0.333 N 
HETATM    4  C   UNL     1       5.379  28.320  51.339  1.00  0.00     0.278 C 
HETATM    5  O   UNL     1       5.405  28.886  50.256  1.00  0.00    -0.265 OA
HETATM    6  C   UNL     1       5.746  26.909  51.612  1.00  0.00     0.146 C 
ENDROOT
BRANCH   1   7
HETATM    7  C   UNL     1       5.184  25.363  53.606  1.00  0.00     0.196 C 
HETATM    8  O   UNL     1       4.115  24.765  53.647  1.00  0.00    -0.287 OA
BRANCH   7   9
HETATM    9  C   UNL     1       6.372  24.853  54.286  1.00  0.00     0.045 A 
HETATM   10  C   UNL     1       6.520  24.716  55.715  1.00  0.00    -0.013 A 
HETATM   11  C   UNL     1       5.511  25.129  56.739  1.00  0.00     0.052 C 
HETATM   12  C   UNL     1       7.739  24.089  55.955  1.00  0.00     0.115 A 
HETATM   13  N   UNL     1       8.339  23.903  54.731  1.00  0.00    -0.354 N 
HETATM   14  H   UNL     1       9.238  23.445  54.622  1.00  0.00     0.166 HD
HETATM   15  C   UNL     1       7.502  24.282  53.711  1.00  0.00     0.020 A 
HETATM   16  C   UNL     1       7.886  23.995  52.301  1.00  0.00     0.069 C 
BRANCH  12  17
HETATM   17  C   UNL     1       8.392  23.621  57.161  1.00  0.00     0.310 C 
HETATM   18  O   UNL     1       9.148  24.310  57.833  1.00  0.00    -0.258 OA
BRANCH  17  19
HETATM   19  O   UNL     1       8.087  22.321  57.410  1.00  0.00    -0.321 OA
HETATM   20  C   UNL     1       8.648  21.400  56.474  1.00  0.00     0.213 C 
ENDBRANCH  17  19
ENDBRANCH  12  17
ENDBRANCH   7   9
ENDBRANCH   1   7
BRANCH   2  21
HETATM   21  C   UNL     1       5.532  28.282  54.807  1.00  0.00    -0.028 A 
HETATM   22  C   UNL     1       6.921  28.505  54.811  1.00  0.00     0.045 A 
HETATM   23  C   UNL     1       7.575  28.863  56.002  1.00  0.00     0.103 A 
HETATM   24  C   UNL     1       6.857  29.027  57.191  1.00  0.00     0.036 A 
HETATM   25  C   UNL     1       5.479  28.825  57.188  1.00  0.00     0.003 A 
HETATM   26  C   UNL     1       4.824  28.455  56.009  1.00  0.00     0.010 A 
BRANCH  23  27
HETATM   27  N   UNL     1       9.029  29.072  55.993  1.00  0.00    -0.116 N 
HETATM   28  O   UNL     1       9.642  28.852  57.048  1.00  0.00    -0.532 OA
HETATM   29  O   UNL     1       9.556  29.430  54.932  1.00  0.00    -0.532 OA
ENDBRANCH  23  27
ENDBRANCH   2  21
BRANCH   6  30
HETATM   30  O   UNL     1       6.356  26.136  50.674  1.00  0.00    -0.355 OA
HETATM   31  H   UNL     1       5.777  26.019  49.899  1.00  0.00     0.218 HD
ENDBRANCH   6  30
BRANCH   3  32
HETATM   32  C   UNL     1       4.237  30.153  52.582  1.00  0.00     0.129 C 
BRANCH  32  33
HETATM   33  C   UNL     1       2.773  30.103  52.132  1.00  0.00     0.048 C 
BRANCH  33  34
HETATM   34  C   UNL     1       2.415  30.678  50.756  1.00  0.00     0.236 C 
BRANCH  34  35
HETATM   35  N   UNL     1       2.666  29.735  49.613  1.00  0.00    -0.067 N 
HETATM   36  H   UNL     1       3.633  29.375  49.753  1.00  0.00     0.280 HD
HETATM   37  C   UNL     1       1.684  28.586  49.482  1.00  0.00     0.261 C 
HETATM   38  C   UNL     1       2.091  27.685  48.310  1.00  0.00     0.195 C 
HETATM   39  O   UNL     1       2.162  28.429  47.090  1.00  0.00    -0.388 OA
HETATM   40  C   UNL     1       3.134  29.479  47.171  1.00  0.00     0.195 C 
HETATM   41  C   UNL     1       2.769  30.476  48.278  1.00  0.00     0.261 C 
ENDBRANCH  34  35
ENDBRANCH  33  34
ENDBRANCH  32  33
ENDBRANCH   3  32
TORSDOF 11
ENDMDL
MODEL 5
REMARK VINA RESULT:      -8.2      6.781     12.167
REMARK  11 active torsions:
REMARK  status: ('A' for Active; 'I' for Inactive)
REMARK    1  A    between atoms: C_3  and  C_4 
REMARK    2  A    between atoms: C_4  and  O_5 
REMARK    3  A    between atoms: C_12  and  C_13 
REMARK    4  A    between atoms: C_13  and  C_14 
REMARK    5  A    between atoms: C_15  and  C_16 
REMARK    6  A    between atoms: C_18  and  N_19 
REMARK    7  A    between atoms: N_25  and  C_26 
REMARK    8  A    between atoms: C_26  and  C_27 
REMARK    9  A    between atoms: C_27  and  C_28 
REMARK   10  A    between atoms: C_28  and  N_29 
REMARK   11  A    between atoms: C_38  and  O_39 
ROOT
HETATM    1  C   UNL     1       4.388  34.075  63.050  1.00  0.00     0.059 C 
HETATM    2  C   UNL     1       4.471  35.285  62.151  1.00  0.00     0.161 C 
HETATM    3  N   UNL     1       4.310  36.374  63.103  1.00  0.00    -0.333 N 
HETATM    4  C   UNL     1       4.233  35.891  64.392  1.00  0.00     0.278 C 
HETATM    5  O   UNL     1       4.296  36.574  65.404  1.00  0.00    -0.265 OA
HETATM    6  C   UNL     1       4.133  34.413  64.324  1.00  0.00     0.146 C 
ENDROOT
BRANCH   1   7
HETATM    7  C   UNL     1       4.618  32.765  62.392  1.00  0.00     0.196 C 
HETATM    8  O   UNL     1       3.885  31.816  62.648  1.00  0.00    -0.287 OA
BRANCH   7   9
HETATM    9  C   UNL     1       5.719  32.646  61.440  1.00  0.00     0.045 A 
HETATM   10  C   UNL     1       7.120  32.617  61.787  1.00  0.00    -0.013 A 
HETATM   11  C   UNL     1       7.680  32.767  63.165  1.00  0.00     0.052 C 
HETATM   12  C   UNL     1       7.839  32.377  60.619  1.00  0.00     0.115 A 
HETATM   13  N   UNL     1       6.924  32.319  59.594  1.00  0.00    -0.354 N 
HETATM   14  H   UNL     1       7.187  32.135  58.631  1.00  0.00     0.166 HD
HETATM   15  C   UNL     1       5.640  32.400  60.075  1.00  0.00     0.020 A 
HETATM   16  C   UNL     1       4.494  32.175  59.150  1.00  0.00     0.069 C 
BRANCH  12  17
HETATM   17  C   UNL     1       9.247  32.167  60.347  1.00  0.00     0.310 C 
HETATM   18  O   UNL     1      10.053  31.803  61.194  1.00  0.00    -0.258 OA
BRANCH  17  19
HETATM   19  O   UNL     1       9.546  32.467  59.058  1.00  0.00    -0.321 OA
HETATM   20  C   UNL     1      10.189  31.410  58.345  1.00  0.00     0.213 C 
ENDBRANCH  17  19
ENDBRANCH  12  17
ENDBRANCH   7   9
ENDBRANCH   1   7
BRANCH   2  21
HETATM   21  C   UNL     1       3.421  35.385  61.055  1.00  0.00    -0.028 A 
HETATM   22  C   UNL     1       2.065  35.092  61.290  1.00  0.00     0.045 A 
HETATM   23  C   UNL     1       1.134  35.173  60.241  1.00  0.00     0.103 A 
HETATM   24  C   UNL     1       1.532  35.567  58.959  1.00  0.00     0.036 A 
HETATM   25  C   UNL     1       2.871  35.876  58.727  1.00  0.00     0.003 A 
HETATM   26  C   UNL     1       3.805  35.784  59.763  1.00  0.00     0.010 A 
BRANCH  23  27
HETATM   27  N   UNL     1      -0.274  34.844  60.499  1.00  0.00    -0.116 N 
HETATM   28  O   UNL     1      -0.960  34.485  59.531  1.00  0.00    -0.532 OA
HETATM   29  O   UNL     1      -0.683  34.922  61.664  1.00  0.00    -0.532 OA
ENDBRANCH  23  27
ENDBRANCH   2  21
BRANCH   6  30
HETATM   30  O   UNL     1       3.899  33.662  65.433  1.00  0.00    -0.355 OA
HETATM   31  H   UNL     1       3.203  34.068  65.981  1.00  0.00     0.218 HD
ENDBRANCH   6  30
BRANCH   3  32
HETATM   32  C   UNL     1       4.687  37.738  62.784  1.00  0.00     0.129 C 
BRANCH  32  33
HETATM   33  C   UNL     1       6.084  37.887  62.169  1.00  0.00     0.048 C 
BRANCH  33  34
HETATM   34  C   UNL     1       6.326  39.036  61.184  1.00  0.00     0.236 C 
BRANCH  34  35
HETATM   35  N   UNL     1       5.231  39.217  60.171  1.00  0.00    -0.067 N 
HETATM   36  H   UNL     1       4.581  38.416  60.314  1.00  0.00     0.280 HD
HETATM   37  C   UNL     1       4.477  40.532  60.245  1.00  0.00     0.261 C 
HETATM   38  C   UNL     1       3.365  40.554  59.190  1.00  0.00     0.195 C 
HETATM   39  O   UNL     1       3.897  40.352  57.877  1.00  0.00    -0.388 OA
HETATM   40  C   UNL     1       4.556  39.083  57.768  1.00  0.00     0.195 C 
HETATM   41  C   UNL     1       5.736  38.995  58.744  1.00  0.00     0.261 C 
ENDBRANCH  34  35
ENDBRANCH  33  34
ENDBRANCH  32  33
ENDBRANCH   3  32
TORSDOF 11
ENDMDL
MODEL 6
REMARK VINA RESULT:      -8.1      6.592     13.127
REMARK  11 active torsions:
REMARK  status: ('A' for Active; 'I' for Inactive)
REMARK    1  A    between atoms: C_3  and  C_4 
REMARK    2  A    between atoms: C_4  and  O_5 
REMARK    3  A    between atoms: C_12  and  C_13 
REMARK    4  A    between atoms: C_13  and  C_14 
REMARK    5  A    between atoms: C_15  and  C_16 
REMARK    6  A    between atoms: C_18  and  N_19 
REMARK    7  A    between atoms: N_25  and  C_26 
REMARK    8  A    between atoms: C_26  and  C_27 
REMARK    9  A    between atoms: C_27  and  C_28 
REMARK   10  A    between atoms: C_28  and  N_29 
REMARK   11  A    between atoms: C_38  and  O_39 
ROOT
HETATM    1  C   UNL     1       4.458  34.099  63.155  1.00  0.00     0.059 C 
HETATM    2  C   UNL     1       4.563  35.257  62.190  1.00  0.00     0.161 C 
HETATM    3  N   UNL     1       4.358  36.396  63.072  1.00  0.00    -0.333 N 
HETATM    4  C   UNL     1       4.240  35.988  64.383  1.00  0.00     0.278 C 
HETATM    5  O   UNL     1       4.260  36.728  65.355  1.00  0.00    -0.265 OA
HETATM    6  C   UNL     1       4.155  34.507  64.397  1.00  0.00     0.146 C 
ENDROOT
BRANCH   1   7
HETATM    7  C   UNL     1       4.722  32.756  62.582  1.00  0.00     0.196 C 
HETATM    8  O   UNL     1       3.803  31.956  62.451  1.00  0.00    -0.287 OA
BRANCH   7   9
HETATM    9  C   UNL     1       6.086  32.427  62.177  1.00  0.00     0.045 A 
HETATM   10  C   UNL     1       6.499  32.095  60.834  1.00  0.00    -0.013 A 
HETATM   11  C   UNL     1       5.594  31.971  59.650  1.00  0.00     0.052 C 
HETATM   12  C   UNL     1       7.885  31.964  60.839  1.00  0.00     0.115 A 
HETATM   13  N   UNL     1       8.297  32.149  62.138  1.00  0.00    -0.354 N 
HETATM   14  H   UNL     1       9.274  32.123  62.415  1.00  0.00     0.166 HD
HETATM   15  C   UNL     1       7.243  32.506  62.943  1.00  0.00     0.020 A 
HETATM   16  C   UNL     1       7.503  32.930  64.347  1.00  0.00     0.069 C 
BRANCH  12  17
HETATM   17  C   UNL     1       8.861  31.721  59.795  1.00  0.00     0.310 C 
HETATM   18  O   UNL     1       9.370  32.609  59.125  1.00  0.00    -0.258 OA
BRANCH  17  19
HETATM   19  O   UNL     1       9.091  30.392  59.641  1.00  0.00    -0.321 OA
HETATM   20  C   UNL     1       8.412  29.806  58.530  1.00  0.00     0.213 C 
ENDBRANCH  17  19
ENDBRANCH  12  17
ENDBRANCH   7   9
ENDBRANCH   1   7
BRANCH   2  21
HETATM   21  C   UNL     1       3.551  35.282  61.055  1.00  0.00    -0.028 A 
HETATM   22  C   UNL     1       2.174  35.103  61.276  1.00  0.00     0.045 A 
HETATM   23  C   UNL     1       1.278  35.109  60.193  1.00  0.00     0.103 A 
HETATM   24  C   UNL     1       1.735  35.316  58.888  1.00  0.00     0.036 A 
HETATM   25  C   UNL     1       3.097  35.512  58.666  1.00  0.00     0.003 A 
HETATM   26  C   UNL     1       3.995  35.494  59.737  1.00  0.00     0.010 A 
BRANCH  23  27
HETATM   27  N   UNL     1      -0.155  34.899  60.440  1.00  0.00    -0.116 N 
HETATM   28  O   UNL     1      -0.544  34.956  61.615  1.00  0.00    -0.532 OA
HETATM   29  O   UNL     1      -0.887  34.701  59.462  1.00  0.00    -0.532 OA
ENDBRANCH  23  27
ENDBRANCH   2  21
BRANCH   6  30
HETATM   30  O   UNL     1       3.888  33.818  65.539  1.00  0.00    -0.355 OA
HETATM   31  H   UNL     1       4.469  34.117  66.262  1.00  0.00     0.218 HD
ENDBRANCH   6  30
BRANCH   3  32
HETATM   32  C   UNL     1       4.735  37.744  62.688  1.00  0.00     0.129 C 
BRANCH  32  33
HETATM   33  C   UNL     1       6.232  38.049  62.816  1.00  0.00     0.048 C 
BRANCH  33  34
HETATM   34  C   UNL     1       6.708  39.480  62.541  1.00  0.00     0.236 C 
BRANCH  34  35
HETATM   35  N   UNL     1       6.482  40.432  63.682  1.00  0.00    -0.067 N 
HETATM   36  H   UNL     1       5.698  41.049  63.381  1.00  0.00     0.280 HD
HETATM   37  C   UNL     1       6.169  39.791  65.021  1.00  0.00     0.261 C 
HETATM   38  C   UNL     1       5.916  40.877  66.072  1.00  0.00     0.195 C 
HETATM   39  O   UNL     1       7.038  41.757  66.184  1.00  0.00    -0.388 OA
HETATM   40  C   UNL     1       7.308  42.425  64.945  1.00  0.00     0.195 C 
HETATM   41  C   UNL     1       7.645  41.413  63.842  1.00  0.00     0.261 C 
ENDBRANCH  34  35
ENDBRANCH  33  34
ENDBRANCH  32  33
ENDBRANCH   3  32
TORSDOF 11
ENDMDL
MODEL 7
REMARK VINA RESULT:      -8.1      2.389      7.975
REMARK  11 active torsions:
REMARK  status: ('A' for Active; 'I' for Inactive)
REMARK    1  A    between atoms: C_3  and  C_4 
REMARK    2  A    between atoms: C_4  and  O_5 
REMARK    3  A    between atoms: C_12  and  C_13 
REMARK    4  A    between atoms: C_13  and  C_14 
REMARK    5  A    between atoms: C_15  and  C_16 
REMARK    6  A    between atoms: C_18  and  N_19 
REMARK    7  A    between atoms: N_25  and  C_26 
REMARK    8  A    between atoms: C_26  and  C_27 
REMARK    9  A    between atoms: C_27  and  C_28 
REMARK   10  A    between atoms: C_28  and  N_29 
REMARK   11  A    between atoms: C_38  and  O_39 
ROOT
HETATM    1  C   UNL     1       4.840  27.796  55.551  1.00  0.00     0.059 C 
HETATM    2  C   UNL     1       5.271  29.045  56.281  1.00  0.00     0.161 C 
HETATM    3  N   UNL     1       4.723  30.090  55.430  1.00  0.00    -0.333 N 
HETATM    4  C   UNL     1       3.994  29.547  54.394  1.00  0.00     0.278 C 
HETATM    5  O   UNL     1       3.261  30.175  53.645  1.00  0.00    -0.265 OA
HETATM    6  C   UNL     1       4.207  28.079  54.402  1.00  0.00     0.146 C 
ENDROOT
BRANCH   1   7
HETATM    7  C   UNL     1       5.163  26.512  56.223  1.00  0.00     0.196 C 
HETATM    8  O   UNL     1       4.516  26.155  57.200  1.00  0.00    -0.287 OA
BRANCH   7   9
HETATM    9  C   UNL     1       6.249  25.698  55.685  1.00  0.00     0.045 A 
HETATM   10  C   UNL     1       6.231  25.021  54.410  1.00  0.00    -0.013 A 
HETATM   11  C   UNL     1       5.078  24.988  53.458  1.00  0.00     0.052 C 
HETATM   12  C   UNL     1       7.487  24.456  54.214  1.00  0.00     0.115 A 
HETATM   13  N   UNL     1       8.225  24.724  55.344  1.00  0.00    -0.354 N 
HETATM   14  H   UNL     1       9.192  24.435  55.452  1.00  0.00     0.166 HD
HETATM   15  C   UNL     1       7.528  25.535  56.205  1.00  0.00     0.020 A 
HETATM   16  C   UNL     1       8.213  26.092  57.405  1.00  0.00     0.069 C 
BRANCH  12  17
HETATM   17  C   UNL     1       8.088  23.734  53.110  1.00  0.00     0.310 C 
HETATM   18  O   UNL     1       8.026  24.105  51.945  1.00  0.00    -0.258 OA
BRANCH  17  19
HETATM   19  O   UNL     1       8.677  22.588  53.538  1.00  0.00    -0.321 OA
HETATM   20  C   UNL     1       7.795  21.467  53.607  1.00  0.00     0.213 C 
ENDBRANCH  17  19
ENDBRANCH  12  17
ENDBRANCH   7   9
ENDBRANCH   1   7
BRANCH   2  21
HETATM   21  C   UNL     1       6.769  29.241  56.456  1.00  0.00    -0.028 A 
HETATM   22  C   UNL     1       7.323  29.759  57.641  1.00  0.00     0.045 A 
HETATM   23  C   UNL     1       8.712  29.947  57.748  1.00  0.00     0.103 A 
HETATM   24  C   UNL     1       9.564  29.601  56.694  1.00  0.00     0.036 A 
HETATM   25  C   UNL     1       9.022  29.070  55.526  1.00  0.00     0.003 A 
HETATM   26  C   UNL     1       7.640  28.893  55.408  1.00  0.00     0.010 A 
BRANCH  23  27
HETATM   27  N   UNL     1       9.271  30.510  58.984  1.00  0.00    -0.116 N 
HETATM   28  O   UNL     1       8.938  29.978  60.052  1.00  0.00    -0.532 OA
HETATM   29  O   UNL     1      10.056  31.461  58.883  1.00  0.00    -0.532 OA
ENDBRANCH  23  27
ENDBRANCH   2  21
BRANCH   6  30
HETATM   30  O   UNL     1       3.730  27.283  53.408  1.00  0.00    -0.355 OA
HETATM   31  H   UNL     1       3.893  26.345  53.614  1.00  0.00     0.218 HD
ENDBRANCH   6  30
BRANCH   3  32
HETATM   32  C   UNL     1       4.550  31.453  55.898  1.00  0.00     0.129 C 
BRANCH  32  33
HETATM   33  C   UNL     1       3.762  31.582  57.207  1.00  0.00     0.048 C 
BRANCH  33  34
HETATM   34  C   UNL     1       4.111  32.736  58.155  1.00  0.00     0.236 C 
BRANCH  34  35
HETATM   35  N   UNL     1       4.613  32.294  59.501  1.00  0.00    -0.067 N 
HETATM   36  H   UNL     1       4.533  31.256  59.503  1.00  0.00     0.280 HD
HETATM   37  C   UNL     1       6.029  32.718  59.846  1.00  0.00     0.261 C 
HETATM   38  C   UNL     1       6.419  32.159  61.218  1.00  0.00     0.195 C 
HETATM   39  O   UNL     1       5.504  32.590  62.229  1.00  0.00    -0.388 OA
HETATM   40  C   UNL     1       4.170  32.140  61.956  1.00  0.00     0.195 C 
HETATM   41  C   UNL     1       3.664  32.713  60.626  1.00  0.00     0.261 C 
ENDBRANCH  34  35
ENDBRANCH  33  34
ENDBRANCH  32  33
ENDBRANCH   3  32
TORSDOF 11
ENDMDL
MODEL 8
REMARK VINA RESULT:      -8.0      7.088     12.734
REMARK  11 active torsions:
REMARK  status: ('A' for Active; 'I' for Inactive)
REMARK    1  A    between atoms: C_3  and  C_4 
REMARK    2  A    between atoms: C_4  and  O_5 
REMARK    3  A    between atoms: C_12  and  C_13 
REMARK    4  A    between atoms: C_13  and  C_14 
REMARK    5  A    between atoms: C_15  and  C_16 
REMARK    6  A    between atoms: C_18  and  N_19 
REMARK    7  A    between atoms: N_25  and  C_26 
REMARK    8  A    between atoms: C_26  and  C_27 
REMARK    9  A    between atoms: C_27  and  C_28 
REMARK   10  A    between atoms: C_28  and  N_29 
REMARK   11  A    between atoms: C_38  and  O_39 
ROOT
HETATM    1  C   UNL     1       4.019  33.783  62.879  1.00  0.00     0.059 C 
HETATM    2  C   UNL     1       4.849  34.392  61.775  1.00  0.00     0.161 C 
HETATM    3  N   UNL     1       3.886  35.273  61.131  1.00  0.00    -0.333 N 
HETATM    4  C   UNL     1       2.684  35.262  61.805  1.00  0.00     0.278 C 
HETATM    5  O   UNL     1       1.765  36.045  61.616  1.00  0.00    -0.265 OA
HETATM    6  C   UNL     1       2.741  34.191  62.829  1.00  0.00     0.146 C 
ENDROOT
BRANCH   1   7
HETATM    7  C   UNL     1       4.744  32.886  63.812  1.00  0.00     0.196 C 
HETATM    8  O   UNL     1       4.697  31.672  63.652  1.00  0.00    -0.287 OA
BRANCH   7   9
HETATM    9  C   UNL     1       5.511  33.484  64.902  1.00  0.00     0.045 A 
HETATM   10  C   UNL     1       4.949  34.019  66.119  1.00  0.00    -0.013 A 
HETATM   11  C   UNL     1       3.492  34.108  66.441  1.00  0.00     0.052 C 
HETATM   12  C   UNL     1       6.007  34.385  66.946  1.00  0.00     0.115 A 
HETATM   13  N   UNL     1       7.164  34.139  66.245  1.00  0.00    -0.354 N 
HETATM   14  H   UNL     1       8.088  34.304  66.632  1.00  0.00     0.166 HD
HETATM   15  C   UNL     1       6.892  33.525  65.047  1.00  0.00     0.020 A 
HETATM   16  C   UNL     1       8.015  33.010  64.215  1.00  0.00     0.069 C 
BRANCH  12  17
HETATM   17  C   UNL     1       6.074  34.898  68.300  1.00  0.00     0.310 C 
HETATM   18  O   UNL     1       6.756  35.861  68.626  1.00  0.00    -0.258 OA
BRANCH  17  19
HETATM   19  O   UNL     1       5.324  34.146  69.146  1.00  0.00    -0.321 OA
HETATM   20  C   UNL     1       6.087  33.341  70.046  1.00  0.00     0.213 C 
ENDBRANCH  17  19
ENDBRANCH  12  17
ENDBRANCH   7   9
ENDBRANCH   1   7
BRANCH   2  21
HETATM   21  C   UNL     1       5.436  33.423  60.760  1.00  0.00    -0.028 A 
HETATM   22  C   UNL     1       6.790  33.043  60.784  1.00  0.00     0.045 A 
HETATM   23  C   UNL     1       7.295  32.164  59.811  1.00  0.00     0.103 A 
HETATM   24  C   UNL     1       6.459  31.636  58.822  1.00  0.00     0.036 A 
HETATM   25  C   UNL     1       5.112  31.995  58.805  1.00  0.00     0.003 A 
HETATM   26  C   UNL     1       4.607  32.879  59.763  1.00  0.00     0.010 A 
BRANCH  23  27
HETATM   27  N   UNL     1       8.716  31.795  59.838  1.00  0.00    -0.116 N 
HETATM   28  O   UNL     1       9.020  30.747  60.425  1.00  0.00    -0.532 OA
HETATM   29  O   UNL     1       9.518  32.537  59.256  1.00  0.00    -0.532 OA
ENDBRANCH  23  27
ENDBRANCH   2  21
BRANCH   6  30
HETATM   30  O   UNL     1       1.647  33.842  63.559  1.00  0.00    -0.355 OA
HETATM   31  H   UNL     1       1.730  32.927  63.882  1.00  0.00     0.218 HD
ENDBRANCH   6  30
BRANCH   3  32
HETATM   32  C   UNL     1       4.298  36.351  60.251  1.00  0.00     0.129 C 
BRANCH  32  33
HETATM   33  C   UNL     1       4.634  37.665  60.966  1.00  0.00     0.048 C 
BRANCH  33  34
HETATM   34  C   UNL     1       5.945  37.746  61.759  1.00  0.00     0.236 C 
BRANCH  34  35
HETATM   35  N   UNL     1       6.141  39.045  62.489  1.00  0.00    -0.067 N 
HETATM   36  H   UNL     1       5.346  39.652  62.200  1.00  0.00     0.280 HD
HETATM   37  C   UNL     1       6.211  38.945  64.001  1.00  0.00     0.261 C 
HETATM   38  C   UNL     1       6.363  40.344  64.609  1.00  0.00     0.195 C 
HETATM   39  O   UNL     1       7.523  41.005  64.093  1.00  0.00    -0.388 OA
HETATM   40  C   UNL     1       7.444  41.170  62.671  1.00  0.00     0.195 C 
HETATM   41  C   UNL     1       7.360  39.809  61.968  1.00  0.00     0.261 C 
ENDBRANCH  34  35
ENDBRANCH  33  34
ENDBRANCH  32  33
ENDBRANCH   3  32
TORSDOF 11
ENDMDL
MODEL 9
REMARK VINA RESULT:      -8.0      6.048      9.292
REMARK  11 active torsions:
REMARK  status: ('A' for Active; 'I' for Inactive)
REMARK    1  A    between atoms: C_3  and  C_4 
REMARK    2  A    between atoms: C_4  and  O_5 
REMARK    3  A    between atoms: C_12  and  C_13 
REMARK    4  A    between atoms: C_13  and  C_14 
REMARK    5  A    between atoms: C_15  and  C_16 
REMARK    6  A    between atoms: C_18  and  N_19 
REMARK    7  A    between atoms: N_25  and  C_26 
REMARK    8  A    between atoms: C_26  and  C_27 
REMARK    9  A    between atoms: C_27  and  C_28 
REMARK   10  A    between atoms: C_28  and  N_29 
REMARK   11  A    between atoms: C_38  and  O_39 
ROOT
HETATM    1  C   UNL     1       3.705  34.613  61.655  1.00  0.00     0.059 C 
HETATM    2  C   UNL     1       5.091  34.089  61.945  1.00  0.00     0.161 C 
HETATM    3  N   UNL     1       5.019  32.742  61.397  1.00  0.00    -0.333 N 
HETATM    4  C   UNL     1       3.802  32.524  60.789  1.00  0.00     0.278 C 
HETATM    5  O   UNL     1       3.533  31.568  60.076  1.00  0.00    -0.265 OA
HETATM    6  C   UNL     1       2.921  33.677  61.096  1.00  0.00     0.146 C 
ENDROOT
BRANCH   1   7
HETATM    7  C   UNL     1       3.465  36.034  62.008  1.00  0.00     0.196 C 
HETATM    8  O   UNL     1       2.565  36.326  62.787  1.00  0.00    -0.287 OA
BRANCH   7   9
HETATM    9  C   UNL     1       4.327  37.054  61.418  1.00  0.00     0.045 A 
HETATM   10  C   UNL     1       5.386  37.752  62.108  1.00  0.00    -0.013 A 
HETATM   11  C   UNL     1       5.735  37.594  63.553  1.00  0.00     0.052 C 
HETATM   12  C   UNL     1       6.043  38.549  61.175  1.00  0.00     0.115 A 
HETATM   13  N   UNL     1       5.381  38.393  59.980  1.00  0.00    -0.354 N 
HETATM   14  H   UNL     1       5.672  38.855  59.125  1.00  0.00     0.166 HD
HETATM   15  C   UNL     1       4.397  37.440  60.084  1.00  0.00     0.020 A 
HETATM   16  C   UNL     1       3.681  36.987  58.859  1.00  0.00     0.069 C 
BRANCH  12  17
HETATM   17  C   UNL     1       7.212  39.403  61.251  1.00  0.00     0.310 C 
HETATM   18  O   UNL     1       8.337  39.040  60.934  1.00  0.00    -0.258 OA
BRANCH  17  19
HETATM   19  O   UNL     1       6.895  40.623  61.755  1.00  0.00    -0.321 OA
HETATM   20  C   UNL     1       6.890  41.673  60.787  1.00  0.00     0.213 C 
ENDBRANCH  17  19
ENDBRANCH  12  17
ENDBRANCH   7   9
ENDBRANCH   1   7
BRANCH   2  21
HETATM   21  C   UNL     1       5.501  34.040  63.409  1.00  0.00    -0.028 A 
HETATM   22  C   UNL     1       4.570  34.191  64.452  1.00  0.00     0.045 A 
HETATM   23  C   UNL     1       4.998  34.164  65.790  1.00  0.00     0.103 A 
HETATM   24  C   UNL     1       6.346  33.963  66.106  1.00  0.00     0.036 A 
HETATM   25  C   UNL     1       7.269  33.794  65.076  1.00  0.00     0.003 A 
HETATM   26  C   UNL     1       6.851  33.833  63.743  1.00  0.00     0.010 A 
BRANCH  23  27
HETATM   27  N   UNL     1       4.016  34.345  66.867  1.00  0.00    -0.116 N 
HETATM   28  O   UNL     1       4.251  33.792  67.951  1.00  0.00    -0.532 OA
HETATM   29  O   UNL     1       3.028  35.055  66.636  1.00  0.00    -0.532 OA
ENDBRANCH  23  27
ENDBRANCH   2  21
BRANCH   6  30
HETATM   30  O   UNL     1       1.605  33.682  60.752  1.00  0.00    -0.355 OA
HETATM   31  H   UNL     1       1.288  34.595  60.629  1.00  0.00     0.218 HD
ENDBRANCH   6  30
BRANCH   3  32
HETATM   32  C   UNL     1       6.210  31.968  61.098  1.00  0.00     0.129 C 
BRANCH  32  33
HETATM   33  C   UNL     1       6.877  32.313  59.761  1.00  0.00     0.048 C 
BRANCH  33  34
HETATM   34  C   UNL     1       7.808  31.275  59.125  1.00  0.00     0.236 C 
BRANCH  34  35
HETATM   35  N   UNL     1       7.102  30.053  58.607  1.00  0.00    -0.067 N 
HETATM   36  H   UNL     1       6.749  29.555  59.451  1.00  0.00     0.280 HD
HETATM   37  C   UNL     1       5.970  30.312  57.631  1.00  0.00     0.261 C 
HETATM   38  C   UNL     1       5.316  28.985  57.228  1.00  0.00     0.195 C 
HETATM   39  O   UNL     1       6.277  28.089  56.661  1.00  0.00    -0.388 OA
HETATM   40  C   UNL     1       7.320  27.778  57.594  1.00  0.00     0.195 C 
HETATM   41  C   UNL     1       8.082  29.046  58.001  1.00  0.00     0.261 C 
ENDBRANCH  34  35
ENDBRANCH  33  34
ENDBRANCH  32  33
ENDBRANCH   3  32
TORSDOF 11
ENDMDL
MODEL 10
REMARK VINA RESULT:      -8.0      3.598      9.242
REMARK  11 active torsions:
REMARK  status: ('A' for Active; 'I' for Inactive)
REMARK    1  A    between atoms: C_3  and  C_4 
REMARK    2  A    between atoms: C_4  and  O_5 
REMARK    3  A    between atoms: C_12  and  C_13 
REMARK    4  A    between atoms: C_13  and  C_14 
REMARK    5  A    between atoms: C_15  and  C_16 
REMARK    6  A    between atoms: C_18  and  N_19 
REMARK    7  A    between atoms: N_25  and  C_26 
REMARK    8  A    between atoms: C_26  and  C_27 
REMARK    9  A    between atoms: C_27  and  C_28 
REMARK   10  A    between atoms: C_28  and  N_29 
REMARK   11  A    between atoms: C_38  and  O_39 
ROOT
HETATM    1  C   UNL     1       6.072  28.065  54.312  1.00  0.00     0.059 C 
HETATM    2  C   UNL     1       5.553  28.713  53.051  1.00  0.00     0.161 C 
HETATM    3  N   UNL     1       4.311  29.312  53.516  1.00  0.00    -0.333 N 
HETATM    4  C   UNL     1       4.155  29.129  54.874  1.00  0.00     0.278 C 
HETATM    5  O   UNL     1       3.318  29.687  55.567  1.00  0.00    -0.265 OA
HETATM    6  C   UNL     1       5.215  28.200  55.336  1.00  0.00     0.146 C 
ENDROOT
BRANCH   1   7
HETATM    7  C   UNL     1       7.410  27.431  54.208  1.00  0.00     0.196 C 
HETATM    8  O   UNL     1       8.373  28.095  53.843  1.00  0.00    -0.287 OA
BRANCH   7   9
HETATM    9  C   UNL     1       7.542  26.019  54.556  1.00  0.00     0.045 A 
HETATM   10  C   UNL     1       7.781  24.948  53.618  1.00  0.00    -0.013 A 
HETATM   11  C   UNL     1       7.870  25.095  52.132  1.00  0.00     0.052 C 
HETATM   12  C   UNL     1       7.960  23.778  54.350  1.00  0.00     0.115 A 
HETATM   13  N   UNL     1       7.782  24.105  55.673  1.00  0.00    -0.354 N 
HETATM   14  H   UNL     1       7.876  23.430  56.425  1.00  0.00     0.166 HD
HETATM   15  C   UNL     1       7.608  25.459  55.826  1.00  0.00     0.020 A 
HETATM   16  C   UNL     1       7.578  26.045  57.195  1.00  0.00     0.069 C 
BRANCH  12  17
HETATM   17  C   UNL     1       8.303  22.420  53.978  1.00  0.00     0.310 C 
HETATM   18  O   UNL     1       7.716  21.787  53.110  1.00  0.00    -0.258 OA
BRANCH  17  19
HETATM   19  O   UNL     1       9.317  21.943  54.745  1.00  0.00    -0.321 OA
HETATM   20  C   UNL     1       9.008  20.734  55.439  1.00  0.00     0.213 C 
ENDBRANCH  17  19
ENDBRANCH  12  17
ENDBRANCH   7   9
ENDBRANCH   1   7
BRANCH   2  21
HETATM   21  C   UNL     1       5.281  27.784  51.878  1.00  0.00    -0.028 A 
HETATM   22  C   UNL     1       5.412  28.207  50.543  1.00  0.00     0.045 A 
HETATM   23  C   UNL     1       5.126  27.321  49.490  1.00  0.00     0.103 A 
HETATM   24  C   UNL     1       4.733  26.005  49.750  1.00  0.00     0.036 A 
HETATM   25  C   UNL     1       4.620  25.576  51.071  1.00  0.00     0.003 A 
HETATM   26  C   UNL     1       4.890  26.456  52.123  1.00  0.00     0.010 A 
BRANCH  23  27
HETATM   27  N   UNL     1       5.248  27.786  48.102  1.00  0.00    -0.116 N 
HETATM   28  O   UNL     1       5.311  26.921  47.216  1.00  0.00    -0.532 OA
HETATM   29  O   UNL     1       5.256  29.007  47.899  1.00  0.00    -0.532 OA
ENDBRANCH  23  27
ENDBRANCH   2  21
BRANCH   6  30
HETATM   30  O   UNL     1       5.233  27.714  56.606  1.00  0.00    -0.355 OA
HETATM   31  H   UNL     1       6.065  27.235  56.776  1.00  0.00     0.218 HD
ENDBRANCH   6  30
BRANCH   3  32
HETATM   32  C   UNL     1       3.633  30.357  52.770  1.00  0.00     0.129 C 
BRANCH  32  33
HETATM   33  C   UNL     1       2.621  29.849  51.737  1.00  0.00     0.048 C 
BRANCH  33  34
HETATM   34  C   UNL     1       2.512  30.592  50.400  1.00  0.00     0.236 C 
BRANCH  34  35
HETATM   35  N   UNL     1       2.415  29.689  49.202  1.00  0.00    -0.067 N 
HETATM   36  H   UNL     1       3.397  29.454  48.949  1.00  0.00     0.280 HD
HETATM   37  C   UNL     1       1.599  28.425  49.396  1.00  0.00     0.261 C 
HETATM   38  C   UNL     1       1.629  27.585  48.115  1.00  0.00     0.195 C 
HETATM   39  O   UNL     1       1.142  28.333  46.997  1.00  0.00    -0.388 OA
HETATM   40  C   UNL     1       1.943  29.497  46.755  1.00  0.00     0.195 C 
HETATM   41  C   UNL     1       1.914  30.439  47.966  1.00  0.00     0.261 C 
ENDBRANCH  34  35
ENDBRANCH  33  34
ENDBRANCH  32  33
ENDBRANCH   3  32
TORSDOF 11
ENDMDL
