MODEL 1
REMARK VINA RESULT:      -9.6      0.000      0.000
REMARK  3 active torsions:
REMARK  status: ('A' for Active; 'I' for Inactive)
REMARK    1  A    between atoms: C_2  and  N_3 
REMARK    2  A    between atoms: C_2  and  C_10 
REMARK    3  A    between atoms: C_13  and  C_14 
ROOT
HETATM    1  C   UNL     1       8.838  31.107  60.405  1.00  0.00    -0.028 A 
HETATM    2  C   UNL     1       8.116  32.306  60.291  1.00  0.00     0.010 A 
HETATM    3  C   UNL     1       7.456  32.859  61.398  1.00  0.00     0.013 A 
HETATM    4  C   UNL     1       7.503  32.243  62.657  1.00  0.00    -0.024 A 
HETATM    5  C   UNL     1       8.253  31.063  62.771  1.00  0.00     0.013 A 
HETATM    6  C   UNL     1       8.905  30.500  61.667  1.00  0.00     0.010 A 
ENDROOT
BRANCH   4   7
HETATM    7  C   UNL     1       6.769  32.795  63.812  1.00  0.00    -0.006 A 
HETATM    8  C   UNL     1       5.366  32.753  63.866  1.00  0.00     0.131 A 
HETATM    9  N   UNL     1       4.572  33.216  64.859  1.00  0.00    -0.239 NA
HETATM   10  C   UNL     1       5.242  33.780  65.885  1.00  0.00     0.177 A 
HETATM   11  C   UNL     1       6.627  33.877  65.925  1.00  0.00     0.082 A 
HETATM   12  N   UNL     1       4.672  34.324  67.000  1.00  0.00    -0.222 NA
HETATM   13  N   UNL     1       6.882  34.508  67.115  1.00  0.00    -0.348 N 
HETATM   14  C   UNL     1       7.435  33.389  64.897  1.00  0.00     0.047 A 
HETATM   15  H   UNL     1       7.788  34.754  67.485  1.00  0.00     0.167 HD
HETATM   16  C   UNL     1       5.680  34.756  67.721  1.00  0.00     0.210 A 
ENDBRANCH   4   7
BRANCH   1  17
HETATM   17  C   UNL     1       9.517  30.523  59.176  1.00  0.00     0.217 C 
HETATM   18  C   UNL     1      10.148  31.559  58.240  1.00  0.00     0.045 C 
BRANCH  17  19
HETATM   19  N   UNL     1       8.597  29.562  58.419  1.00  0.00    -0.063 N 
HETATM   20  H   UNL     1       8.396  28.823  59.106  1.00  0.00     0.280 HD
HETATM   21  C   UNL     1       7.251  30.131  58.026  1.00  0.00     0.235 C 
HETATM   22  C   UNL     1       6.363  29.012  57.495  1.00  0.00     0.028 C 
HETATM   23  C   UNL     1       7.020  28.275  56.334  1.00  0.00     0.003 C 
HETATM   24  C   UNL     1       8.403  27.765  56.721  1.00  0.00     0.028 C 
HETATM   25  C   UNL     1       9.285  28.885  57.254  1.00  0.00     0.235 C 
ENDBRANCH  17  19
ENDBRANCH   1  17
TORSDOF 3
ENDMDL
MODEL 2
REMARK VINA RESULT:      -9.1      5.246     11.427
REMARK  3 active torsions:
REMARK  status: ('A' for Active; 'I' for Inactive)
REMARK    1  A    between atoms: C_2  and  N_3 
REMARK    2  A    between atoms: C_2  and  C_10 
REMARK    3  A    between atoms: C_13  and  C_14 
ROOT
HETATM    1  C   UNL     1       7.036  27.690  57.068  1.00  0.00    -0.028 A 
HETATM    2  C   UNL     1       6.636  27.283  55.785  1.00  0.00     0.010 A 
HETATM    3  C   UNL     1       6.895  25.983  55.328  1.00  0.00     0.013 A 
HETATM    4  C   UNL     1       7.550  25.042  56.136  1.00  0.00    -0.024 A 
HETATM    5  C   UNL     1       7.919  25.446  57.428  1.00  0.00     0.013 A 
HETATM    6  C   UNL     1       7.672  26.746  57.887  1.00  0.00     0.010 A 
ENDROOT
BRANCH   4   7
HETATM    7  C   UNL     1       7.869  23.690  55.640  1.00  0.00    -0.006 A 
HETATM    8  C   UNL     1       8.306  22.681  56.514  1.00  0.00     0.131 A 
HETATM    9  N   UNL     1       8.628  21.406  56.195  1.00  0.00    -0.239 NA
HETATM   10  C   UNL     1       8.512  21.118  54.883  1.00  0.00     0.177 A 
HETATM   11  C   UNL     1       8.096  22.046  53.936  1.00  0.00     0.082 A 
HETATM   12  N   UNL     1       8.781  19.908  54.310  1.00  0.00    -0.222 NA
HETATM   13  N   UNL     1       8.124  21.350  52.755  1.00  0.00    -0.348 N 
HETATM   14  C   UNL     1       7.759  23.356  54.279  1.00  0.00     0.047 A 
HETATM   15  H   UNL     1       7.885  21.706  51.841  1.00  0.00     0.167 HD
HETATM   16  C   UNL     1       8.542  20.076  53.031  1.00  0.00     0.210 A 
ENDBRANCH   4   7
BRANCH   1  17
HETATM   17  C   UNL     1       6.762  29.117  57.519  1.00  0.00     0.217 C 
HETATM   18  C   UNL     1       6.049  29.990  56.483  1.00  0.00     0.045 C 
BRANCH  17  19
HETATM   19  N   UNL     1       8.023  29.795  58.060  1.00  0.00    -0.063 N 
HETATM   20  H   UNL     1       8.335  29.168  58.814  1.00  0.00     0.280 HD
HETATM   21  C   UNL     1       9.181  29.873  57.090  1.00  0.00     0.235 C 
HETATM   22  C   UNL     1      10.427  30.354  57.825  1.00  0.00     0.028 C 
HETATM   23  C   UNL     1      10.190  31.688  58.522  1.00  0.00     0.003 C 
HETATM   24  C   UNL     1       8.979  31.617  59.445  1.00  0.00     0.028 C 
HETATM   25  C   UNL     1       7.739  31.132  58.708  1.00  0.00     0.235 C 
ENDBRANCH  17  19
ENDBRANCH   1  17
TORSDOF 3
ENDMDL
MODEL 3
REMARK VINA RESULT:      -9.1      4.074      7.908
REMARK  3 active torsions:
REMARK  status: ('A' for Active; 'I' for Inactive)
REMARK    1  A    between atoms: C_2  and  N_3 
REMARK    2  A    between atoms: C_2  and  C_10 
REMARK    3  A    between atoms: C_13  and  C_14 
ROOT
HETATM    1  C   UNL     1       7.440  26.046  54.771  1.00  0.00    -0.028 A 
HETATM    2  C   UNL     1       7.571  27.356  54.283  1.00  0.00     0.010 A 
HETATM    3  C   UNL     1       7.968  28.404  55.126  1.00  0.00     0.013 A 
HETATM    4  C   UNL     1       8.260  28.180  56.480  1.00  0.00    -0.024 A 
HETATM    5  C   UNL     1       8.158  26.863  56.953  1.00  0.00     0.013 A 
HETATM    6  C   UNL     1       7.752  25.814  56.118  1.00  0.00     0.010 A 
ENDROOT
BRANCH   4   7
HETATM    7  C   UNL     1       8.628  29.288  57.382  1.00  0.00    -0.006 A 
HETATM    8  C   UNL     1       9.826  30.000  57.202  1.00  0.00     0.131 A 
HETATM    9  N   UNL     1      10.282  31.032  57.949  1.00  0.00    -0.239 NA
HETATM   10  C   UNL     1       9.473  31.375  58.972  1.00  0.00     0.177 A 
HETATM   11  C   UNL     1       8.272  30.730  59.239  1.00  0.00     0.082 A 
HETATM   12  N   UNL     1       9.710  32.376  59.869  1.00  0.00    -0.222 NA
HETATM   13  N   UNL     1       7.784  31.380  60.342  1.00  0.00    -0.348 N 
HETATM   14  C   UNL     1       7.809  29.671  58.456  1.00  0.00     0.047 A 
HETATM   15  H   UNL     1       6.921  31.179  60.828  1.00  0.00     0.167 HD
HETATM   16  C   UNL     1       8.681  32.356  60.683  1.00  0.00     0.210 A 
ENDBRANCH   4   7
BRANCH   1  17
HETATM   17  C   UNL     1       6.980  24.941  53.833  1.00  0.00     0.217 C 
HETATM   18  C   UNL     1       5.461  24.805  53.699  1.00  0.00     0.045 C 
BRANCH  17  19
HETATM   19  N   UNL     1       7.642  23.601  54.163  1.00  0.00    -0.063 N 
HETATM   20  H   UNL     1       8.615  23.855  54.380  1.00  0.00     0.280 HD
HETATM   21  C   UNL     1       7.115  22.909  55.401  1.00  0.00     0.235 C 
HETATM   22  C   UNL     1       8.009  21.720  55.737  1.00  0.00     0.028 C 
HETATM   23  C   UNL     1       8.127  20.755  54.563  1.00  0.00     0.003 C 
HETATM   24  C   UNL     1       8.593  21.478  53.304  1.00  0.00     0.028 C 
HETATM   25  C   UNL     1       7.700  22.666  52.975  1.00  0.00     0.235 C 
ENDBRANCH  17  19
ENDBRANCH   1  17
TORSDOF 3
ENDMDL
MODEL 4
REMARK VINA RESULT:      -8.8      1.942      9.119
REMARK  3 active torsions:
REMARK  status: ('A' for Active; 'I' for Inactive)
REMARK    1  A    between atoms: C_2  and  N_3 
REMARK    2  A    between atoms: C_2  and  C_10 
REMARK    3  A    between atoms: C_13  and  C_14 
ROOT
HETATM    1  C   UNL     1       5.704  33.954  66.115  1.00  0.00    -0.028 A 
HETATM    2  C   UNL     1       7.060  33.788  65.791  1.00  0.00     0.010 A 
HETATM    3  C   UNL     1       7.449  33.326  64.525  1.00  0.00     0.013 A 
HETATM    4  C   UNL     1       6.500  33.025  63.536  1.00  0.00    -0.024 A 
HETATM    5  C   UNL     1       5.149  33.224  63.856  1.00  0.00     0.013 A 
HETATM    6  C   UNL     1       4.754  33.676  65.122  1.00  0.00     0.010 A 
ENDROOT
BRANCH   4   7
HETATM    7  C   UNL     1       6.902  32.491  62.221  1.00  0.00    -0.006 A 
HETATM    8  C   UNL     1       6.106  32.695  61.082  1.00  0.00     0.131 A 
HETATM    9  N   UNL     1       6.355  32.265  59.823  1.00  0.00    -0.239 NA
HETATM   10  C   UNL     1       7.498  31.561  59.696  1.00  0.00     0.177 A 
HETATM   11  C   UNL     1       8.351  31.298  60.760  1.00  0.00     0.082 A 
HETATM   12  N   UNL     1       7.968  31.017  58.535  1.00  0.00    -0.222 NA
HETATM   13  N   UNL     1       9.366  30.566  60.200  1.00  0.00    -0.348 N 
HETATM   14  C   UNL     1       8.086  31.753  62.053  1.00  0.00     0.047 A 
HETATM   15  H   UNL     1      10.173  30.191  60.677  1.00  0.00     0.167 HD
HETATM   16  C   UNL     1       9.091  30.423  58.867  1.00  0.00     0.210 A 
ENDBRANCH   4   7
BRANCH   1  17
HETATM   17  C   UNL     1       5.321  34.431  67.507  1.00  0.00     0.217 C 
HETATM   18  C   UNL     1       4.886  35.897  67.585  1.00  0.00     0.045 C 
BRANCH  17  19
HETATM   19  N   UNL     1       6.404  34.105  68.539  1.00  0.00    -0.063 N 
HETATM   20  H   UNL     1       7.042  33.475  68.034  1.00  0.00     0.280 HD
HETATM   21  C   UNL     1       7.251  35.279  68.978  1.00  0.00     0.235 C 
HETATM   22  C   UNL     1       8.420  34.775  69.816  1.00  0.00     0.028 C 
HETATM   23  C   UNL     1       7.946  33.950  71.007  1.00  0.00     0.003 C 
HETATM   24  C   UNL     1       7.038  32.811  70.557  1.00  0.00     0.028 C 
HETATM   25  C   UNL     1       5.874  33.319  69.718  1.00  0.00     0.235 C 
ENDBRANCH  17  19
ENDBRANCH   1  17
TORSDOF 3
ENDMDL
MODEL 5
REMARK VINA RESULT:      -8.7     11.173     13.279
REMARK  3 active torsions:
REMARK  status: ('A' for Active; 'I' for Inactive)
REMARK    1  A    between atoms: C_2  and  N_3 
REMARK    2  A    between atoms: C_2  and  C_10 
REMARK    3  A    between atoms: C_13  and  C_14 
ROOT
HETATM    1  C   UNL     1       5.319  26.727  51.451  1.00  0.00    -0.028 A 
HETATM    2  C   UNL     1       4.571  25.603  51.836  1.00  0.00     0.010 A 
HETATM    3  C   UNL     1       5.132  24.607  52.649  1.00  0.00     0.013 A 
HETATM    4  C   UNL     1       6.451  24.704  53.115  1.00  0.00    -0.024 A 
HETATM    5  C   UNL     1       7.182  25.845  52.753  1.00  0.00     0.013 A 
HETATM    6  C   UNL     1       6.631  26.838  51.933  1.00  0.00     0.010 A 
ENDROOT
BRANCH   4   7
HETATM    7  C   UNL     1       7.061  23.635  53.929  1.00  0.00    -0.006 A 
HETATM    8  C   UNL     1       7.195  23.770  55.321  1.00  0.00     0.131 A 
HETATM    9  N   UNL     1       7.730  22.872  56.181  1.00  0.00    -0.239 NA
HETATM   10  C   UNL     1       8.177  21.743  55.595  1.00  0.00     0.177 A 
HETATM   11  C   UNL     1       8.097  21.515  54.227  1.00  0.00     0.082 A 
HETATM   12  N   UNL     1       8.760  20.691  56.242  1.00  0.00    -0.222 NA
HETATM   13  N   UNL     1       8.659  20.275  54.064  1.00  0.00    -0.348 N 
HETATM   14  C   UNL     1       7.537  22.446  53.351  1.00  0.00     0.047 A 
HETATM   15  H   UNL     1       8.779  19.777  53.193  1.00  0.00     0.167 HD
HETATM   16  C   UNL     1       9.042  19.824  55.298  1.00  0.00     0.210 A 
ENDBRANCH   4   7
BRANCH   1  17
HETATM   17  C   UNL     1       4.685  27.772  50.546  1.00  0.00     0.217 C 
HETATM   18  C   UNL     1       4.047  28.954  51.282  1.00  0.00     0.045 C 
BRANCH  17  19
HETATM   19  N   UNL     1       3.720  27.143  49.539  1.00  0.00    -0.063 N 
HETATM   20  H   UNL     1       3.249  26.404  50.078  1.00  0.00     0.280 HD
HETATM   21  C   UNL     1       2.617  28.054  49.046  1.00  0.00     0.235 C 
HETATM   22  C   UNL     1       1.610  27.241  48.241  1.00  0.00     0.028 C 
HETATM   23  C   UNL     1       2.277  26.496  47.091  1.00  0.00     0.003 C 
HETATM   24  C   UNL     1       3.430  25.634  47.592  1.00  0.00     0.028 C 
HETATM   25  C   UNL     1       4.432  26.450  48.398  1.00  0.00     0.235 C 
ENDBRANCH  17  19
ENDBRANCH   1  17
TORSDOF 3
ENDMDL
MODEL 6
REMARK VINA RESULT:      -8.7     10.606     13.343
REMARK  3 active torsions:
REMARK  status: ('A' for Active; 'I' for Inactive)
REMARK    1  A    between atoms: C_2  and  N_3 
REMARK    2  A    between atoms: C_2  and  C_10 
REMARK    3  A    between atoms: C_13  and  C_14 
ROOT
HETATM    1  C   UNL     1       6.650  24.700  54.282  1.00  0.00    -0.028 A 
HETATM    2  C   UNL     1       7.560  25.314  53.406  1.00  0.00     0.010 A 
HETATM    3  C   UNL     1       7.113  26.007  52.272  1.00  0.00     0.013 A 
HETATM    4  C   UNL     1       5.746  26.122  51.979  1.00  0.00    -0.024 A 
HETATM    5  C   UNL     1       4.842  25.534  52.876  1.00  0.00     0.013 A 
HETATM    6  C   UNL     1       5.282  24.831  54.005  1.00  0.00     0.010 A 
ENDROOT
BRANCH   4   7
HETATM    7  C   UNL     1       5.274  26.806  50.760  1.00  0.00    -0.006 A 
HETATM    8  C   UNL     1       4.644  26.093  49.726  1.00  0.00     0.131 A 
HETATM    9  N   UNL     1       4.164  26.593  48.564  1.00  0.00    -0.239 NA
HETATM   10  C   UNL     1       4.339  27.922  48.419  1.00  0.00     0.177 A 
HETATM   11  C   UNL     1       4.956  28.716  49.378  1.00  0.00     0.082 A 
HETATM   12  N   UNL     1       3.949  28.660  47.339  1.00  0.00    -0.222 NA
HETATM   13  N   UNL     1       4.928  29.974  48.836  1.00  0.00    -0.348 N 
HETATM   14  C   UNL     1       5.440  28.189  50.577  1.00  0.00     0.047 A 
HETATM   15  H   UNL     1       5.294  30.818  49.253  1.00  0.00     0.167 HD
HETATM   16  C   UNL     1       4.317  29.889  47.615  1.00  0.00     0.210 A 
ENDBRANCH   4   7
BRANCH   1  17
HETATM   17  C   UNL     1       7.174  23.934  55.487  1.00  0.00     0.217 C 
HETATM   18  C   UNL     1       8.376  24.579  56.183  1.00  0.00     0.045 C 
BRANCH  17  19
HETATM   19  N   UNL     1       7.433  22.462  55.157  1.00  0.00    -0.063 N 
HETATM   20  H   UNL     1       6.496  22.038  55.176  1.00  0.00     0.280 HD
HETATM   21  C   UNL     1       7.973  22.197  53.769  1.00  0.00     0.235 C 
HETATM   22  C   UNL     1       7.963  20.696  53.499  1.00  0.00     0.028 C 
HETATM   23  C   UNL     1       8.742  19.928  54.560  1.00  0.00     0.003 C 
HETATM   24  C   UNL     1       8.234  20.256  55.959  1.00  0.00     0.028 C 
HETATM   25  C   UNL     1       8.242  21.755  56.223  1.00  0.00     0.235 C 
ENDBRANCH  17  19
ENDBRANCH   1  17
TORSDOF 3
ENDMDL
MODEL 7
REMARK VINA RESULT:      -8.6     10.287     13.374
REMARK  3 active torsions:
REMARK  status: ('A' for Active; 'I' for Inactive)
REMARK    1  A    between atoms: C_2  and  N_3 
REMARK    2  A    between atoms: C_2  and  C_10 
REMARK    3  A    between atoms: C_13  and  C_14 
ROOT
HETATM    1  C   UNL     1       6.968  24.618  54.458  1.00  0.00    -0.028 A 
HETATM    2  C   UNL     1       5.582  24.695  54.251  1.00  0.00     0.010 A 
HETATM    3  C   UNL     1       5.055  25.362  53.135  1.00  0.00     0.013 A 
HETATM    4  C   UNL     1       5.892  25.963  52.183  1.00  0.00    -0.024 A 
HETATM    5  C   UNL     1       7.277  25.854  52.380  1.00  0.00     0.013 A 
HETATM    6  C   UNL     1       7.808  25.199  53.498  1.00  0.00     0.010 A 
ENDROOT
BRANCH   4   7
HETATM    7  C   UNL     1       5.342  26.708  51.035  1.00  0.00    -0.006 A 
HETATM    8  C   UNL     1       5.470  28.105  50.948  1.00  0.00     0.131 A 
HETATM    9  N   UNL     1       5.018  28.907  49.956  1.00  0.00    -0.239 NA
HETATM   10  C   UNL     1       4.371  28.255  48.969  1.00  0.00     0.177 A 
HETATM   11  C   UNL     1       4.184  26.878  48.963  1.00  0.00     0.082 A 
HETATM   12  N   UNL     1       3.819  28.836  47.864  1.00  0.00    -0.222 NA
HETATM   13  N   UNL     1       3.491  26.641  47.805  1.00  0.00    -0.348 N 
HETATM   14  C   UNL     1       4.663  26.061  49.989  1.00  0.00     0.047 A 
HETATM   15  H   UNL     1       3.173  25.745  47.465  1.00  0.00     0.167 HD
HETATM   16  C   UNL     1       3.295  27.844  47.183  1.00  0.00     0.210 A 
ENDBRANCH   4   7
BRANCH   1  17
HETATM   17  C   UNL     1       7.501  23.911  55.695  1.00  0.00     0.217 C 
HETATM   18  C   UNL     1       8.339  24.792  56.626  1.00  0.00     0.045 C 
BRANCH  17  19
HETATM   19  N   UNL     1       8.226  22.611  55.339  1.00  0.00    -0.063 N 
HETATM   20  H   UNL     1       9.194  22.910  55.164  1.00  0.00     0.280 HD
HETATM   21  C   UNL     1       8.309  21.592  56.454  1.00  0.00     0.235 C 
HETATM   22  C   UNL     1       9.245  20.462  56.040  1.00  0.00     0.028 C 
HETATM   23  C   UNL     1       8.809  19.821  54.728  1.00  0.00     0.003 C 
HETATM   24  C   UNL     1       8.662  20.868  53.629  1.00  0.00     0.028 C 
HETATM   25  C   UNL     1       7.730  21.996  54.049  1.00  0.00     0.235 C 
ENDBRANCH  17  19
ENDBRANCH   1  17
TORSDOF 3
ENDMDL
MODEL 8
REMARK VINA RESULT:      -8.3      6.789      8.843
REMARK  3 active torsions:
REMARK  status: ('A' for Active; 'I' for Inactive)
REMARK    1  A    between atoms: C_2  and  N_3 
REMARK    2  A    between atoms: C_2  and  C_10 
REMARK    3  A    between atoms: C_13  and  C_14 
ROOT
HETATM    1  C   UNL     1       6.942  25.435  56.651  1.00  0.00    -0.028 A 
HETATM    2  C   UNL     1       5.545  25.426  56.789  1.00  0.00     0.010 A 
HETATM    3  C   UNL     1       4.802  26.610  56.685  1.00  0.00     0.013 A 
HETATM    4  C   UNL     1       5.424  27.841  56.429  1.00  0.00    -0.024 A 
HETATM    5  C   UNL     1       6.817  27.838  56.260  1.00  0.00     0.013 A 
HETATM    6  C   UNL     1       7.565  26.660  56.373  1.00  0.00     0.010 A 
ENDROOT
BRANCH   4   7
HETATM    7  C   UNL     1       4.652  29.097  56.369  1.00  0.00    -0.006 A 
HETATM    8  C   UNL     1       4.525  29.924  57.497  1.00  0.00     0.131 A 
HETATM    9  N   UNL     1       3.853  31.096  57.580  1.00  0.00    -0.239 NA
HETATM   10  C   UNL     1       3.246  31.467  56.435  1.00  0.00     0.177 A 
HETATM   11  C   UNL     1       3.304  30.717  55.267  1.00  0.00     0.082 A 
HETATM   12  N   UNL     1       2.505  32.601  56.262  1.00  0.00    -0.222 NA
HETATM   13  N   UNL     1       2.563  31.442  54.369  1.00  0.00    -0.348 N 
HETATM   14  C   UNL     1       4.007  29.514  55.193  1.00  0.00     0.047 A 
HETATM   15  H   UNL     1       2.378  31.200  53.406  1.00  0.00     0.167 HD
HETATM   16  C   UNL     1       2.105  32.559  55.013  1.00  0.00     0.210 A 
ENDBRANCH   4   7
BRANCH   1  17
HETATM   17  C   UNL     1       7.717  24.134  56.798  1.00  0.00     0.217 C 
HETATM   18  C   UNL     1       9.181  24.303  57.214  1.00  0.00     0.045 C 
BRANCH  17  19
HETATM   19  N   UNL     1       7.578  23.246  55.559  1.00  0.00    -0.063 N 
HETATM   20  H   UNL     1       6.562  23.117  55.462  1.00  0.00     0.280 HD
HETATM   21  C   UNL     1       8.036  23.874  54.260  1.00  0.00     0.235 C 
HETATM   22  C   UNL     1       7.630  22.980  53.094  1.00  0.00     0.028 C 
HETATM   23  C   UNL     1       8.173  21.565  53.254  1.00  0.00     0.003 C 
HETATM   24  C   UNL     1       7.763  20.968  54.595  1.00  0.00     0.028 C 
HETATM   25  C   UNL     1       8.166  21.866  55.756  1.00  0.00     0.235 C 
ENDBRANCH  17  19
ENDBRANCH   1  17
TORSDOF 3
ENDMDL
MODEL 9
REMARK VINA RESULT:      -8.3      1.961      8.742
REMARK  3 active torsions:
REMARK  status: ('A' for Active; 'I' for Inactive)
REMARK    1  A    between atoms: C_2  and  N_3 
REMARK    2  A    between atoms: C_2  and  C_10 
REMARK    3  A    between atoms: C_13  and  C_14 
ROOT
HETATM    1  C   UNL     1       5.022  33.026  62.250  1.00  0.00    -0.028 A 
HETATM    2  C   UNL     1       6.347  32.930  62.704  1.00  0.00     0.010 A 
HETATM    3  C   UNL     1       7.372  32.496  61.851  1.00  0.00     0.013 A 
HETATM    4  C   UNL     1       7.113  32.155  60.515  1.00  0.00    -0.024 A 
HETATM    5  C   UNL     1       5.793  32.284  60.059  1.00  0.00     0.013 A 
HETATM    6  C   UNL     1       4.763  32.707  60.910  1.00  0.00     0.010 A 
ENDROOT
BRANCH   4   7
HETATM    7  C   UNL     1       8.179  31.650  59.629  1.00  0.00    -0.006 A 
HETATM    8  C   UNL     1       9.403  32.330  59.506  1.00  0.00     0.131 A 
HETATM    9  N   UNL     1      10.459  31.978  58.737  1.00  0.00    -0.239 NA
HETATM   10  C   UNL     1      10.271  30.852  58.020  1.00  0.00     0.177 A 
HETATM   11  C   UNL     1       9.097  30.111  58.065  1.00  0.00     0.082 A 
HETATM   12  N   UNL     1      11.181  30.294  57.169  1.00  0.00    -0.222 NA
HETATM   13  N   UNL     1       9.327  29.073  57.200  1.00  0.00    -0.348 N 
HETATM   14  C   UNL     1       8.017  30.481  58.868  1.00  0.00     0.047 A 
HETATM   15  H   UNL     1       8.686  28.326  56.971  1.00  0.00     0.167 HD
HETATM   16  C   UNL     1      10.586  29.227  56.687  1.00  0.00     0.210 A 
ENDBRANCH   4   7
BRANCH   1  17
HETATM   17  C   UNL     1       3.932  33.474  63.212  1.00  0.00     0.217 C 
HETATM   18  C   UNL     1       2.664  34.008  62.541  1.00  0.00     0.045 C 
BRANCH  17  19
HETATM   19  N   UNL     1       4.468  34.447  64.265  1.00  0.00    -0.063 N 
HETATM   20  H   UNL     1       5.472  34.515  64.049  1.00  0.00     0.280 HD
HETATM   21  C   UNL     1       3.933  35.859  64.172  1.00  0.00     0.235 C 
HETATM   22  C   UNL     1       4.715  36.762  65.119  1.00  0.00     0.028 C 
HETATM   23  C   UNL     1       4.677  36.243  66.551  1.00  0.00     0.003 C 
HETATM   24  C   UNL     1       5.154  34.796  66.623  1.00  0.00     0.028 C 
HETATM   25  C   UNL     1       4.373  33.900  65.673  1.00  0.00     0.235 C 
ENDBRANCH  17  19
ENDBRANCH   1  17
TORSDOF 3
ENDMDL
MODEL 10
REMARK VINA RESULT:      -8.2      3.294      6.317
REMARK  3 active torsions:
REMARK  status: ('A' for Active; 'I' for Inactive)
REMARK    1  A    between atoms: C_2  and  N_3 
REMARK    2  A    between atoms: C_2  and  C_10 
REMARK    3  A    between atoms: C_13  and  C_14 
ROOT
HETATM    1  C   UNL     1       7.020  28.312  54.672  1.00  0.00    -0.028 A 
HETATM    2  C   UNL     1       5.907  28.983  55.205  1.00  0.00     0.010 A 
HETATM    3  C   UNL     1       6.010  29.720  56.393  1.00  0.00     0.013 A 
HETATM    4  C   UNL     1       7.227  29.824  57.084  1.00  0.00    -0.024 A 
HETATM    5  C   UNL     1       8.342  29.178  56.528  1.00  0.00     0.013 A 
HETATM    6  C   UNL     1       8.242  28.431  55.347  1.00  0.00     0.010 A 
ENDROOT
BRANCH   4   7
HETATM    7  C   UNL     1       7.328  30.556  58.360  1.00  0.00    -0.006 A 
HETATM    8  C   UNL     1       6.506  31.663  58.628  1.00  0.00     0.131 A 
HETATM    9  N   UNL     1       6.492  32.418  59.751  1.00  0.00    -0.239 NA
HETATM   10  C   UNL     1       7.388  32.037  60.684  1.00  0.00     0.177 A 
HETATM   11  C   UNL     1       8.250  30.962  60.515  1.00  0.00     0.082 A 
HETATM   12  N   UNL     1       7.573  32.638  61.897  1.00  0.00    -0.222 NA
HETATM   13  N   UNL     1       8.975  30.931  61.678  1.00  0.00    -0.348 N 
HETATM   14  C   UNL     1       8.249  30.186  59.354  1.00  0.00     0.047 A 
HETATM   15  H   UNL     1       9.708  30.277  61.914  1.00  0.00     0.167 HD
HETATM   16  C   UNL     1       8.534  31.954  62.472  1.00  0.00     0.210 A 
ENDBRANCH   4   7
BRANCH   1  17
HETATM   17  C   UNL     1       6.862  27.500  53.395  1.00  0.00     0.217 C 
HETATM   18  C   UNL     1       5.488  27.615  52.728  1.00  0.00     0.045 C 
BRANCH  17  19
HETATM   19  N   UNL     1       7.274  26.039  53.596  1.00  0.00    -0.063 N 
HETATM   20  H   UNL     1       8.228  26.103  53.975  1.00  0.00     0.280 HD
HETATM   21  C   UNL     1       6.473  25.278  54.630  1.00  0.00     0.235 C 
HETATM   22  C   UNL     1       7.132  23.928  54.888  1.00  0.00     0.028 C 
HETATM   23  C   UNL     1       7.295  23.125  53.604  1.00  0.00     0.003 C 
HETATM   24  C   UNL     1       8.044  23.928  52.546  1.00  0.00     0.028 C 
HETATM   25  C   UNL     1       7.384  25.277  52.294  1.00  0.00     0.235 C 
ENDBRANCH  17  19
ENDBRANCH   1  17
TORSDOF 3
ENDMDL
