MODEL 1
REMARK VINA RESULT:      -9.9      0.000      0.000
REMARK  6 active torsions:
REMARK  status: ('A' for Active; 'I' for Inactive)
REMARK    1  A    between atoms: N_3  and  C_4 
REMARK    2  A    between atoms: C_12  and  C_13 
REMARK       I    between atoms: C_13  and  N_14 
REMARK    3  A    between atoms: N_14  and  N_15 
REMARK       I    between atoms: N_15  and  C_16 
REMARK    4  A    between atoms: C_16  and  C_17 
REMARK    5  A    between atoms: C_17  and  C_18 
REMARK    6  A    between atoms: C_23  and  O_24 
ROOT
HETATM    1  C   UNL     1       8.292  31.403  59.725  1.00  0.00     0.272 C 
HETATM    2  N   UNL     1       7.986  30.059  59.630  1.00  0.00    -0.263 N 
HETATM    3  O   UNL     1       8.978  31.971  58.876  1.00  0.00    -0.266 OA
HETATM    4  H   UNL     1       7.330  29.589  60.246  1.00  0.00     0.190 HD
ENDROOT
BRANCH   2   5
HETATM    5  N   UNL     1       8.367  29.360  58.479  1.00  0.00    -0.267 N 
HETATM    6  C   UNL     1       7.379  28.917  57.623  1.00  0.00     0.240 C 
HETATM    7  O   UNL     1       6.188  29.175  57.807  1.00  0.00    -0.272 OA
HETATM    8  H   UNL     1       9.336  29.047  58.430  1.00  0.00     0.190 HD
BRANCH   6   9
HETATM    9  C   UNL     1       7.880  28.177  56.397  1.00  0.00     0.145 C 
BRANCH   9  10
HETATM   10  C   UNL     1       7.699  26.696  56.500  1.00  0.00    -0.021 A 
HETATM   11  C   UNL     1       7.501  25.775  55.421  1.00  0.00     0.001 A 
HETATM   12  C   UNL     1       7.390  24.501  55.973  1.00  0.00     0.043 A 
HETATM   13  C   UNL     1       7.414  25.906  54.019  1.00  0.00     0.051 A 
HETATM   14  C   UNL     1       7.201  23.353  55.195  1.00  0.00     0.033 A 
HETATM   15  N   UNL     1       7.499  24.638  57.336  1.00  0.00    -0.365 N 
HETATM   16  C   UNL     1       7.137  23.511  53.804  1.00  0.00     0.039 A 
HETATM   17  C   UNL     1       7.254  24.770  53.216  1.00  0.00     0.069 A 
HETATM   18  H   UNL     1       7.450  23.873  57.996  1.00  0.00     0.165 HD
HETATM   19  C   UNL     1       7.688  25.953  57.664  1.00  0.00     0.097 A 
BRANCH  17  20
HETATM   20  O   UNL     1       7.206  25.026  51.871  1.00  0.00    -0.356 OA
HETATM   21  C   UNL     1       6.113  25.816  51.421  1.00  0.00     0.210 C 
ENDBRANCH  17  20
ENDBRANCH   9  10
ENDBRANCH   6   9
ENDBRANCH   2   5
BRANCH   1  22
HETATM   22  C   UNL     1       7.739  32.081  60.904  1.00  0.00     0.058 A 
HETATM   23  C   UNL     1       6.569  32.840  60.928  1.00  0.00     0.029 A 
HETATM   24  N   UNL     1       6.405  33.382  62.203  1.00  0.00    -0.319 N 
HETATM   25  C   UNL     1       5.570  33.011  59.825  1.00  0.00     0.070 C 
HETATM   26  C   UNL     1       7.426  32.892  63.012  1.00  0.00     0.014 A 
HETATM   27  C   UNL     1       7.645  33.274  64.437  1.00  0.00     0.068 C 
HETATM   28  C   UNL     1       8.247  32.104  62.230  1.00  0.00     0.044 A 
BRANCH  24  29
HETATM   29  C   UNL     1       5.391  34.303  62.601  1.00  0.00     0.039 A 
HETATM   30  C   UNL     1       5.598  35.680  62.441  1.00  0.00     0.030 A 
HETATM   31  C   UNL     1       4.614  36.585  62.842  1.00  0.00     0.002 A 
HETATM   32  C   UNL     1       3.424  36.123  63.399  1.00  0.00     0.000 A 
HETATM   33  C   UNL     1       3.213  34.754  63.558  1.00  0.00     0.002 A 
HETATM   34  C   UNL     1       4.195  33.843  63.162  1.00  0.00     0.030 A 
ENDBRANCH  24  29
ENDBRANCH   1  22
TORSDOF 6
ENDMDL
MODEL 2
REMARK VINA RESULT:      -9.8      2.407     11.055
REMARK  6 active torsions:
REMARK  status: ('A' for Active; 'I' for Inactive)
REMARK    1  A    between atoms: N_3  and  C_4 
REMARK    2  A    between atoms: C_12  and  C_13 
REMARK       I    between atoms: C_13  and  N_14 
REMARK    3  A    between atoms: N_14  and  N_15 
REMARK       I    between atoms: N_15  and  C_16 
REMARK    4  A    between atoms: C_16  and  C_17 
REMARK    5  A    between atoms: C_17  and  C_18 
REMARK    6  A    between atoms: C_23  and  O_24 
ROOT
HETATM    1  C   UNL     1       6.234  27.961  57.153  1.00  0.00     0.272 C 
HETATM    2  N   UNL     1       5.087  28.727  57.237  1.00  0.00    -0.263 N 
HETATM    3  O   UNL     1       7.234  28.221  57.820  1.00  0.00    -0.266 OA
HETATM    4  H   UNL     1       4.211  28.475  56.792  1.00  0.00     0.190 HD
ENDROOT
BRANCH   2   5
HETATM    5  N   UNL     1       5.027  29.749  58.191  1.00  0.00    -0.267 N 
HETATM    6  C   UNL     1       5.204  31.052  57.770  1.00  0.00     0.240 C 
HETATM    7  O   UNL     1       5.348  31.342  56.580  1.00  0.00    -0.272 OA
HETATM    8  H   UNL     1       5.047  29.467  59.171  1.00  0.00     0.190 HD
BRANCH   6   9
HETATM    9  C   UNL     1       5.114  32.097  58.866  1.00  0.00     0.145 C 
BRANCH   9  10
HETATM   10  C   UNL     1       6.341  32.150  59.719  1.00  0.00    -0.021 A 
HETATM   11  C   UNL     1       6.396  32.324  61.139  1.00  0.00     0.001 A 
HETATM   12  C   UNL     1       7.738  32.302  61.513  1.00  0.00     0.043 A 
HETATM   13  C   UNL     1       5.424  32.489  62.148  1.00  0.00     0.051 A 
HETATM   14  C   UNL     1       8.156  32.434  62.841  1.00  0.00     0.033 A 
HETATM   15  N   UNL     1       8.476  32.139  60.364  1.00  0.00    -0.365 N 
HETATM   16  C   UNL     1       7.168  32.578  63.825  1.00  0.00     0.039 A 
HETATM   17  C   UNL     1       5.815  32.594  63.489  1.00  0.00     0.069 A 
HETATM   18  H   UNL     1       9.485  32.092  60.333  1.00  0.00     0.165 HD
HETATM   19  C   UNL     1       7.647  32.044  59.280  1.00  0.00     0.097 A 
BRANCH  17  20
HETATM   20  O   UNL     1       4.779  32.728  64.375  1.00  0.00    -0.356 OA
HETATM   21  C   UNL     1       4.978  33.648  65.440  1.00  0.00     0.210 C 
ENDBRANCH  17  20
ENDBRANCH   9  10
ENDBRANCH   6   9
ENDBRANCH   2   5
BRANCH   1  22
HETATM   22  C   UNL     1       6.157  26.833  56.217  1.00  0.00     0.058 A 
HETATM   23  C   UNL     1       6.955  25.690  56.258  1.00  0.00     0.029 A 
HETATM   24  N   UNL     1       6.641  24.876  55.169  1.00  0.00    -0.319 N 
HETATM   25  C   UNL     1       7.941  25.303  57.318  1.00  0.00     0.070 C 
HETATM   26  C   UNL     1       5.580  25.465  54.487  1.00  0.00     0.014 A 
HETATM   27  C   UNL     1       4.978  24.939  53.227  1.00  0.00     0.068 C 
HETATM   28  C   UNL     1       5.282  26.659  55.112  1.00  0.00     0.044 A 
BRANCH  24  29
HETATM   29  C   UNL     1       7.310  23.672  54.798  1.00  0.00     0.039 A 
HETATM   30  C   UNL     1       7.258  22.557  55.646  1.00  0.00     0.030 A 
HETATM   31  C   UNL     1       7.922  21.381  55.294  1.00  0.00     0.002 A 
HETATM   32  C   UNL     1       8.635  21.312  54.099  1.00  0.00     0.000 A 
HETATM   33  C   UNL     1       8.687  22.418  53.252  1.00  0.00     0.002 A 
HETATM   34  C   UNL     1       8.027  23.599  53.600  1.00  0.00     0.030 A 
ENDBRANCH  24  29
ENDBRANCH   1  22
TORSDOF 6
ENDMDL
MODEL 3
REMARK VINA RESULT:      -9.8      2.492     10.653
REMARK  6 active torsions:
REMARK  status: ('A' for Active; 'I' for Inactive)
REMARK    1  A    between atoms: N_3  and  C_4 
REMARK    2  A    between atoms: C_12  and  C_13 
REMARK       I    between atoms: C_13  and  N_14 
REMARK    3  A    between atoms: N_14  and  N_15 
REMARK       I    between atoms: N_15  and  C_16 
REMARK    4  A    between atoms: C_16  and  C_17 
REMARK    5  A    between atoms: C_17  and  C_18 
REMARK    6  A    between atoms: C_23  and  O_24 
ROOT
HETATM    1  C   UNL     1       7.606  27.462  57.246  1.00  0.00     0.272 C 
HETATM    2  N   UNL     1       7.827  28.687  56.647  1.00  0.00    -0.263 N 
HETATM    3  O   UNL     1       7.729  27.305  58.460  1.00  0.00    -0.266 OA
HETATM    4  H   UNL     1       7.624  28.879  55.671  1.00  0.00     0.190 HD
ENDROOT
BRANCH   2   5
HETATM    5  N   UNL     1       8.079  29.800  57.458  1.00  0.00    -0.267 N 
HETATM    6  C   UNL     1       9.390  30.101  57.770  1.00  0.00     0.240 C 
HETATM    7  O   UNL     1      10.338  29.464  57.306  1.00  0.00    -0.272 OA
HETATM    8  H   UNL     1       7.278  30.215  57.933  1.00  0.00     0.190 HD
BRANCH   6   9
HETATM    9  C   UNL     1       9.574  31.326  58.645  1.00  0.00     0.145 C 
BRANCH   9  10
HETATM   10  C   UNL     1       8.944  31.176  59.993  1.00  0.00    -0.021 A 
HETATM   11  C   UNL     1       7.680  31.700  60.417  1.00  0.00     0.001 A 
HETATM   12  C   UNL     1       7.488  31.311  61.741  1.00  0.00     0.043 A 
HETATM   13  C   UNL     1       6.673  32.465  59.792  1.00  0.00     0.051 A 
HETATM   14  C   UNL     1       6.341  31.645  62.468  1.00  0.00     0.033 A 
HETATM   15  N   UNL     1       8.598  30.593  62.118  1.00  0.00    -0.365 N 
HETATM   16  C   UNL     1       5.348  32.389  61.816  1.00  0.00     0.039 A 
HETATM   17  C   UNL     1       5.502  32.787  60.489  1.00  0.00     0.069 A 
HETATM   18  H   UNL     1       8.736  30.189  63.034  1.00  0.00     0.165 HD
HETATM   19  C   UNL     1       9.478  30.503  61.075  1.00  0.00     0.097 A 
BRANCH  17  20
HETATM   20  O   UNL     1       4.591  33.512  59.767  1.00  0.00    -0.356 OA
HETATM   21  C   UNL     1       3.273  33.573  60.298  1.00  0.00     0.210 C 
ENDBRANCH  17  20
ENDBRANCH   9  10
ENDBRANCH   6   9
ENDBRANCH   2   5
BRANCH   1  22
HETATM   22  C   UNL     1       7.223  26.384  56.326  1.00  0.00     0.058 A 
HETATM   23  C   UNL     1       7.817  25.124  56.261  1.00  0.00     0.029 A 
HETATM   24  N   UNL     1       7.235  24.399  55.222  1.00  0.00    -0.319 N 
HETATM   25  C   UNL     1       8.854  24.556  57.182  1.00  0.00     0.070 C 
HETATM   26  C   UNL     1       6.208  25.170  54.685  1.00  0.00     0.014 A 
HETATM   27  C   UNL     1       5.369  24.780  53.514  1.00  0.00     0.068 C 
HETATM   28  C   UNL     1       6.196  26.382  55.345  1.00  0.00     0.044 A 
BRANCH  24  29
HETATM   29  C   UNL     1       7.640  23.110  54.765  1.00  0.00     0.039 A 
HETATM   30  C   UNL     1       8.246  22.975  53.509  1.00  0.00     0.030 A 
HETATM   31  C   UNL     1       8.632  21.713  53.052  1.00  0.00     0.002 A 
HETATM   32  C   UNL     1       8.418  20.587  53.844  1.00  0.00     0.000 A 
HETATM   33  C   UNL     1       7.818  20.718  55.096  1.00  0.00     0.002 A 
HETATM   34  C   UNL     1       7.427  21.977  55.558  1.00  0.00     0.030 A 
ENDBRANCH  24  29
ENDBRANCH   1  22
TORSDOF 6
ENDMDL
MODEL 4
REMARK VINA RESULT:      -9.2      2.193     11.334
REMARK  6 active torsions:
REMARK  status: ('A' for Active; 'I' for Inactive)
REMARK    1  A    between atoms: N_3  and  C_4 
REMARK    2  A    between atoms: C_12  and  C_13 
REMARK       I    between atoms: C_13  and  N_14 
REMARK    3  A    between atoms: N_14  and  N_15 
REMARK       I    between atoms: N_15  and  C_16 
REMARK    4  A    between atoms: C_16  and  C_17 
REMARK    5  A    between atoms: C_17  and  C_18 
REMARK    6  A    between atoms: C_23  and  O_24 
ROOT
HETATM    1  C   UNL     1       7.611  27.493  56.780  1.00  0.00     0.272 C 
HETATM    2  N   UNL     1       6.515  28.206  57.227  1.00  0.00    -0.263 N 
HETATM    3  O   UNL     1       8.759  27.822  57.078  1.00  0.00    -0.266 OA
HETATM    4  H   UNL     1       5.556  27.897  57.097  1.00  0.00     0.190 HD
ENDROOT
BRANCH   2   5
HETATM    5  N   UNL     1       6.713  29.253  58.134  1.00  0.00    -0.267 N 
HETATM    6  C   UNL     1       6.488  30.545  57.704  1.00  0.00     0.240 C 
HETATM    7  O   UNL     1       6.059  30.795  56.576  1.00  0.00    -0.272 OA
HETATM    8  H   UNL     1       7.195  29.024  59.002  1.00  0.00     0.190 HD
BRANCH   6   9
HETATM    9  C   UNL     1       6.717  31.617  58.752  1.00  0.00     0.145 C 
BRANCH   9  10
HETATM   10  C   UNL     1       5.452  32.057  59.418  1.00  0.00    -0.021 A 
HETATM   11  C   UNL     1       5.296  32.479  60.777  1.00  0.00     0.001 A 
HETATM   12  C   UNL     1       3.955  32.807  60.962  1.00  0.00     0.043 A 
HETATM   13  C   UNL     1       6.176  32.623  61.870  1.00  0.00     0.051 A 
HETATM   14  C   UNL     1       3.451  33.273  62.182  1.00  0.00     0.033 A 
HETATM   15  N   UNL     1       3.312  32.578  59.769  1.00  0.00    -0.365 N 
HETATM   16  C   UNL     1       4.352  33.425  63.245  1.00  0.00     0.039 A 
HETATM   17  C   UNL     1       5.703  33.116  63.093  1.00  0.00     0.069 A 
HETATM   18  H   UNL     1       2.325  32.726  59.611  1.00  0.00     0.165 HD
HETATM   19  C   UNL     1       4.203  32.129  58.833  1.00  0.00     0.097 A 
BRANCH  17  20
HETATM   20  O   UNL     1       6.658  33.231  64.068  1.00  0.00    -0.356 OA
HETATM   21  C   UNL     1       7.963  32.780  63.725  1.00  0.00     0.210 C 
ENDBRANCH  17  20
ENDBRANCH   9  10
ENDBRANCH   6   9
ENDBRANCH   2   5
BRANCH   1  22
HETATM   22  C   UNL     1       7.295  26.335  55.936  1.00  0.00     0.058 A 
HETATM   23  C   UNL     1       7.829  25.055  56.084  1.00  0.00     0.029 A 
HETATM   24  N   UNL     1       7.348  24.240  55.058  1.00  0.00    -0.319 N 
HETATM   25  C   UNL     1       8.709  24.555  57.189  1.00  0.00     0.070 C 
HETATM   26  C   UNL     1       6.439  24.983  54.312  1.00  0.00     0.014 A 
HETATM   27  C   UNL     1       5.738  24.497  53.088  1.00  0.00     0.068 C 
HETATM   28  C   UNL     1       6.403  26.261  54.834  1.00  0.00     0.044 A 
BRANCH  24  29
HETATM   29  C   UNL     1       7.744  22.895  54.798  1.00  0.00     0.039 A 
HETATM   30  C   UNL     1       7.461  21.892  55.735  1.00  0.00     0.030 A 
HETATM   31  C   UNL     1       7.858  20.576  55.490  1.00  0.00     0.002 A 
HETATM   32  C   UNL     1       8.534  20.256  54.314  1.00  0.00     0.000 A 
HETATM   33  C   UNL     1       8.815  21.251  53.378  1.00  0.00     0.002 A 
HETATM   34  C   UNL     1       8.423  22.570  53.618  1.00  0.00     0.030 A 
ENDBRANCH  24  29
ENDBRANCH   1  22
TORSDOF 6
ENDMDL
MODEL 5
REMARK VINA RESULT:      -9.2      1.224      1.917
REMARK  6 active torsions:
REMARK  status: ('A' for Active; 'I' for Inactive)
REMARK    1  A    between atoms: N_3  and  C_4 
REMARK    2  A    between atoms: C_12  and  C_13 
REMARK       I    between atoms: C_13  and  N_14 
REMARK    3  A    between atoms: N_14  and  N_15 
REMARK       I    between atoms: N_15  and  C_16 
REMARK    4  A    between atoms: C_16  and  C_17 
REMARK    5  A    between atoms: C_17  and  C_18 
REMARK    6  A    between atoms: C_23  and  O_24 
ROOT
HETATM    1  C   UNL     1       7.614  31.840  59.816  1.00  0.00     0.272 C 
HETATM    2  N   UNL     1       7.351  30.484  59.782  1.00  0.00    -0.263 N 
HETATM    3  O   UNL     1       8.623  32.315  59.294  1.00  0.00    -0.266 OA
HETATM    4  H   UNL     1       6.477  30.075  60.098  1.00  0.00     0.190 HD
ENDROOT
BRANCH   2   5
HETATM    5  N   UNL     1       8.192  29.651  59.035  1.00  0.00    -0.267 N 
HETATM    6  C   UNL     1       7.648  28.946  57.980  1.00  0.00     0.240 C 
HETATM    7  O   UNL     1       6.470  29.078  57.640  1.00  0.00    -0.272 OA
HETATM    8  H   UNL     1       9.114  29.460  59.423  1.00  0.00     0.190 HD
BRANCH   6   9
HETATM    9  C   UNL     1       8.630  28.075  57.219  1.00  0.00     0.145 C 
BRANCH   9  10
HETATM   10  C   UNL     1       8.119  26.689  56.991  1.00  0.00    -0.021 A 
HETATM   11  C   UNL     1       7.549  26.168  55.785  1.00  0.00     0.001 A 
HETATM   12  C   UNL     1       7.222  24.834  56.018  1.00  0.00     0.043 A 
HETATM   13  C   UNL     1       7.288  26.706  54.507  1.00  0.00     0.051 A 
HETATM   14  C   UNL     1       6.651  24.013  55.040  1.00  0.00     0.033 A 
HETATM   15  N   UNL     1       7.561  24.554  57.321  1.00  0.00    -0.365 N 
HETATM   16  C   UNL     1       6.420  24.569  53.774  1.00  0.00     0.039 A 
HETATM   17  C   UNL     1       6.744  25.897  53.502  1.00  0.00     0.069 A 
HETATM   18  H   UNL     1       7.431  23.657  57.768  1.00  0.00     0.165 HD
HETATM   19  C   UNL     1       8.104  25.661  57.914  1.00  0.00     0.097 A 
BRANCH  17  20
HETATM   20  O   UNL     1       6.559  26.529  52.301  1.00  0.00    -0.356 OA
HETATM   21  C   UNL     1       5.788  25.828  51.334  1.00  0.00     0.210 C 
ENDBRANCH  17  20
ENDBRANCH   9  10
ENDBRANCH   6   9
ENDBRANCH   2   5
BRANCH   1  22
HETATM   22  C   UNL     1       6.608  32.648  60.514  1.00  0.00     0.058 A 
HETATM   23  C   UNL     1       6.690  33.076  61.840  1.00  0.00     0.029 A 
HETATM   24  N   UNL     1       5.519  33.758  62.170  1.00  0.00    -0.319 N 
HETATM   25  C   UNL     1       7.851  32.931  62.775  1.00  0.00     0.070 C 
HETATM   26  C   UNL     1       4.733  33.840  61.025  1.00  0.00     0.014 A 
HETATM   27  C   UNL     1       3.371  34.446  60.965  1.00  0.00     0.068 C 
HETATM   28  C   UNL     1       5.383  33.163  60.013  1.00  0.00     0.044 A 
BRANCH  24  29
HETATM   29  C   UNL     1       5.172  34.256  63.462  1.00  0.00     0.039 A 
HETATM   30  C   UNL     1       5.214  35.634  63.712  1.00  0.00     0.030 A 
HETATM   31  C   UNL     1       4.888  36.124  64.978  1.00  0.00     0.002 A 
HETATM   32  C   UNL     1       4.518  35.245  65.994  1.00  0.00     0.000 A 
HETATM   33  C   UNL     1       4.472  33.874  65.748  1.00  0.00     0.002 A 
HETATM   34  C   UNL     1       4.799  33.377  64.484  1.00  0.00     0.030 A 
ENDBRANCH  24  29
ENDBRANCH   1  22
TORSDOF 6
ENDMDL
MODEL 6
REMARK VINA RESULT:      -9.2      2.461     10.974
REMARK  6 active torsions:
REMARK  status: ('A' for Active; 'I' for Inactive)
REMARK    1  A    between atoms: N_3  and  C_4 
REMARK    2  A    between atoms: C_12  and  C_13 
REMARK       I    between atoms: C_13  and  N_14 
REMARK    3  A    between atoms: N_14  and  N_15 
REMARK       I    between atoms: N_15  and  C_16 
REMARK    4  A    between atoms: C_16  and  C_17 
REMARK    5  A    between atoms: C_17  and  C_18 
REMARK    6  A    between atoms: C_23  and  O_24 
ROOT
HETATM    1  C   UNL     1       5.783  29.627  57.388  1.00  0.00     0.272 C 
HETATM    2  N   UNL     1       4.649  30.343  57.716  1.00  0.00    -0.263 N 
HETATM    3  O   UNL     1       6.844  29.785  57.992  1.00  0.00    -0.266 OA
HETATM    4  H   UNL     1       3.733  30.156  57.319  1.00  0.00     0.190 HD
ENDROOT
BRANCH   2   5
HETATM    5  N   UNL     1       4.678  31.180  58.838  1.00  0.00    -0.267 N 
HETATM    6  C   UNL     1       5.128  32.475  58.678  1.00  0.00     0.240 C 
HETATM    7  O   UNL     1       5.438  32.930  57.576  1.00  0.00    -0.272 OA
HETATM    8  H   UNL     1       4.550  30.736  59.747  1.00  0.00     0.190 HD
BRANCH   6   9
HETATM    9  C   UNL     1       5.119  33.315  59.941  1.00  0.00     0.145 C 
BRANCH   9  10
HETATM   10  C   UNL     1       6.236  32.971  60.874  1.00  0.00    -0.021 A 
HETATM   11  C   UNL     1       6.343  33.326  62.258  1.00  0.00     0.001 A 
HETATM   12  C   UNL     1       7.537  32.790  62.737  1.00  0.00     0.043 A 
HETATM   13  C   UNL     1       5.528  34.048  63.154  1.00  0.00     0.051 A 
HETATM   14  C   UNL     1       7.953  32.938  64.064  1.00  0.00     0.033 A 
HETATM   15  N   UNL     1       8.145  32.149  61.684  1.00  0.00    -0.365 N 
HETATM   16  C   UNL     1       7.114  33.644  64.937  1.00  0.00     0.039 A 
HETATM   17  C   UNL     1       5.908  34.185  64.495  1.00  0.00     0.069 A 
HETATM   18  H   UNL     1       9.033  31.670  61.740  1.00  0.00     0.165 HD
HETATM   19  C   UNL     1       7.371  32.248  60.560  1.00  0.00     0.097 A 
BRANCH  17  20
HETATM   20  O   UNL     1       5.022  34.887  65.269  1.00  0.00    -0.356 OA
HETATM   21  C   UNL     1       3.661  34.484  65.189  1.00  0.00     0.210 C 
ENDBRANCH  17  20
ENDBRANCH   9  10
ENDBRANCH   6   9
ENDBRANCH   2   5
BRANCH   1  22
HETATM   22  C   UNL     1       5.618  28.681  56.278  1.00  0.00     0.058 A 
HETATM   23  C   UNL     1       6.428  27.572  56.031  1.00  0.00     0.029 A 
HETATM   24  N   UNL     1       6.008  26.955  54.853  1.00  0.00    -0.319 N 
HETATM   25  C   UNL     1       7.527  27.034  56.897  1.00  0.00     0.070 C 
HETATM   26  C   UNL     1       4.874  27.623  54.401  1.00  0.00     0.014 A 
HETATM   27  C   UNL     1       4.145  27.311  53.137  1.00  0.00     0.068 C 
HETATM   28  C   UNL     1       4.632  28.678  55.257  1.00  0.00     0.044 A 
BRANCH  24  29
HETATM   29  C   UNL     1       6.646  25.856  54.205  1.00  0.00     0.039 A 
HETATM   30  C   UNL     1       6.419  24.551  54.663  1.00  0.00     0.030 A 
HETATM   31  C   UNL     1       7.052  23.473  54.040  1.00  0.00     0.002 A 
HETATM   32  C   UNL     1       7.908  23.691  52.963  1.00  0.00     0.000 A 
HETATM   33  C   UNL     1       8.135  24.988  52.504  1.00  0.00     0.002 A 
HETATM   34  C   UNL     1       7.507  26.071  53.124  1.00  0.00     0.030 A 
ENDBRANCH  24  29
ENDBRANCH   1  22
TORSDOF 6
ENDMDL
MODEL 7
REMARK VINA RESULT:      -9.0      2.438     10.250
REMARK  6 active torsions:
REMARK  status: ('A' for Active; 'I' for Inactive)
REMARK    1  A    between atoms: N_3  and  C_4 
REMARK    2  A    between atoms: C_12  and  C_13 
REMARK       I    between atoms: C_13  and  N_14 
REMARK    3  A    between atoms: N_14  and  N_15 
REMARK       I    between atoms: N_15  and  C_16 
REMARK    4  A    between atoms: C_16  and  C_17 
REMARK    5  A    between atoms: C_17  and  C_18 
REMARK    6  A    between atoms: C_23  and  O_24 
ROOT
HETATM    1  C   UNL     1       6.609  29.069  55.954  1.00  0.00     0.272 C 
HETATM    2  N   UNL     1       5.489  29.663  56.503  1.00  0.00    -0.263 N 
HETATM    3  O   UNL     1       7.707  29.625  55.967  1.00  0.00    -0.266 OA
HETATM    4  H   UNL     1       4.600  29.187  56.613  1.00  0.00     0.190 HD
ENDROOT
BRANCH   2   5
HETATM    5  N   UNL     1       5.636  30.872  57.194  1.00  0.00    -0.267 N 
HETATM    6  C   UNL     1       4.601  31.294  58.003  1.00  0.00     0.240 C 
HETATM    7  O   UNL     1       3.590  30.612  58.185  1.00  0.00    -0.272 OA
HETATM    8  H   UNL     1       6.413  31.470  56.915  1.00  0.00     0.190 HD
BRANCH   6   9
HETATM    9  C   UNL     1       4.845  32.607  58.721  1.00  0.00     0.145 C 
BRANCH   9  10
HETATM   10  C   UNL     1       5.336  32.421  60.121  1.00  0.00    -0.021 A 
HETATM   11  C   UNL     1       6.662  32.063  60.529  1.00  0.00     0.001 A 
HETATM   12  C   UNL     1       6.671  32.011  61.922  1.00  0.00     0.043 A 
HETATM   13  C   UNL     1       7.862  31.787  59.842  1.00  0.00     0.051 A 
HETATM   14  C   UNL     1       7.819  31.700  62.659  1.00  0.00     0.033 A 
HETATM   15  N   UNL     1       5.398  32.306  62.348  1.00  0.00    -0.365 N 
HETATM   16  C   UNL     1       9.002  31.449  61.950  1.00  0.00     0.039 A 
HETATM   17  C   UNL     1       9.031  31.502  60.558  1.00  0.00     0.069 A 
HETATM   18  H   UNL     1       5.110  32.337  63.317  1.00  0.00     0.165 HD
HETATM   19  C   UNL     1       4.588  32.557  61.275  1.00  0.00     0.097 A 
BRANCH  17  20
HETATM   20  O   UNL     1      10.134  31.275  59.777  1.00  0.00    -0.356 OA
HETATM   21  C   UNL     1       9.996  31.569  58.393  1.00  0.00     0.210 C 
ENDBRANCH  17  20
ENDBRANCH   9  10
ENDBRANCH   6   9
ENDBRANCH   2   5
BRANCH   1  22
HETATM   22  C   UNL     1       6.381  27.745  55.364  1.00  0.00     0.058 A 
HETATM   23  C   UNL     1       7.133  26.599  55.629  1.00  0.00     0.029 A 
HETATM   24  N   UNL     1       6.664  25.554  54.833  1.00  0.00    -0.319 N 
HETATM   25  C   UNL     1       8.218  26.436  56.649  1.00  0.00     0.070 C 
HETATM   26  C   UNL     1       5.556  26.015  54.129  1.00  0.00     0.014 A 
HETATM   27  C   UNL     1       4.792  25.223  53.121  1.00  0.00     0.068 C 
HETATM   28  C   UNL     1       5.379  27.349  54.440  1.00  0.00     0.044 A 
BRANCH  24  29
HETATM   29  C   UNL     1       7.238  24.252  54.731  1.00  0.00     0.039 A 
HETATM   30  C   UNL     1       7.972  23.902  53.590  1.00  0.00     0.030 A 
HETATM   31  C   UNL     1       8.524  22.624  53.480  1.00  0.00     0.002 A 
HETATM   32  C   UNL     1       8.349  21.696  54.504  1.00  0.00     0.000 A 
HETATM   33  C   UNL     1       7.620  22.042  55.642  1.00  0.00     0.002 A 
HETATM   34  C   UNL     1       7.063  23.317  55.757  1.00  0.00     0.030 A 
ENDBRANCH  24  29
ENDBRANCH   1  22
TORSDOF 6
ENDMDL
MODEL 8
REMARK VINA RESULT:      -8.9      1.536      2.021
REMARK  6 active torsions:
REMARK  status: ('A' for Active; 'I' for Inactive)
REMARK    1  A    between atoms: N_3  and  C_4 
REMARK    2  A    between atoms: C_12  and  C_13 
REMARK       I    between atoms: C_13  and  N_14 
REMARK    3  A    between atoms: N_14  and  N_15 
REMARK       I    between atoms: N_15  and  C_16 
REMARK    4  A    between atoms: C_16  and  C_17 
REMARK    5  A    between atoms: C_17  and  C_18 
REMARK    6  A    between atoms: C_23  and  O_24 
ROOT
HETATM    1  C   UNL     1       8.310  31.002  59.828  1.00  0.00     0.272 C 
HETATM    2  N   UNL     1       7.452  30.058  59.298  1.00  0.00    -0.263 N 
HETATM    3  O   UNL     1       9.443  31.171  59.377  1.00  0.00    -0.266 OA
HETATM    4  H   UNL     1       6.477  29.973  59.567  1.00  0.00     0.190 HD
ENDROOT
BRANCH   2   5
HETATM    5  N   UNL     1       7.840  29.364  58.146  1.00  0.00    -0.267 N 
HETATM    6  C   UNL     1       7.191  29.645  56.961  1.00  0.00     0.240 C 
HETATM    7  O   UNL     1       6.335  30.527  56.875  1.00  0.00    -0.272 OA
HETATM    8  H   UNL     1       8.445  28.554  58.278  1.00  0.00     0.190 HD
BRANCH   6   9
HETATM    9  C   UNL     1       7.680  28.855  55.761  1.00  0.00     0.145 C 
BRANCH   9  10
HETATM   10  C   UNL     1       6.589  28.079  55.095  1.00  0.00    -0.021 A 
HETATM   11  C   UNL     1       6.649  26.721  54.644  1.00  0.00     0.001 A 
HETATM   12  C   UNL     1       5.407  26.407  54.094  1.00  0.00     0.043 A 
HETATM   13  C   UNL     1       7.644  25.722  54.661  1.00  0.00     0.051 A 
HETATM   14  C   UNL     1       5.112  25.146  53.565  1.00  0.00     0.033 A 
HETATM   15  N   UNL     1       4.625  27.534  54.189  1.00  0.00    -0.365 N 
HETATM   16  C   UNL     1       6.114  24.167  53.612  1.00  0.00     0.039 A 
HETATM   17  C   UNL     1       7.364  24.443  54.164  1.00  0.00     0.069 A 
HETATM   18  H   UNL     1       3.670  27.598  53.863  1.00  0.00     0.165 HD
HETATM   19  C   UNL     1       5.324  28.544  54.791  1.00  0.00     0.097 A 
BRANCH  17  20
HETATM   20  O   UNL     1       8.404  23.556  54.257  1.00  0.00    -0.356 OA
HETATM   21  C   UNL     1       9.012  23.434  55.536  1.00  0.00     0.210 C 
ENDBRANCH  17  20
ENDBRANCH   9  10
ENDBRANCH   6   9
ENDBRANCH   2   5
BRANCH   1  22
HETATM   22  C   UNL     1       7.766  31.769  60.955  1.00  0.00     0.058 A 
HETATM   23  C   UNL     1       6.627  32.575  60.912  1.00  0.00     0.029 A 
HETATM   24  N   UNL     1       6.464  33.197  62.150  1.00  0.00    -0.319 N 
HETATM   25  C   UNL     1       5.655  32.721  59.781  1.00  0.00     0.070 C 
HETATM   26  C   UNL     1       7.449  32.714  63.005  1.00  0.00     0.014 A 
HETATM   27  C   UNL     1       7.659  33.169  64.411  1.00  0.00     0.068 C 
HETATM   28  C   UNL     1       8.251  31.850  62.287  1.00  0.00     0.044 A 
BRANCH  24  29
HETATM   29  C   UNL     1       5.481  34.179  62.474  1.00  0.00     0.039 A 
HETATM   30  C   UNL     1       5.762  35.537  62.272  1.00  0.00     0.030 A 
HETATM   31  C   UNL     1       4.808  36.503  62.601  1.00  0.00     0.002 A 
HETATM   32  C   UNL     1       3.576  36.119  63.127  1.00  0.00     0.000 A 
HETATM   33  C   UNL     1       3.293  34.768  63.326  1.00  0.00     0.002 A 
HETATM   34  C   UNL     1       4.243  33.798  63.003  1.00  0.00     0.030 A 
ENDBRANCH  24  29
ENDBRANCH   1  22
TORSDOF 6
ENDMDL
MODEL 9
REMARK VINA RESULT:      -8.9      2.150     10.192
REMARK  6 active torsions:
REMARK  status: ('A' for Active; 'I' for Inactive)
REMARK    1  A    between atoms: N_3  and  C_4 
REMARK    2  A    between atoms: C_12  and  C_13 
REMARK       I    between atoms: C_13  and  N_14 
REMARK    3  A    between atoms: N_14  and  N_15 
REMARK       I    between atoms: N_15  and  C_16 
REMARK    4  A    between atoms: C_16  and  C_17 
REMARK    5  A    between atoms: C_17  and  C_18 
REMARK    6  A    between atoms: C_23  and  O_24 
ROOT
HETATM    1  C   UNL     1       8.343  29.376  57.555  1.00  0.00     0.272 C 
HETATM    2  N   UNL     1       7.450  29.815  58.513  1.00  0.00    -0.263 N 
HETATM    3  O   UNL     1       9.288  30.072  57.187  1.00  0.00    -0.266 OA
HETATM    4  H   UNL     1       6.732  29.225  58.922  1.00  0.00     0.190 HD
ENDROOT
BRANCH   2   5
HETATM    5  N   UNL     1       7.697  31.031  59.160  1.00  0.00    -0.267 N 
HETATM    6  C   UNL     1       8.386  31.009  60.356  1.00  0.00     0.240 C 
HETATM    7  O   UNL     1       8.842  29.967  60.831  1.00  0.00    -0.272 OA
HETATM    8  H   UNL     1       7.191  31.847  58.817  1.00  0.00     0.190 HD
BRANCH   6   9
HETATM    9  C   UNL     1       8.619  32.370  60.985  1.00  0.00     0.145 C 
BRANCH   9  10
HETATM   10  C   UNL     1       7.706  32.639  62.139  1.00  0.00    -0.021 A 
HETATM   11  C   UNL     1       6.310  32.954  62.078  1.00  0.00     0.001 A 
HETATM   12  C   UNL     1       5.860  33.115  63.387  1.00  0.00     0.043 A 
HETATM   13  C   UNL     1       5.381  33.108  61.028  1.00  0.00     0.051 A 
HETATM   14  C   UNL     1       4.530  33.419  63.697  1.00  0.00     0.033 A 
HETATM   15  N   UNL     1       6.941  32.924  64.215  1.00  0.00    -0.365 N 
HETATM   16  C   UNL     1       3.625  33.548  62.634  1.00  0.00     0.039 A 
HETATM   17  C   UNL     1       4.038  33.384  61.314  1.00  0.00     0.069 A 
HETATM   18  H   UNL     1       6.909  32.985  65.223  1.00  0.00     0.165 HD
HETATM   19  C   UNL     1       8.055  32.634  63.476  1.00  0.00     0.097 A 
BRANCH  17  20
HETATM   20  O   UNL     1       3.232  33.488  60.211  1.00  0.00    -0.356 OA
HETATM   21  C   UNL     1       3.810  34.105  59.067  1.00  0.00     0.210 C 
ENDBRANCH  17  20
ENDBRANCH   9  10
ENDBRANCH   6   9
ENDBRANCH   2   5
BRANCH   1  22
HETATM   22  C   UNL     1       8.073  28.034  57.026  1.00  0.00     0.058 A 
HETATM   23  C   UNL     1       7.653  27.745  55.727  1.00  0.00     0.029 A 
HETATM   24  N   UNL     1       7.432  26.372  55.616  1.00  0.00    -0.319 N 
HETATM   25  C   UNL     1       7.524  28.696  54.577  1.00  0.00     0.070 C 
HETATM   26  C   UNL     1       7.799  25.780  56.820  1.00  0.00     0.014 A 
HETATM   27  C   UNL     1       7.664  24.328  57.135  1.00  0.00     0.068 C 
HETATM   28  C   UNL     1       8.185  26.783  57.687  1.00  0.00     0.044 A 
BRANCH  24  29
HETATM   29  C   UNL     1       6.893  25.696  54.481  1.00  0.00     0.039 A 
HETATM   30  C   UNL     1       7.756  25.152  53.520  1.00  0.00     0.030 A 
HETATM   31  C   UNL     1       7.233  24.501  52.400  1.00  0.00     0.002 A 
HETATM   32  C   UNL     1       5.854  24.390  52.237  1.00  0.00     0.000 A 
HETATM   33  C   UNL     1       4.993  24.928  53.193  1.00  0.00     0.002 A 
HETATM   34  C   UNL     1       5.509  25.582  54.313  1.00  0.00     0.030 A 
ENDBRANCH  24  29
ENDBRANCH   1  22
TORSDOF 6
ENDMDL
MODEL 10
REMARK VINA RESULT:      -8.9      1.622      2.801
REMARK  6 active torsions:
REMARK  status: ('A' for Active; 'I' for Inactive)
REMARK    1  A    between atoms: N_3  and  C_4 
REMARK    2  A    between atoms: C_12  and  C_13 
REMARK       I    between atoms: C_13  and  N_14 
REMARK    3  A    between atoms: N_14  and  N_15 
REMARK       I    between atoms: N_15  and  C_16 
REMARK    4  A    between atoms: C_16  and  C_17 
REMARK    5  A    between atoms: C_17  and  C_18 
REMARK    6  A    between atoms: C_23  and  O_24 
ROOT
HETATM    1  C   UNL     1       7.372  31.429  59.416  1.00  0.00     0.272 C 
HETATM    2  N   UNL     1       6.806  30.290  58.877  1.00  0.00    -0.263 N 
HETATM    3  O   UNL     1       8.592  31.584  59.460  1.00  0.00    -0.266 OA
HETATM    4  H   UNL     1       5.808  30.181  58.719  1.00  0.00     0.190 HD
ENDROOT
BRANCH   2   5
HETATM    5  N   UNL     1       7.637  29.348  58.260  1.00  0.00    -0.267 N 
HETATM    6  C   UNL     1       7.051  28.286  57.603  1.00  0.00     0.240 C 
HETATM    7  O   UNL     1       5.828  28.179  57.489  1.00  0.00    -0.272 OA
HETATM    8  H   UNL     1       8.629  29.390  58.490  1.00  0.00     0.190 HD
BRANCH   6   9
HETATM    9  C   UNL     1       8.024  27.318  56.956  1.00  0.00     0.145 C 
BRANCH   9  10
HETATM   10  C   UNL     1       7.673  27.006  55.536  1.00  0.00    -0.021 A 
HETATM   11  C   UNL     1       7.559  25.708  54.942  1.00  0.00     0.001 A 
HETATM   12  C   UNL     1       7.206  25.888  53.606  1.00  0.00     0.043 A 
HETATM   13  C   UNL     1       7.714  24.390  55.420  1.00  0.00     0.051 A 
HETATM   14  C   UNL     1       6.998  24.819  52.728  1.00  0.00     0.033 A 
HETATM   15  N   UNL     1       7.125  27.243  53.387  1.00  0.00    -0.365 N 
HETATM   16  C   UNL     1       7.140  23.520  53.236  1.00  0.00     0.039 A 
HETATM   17  C   UNL     1       7.483  23.302  54.569  1.00  0.00     0.069 A 
HETATM   18  H   UNL     1       6.890  27.668  52.500  1.00  0.00     0.165 HD
HETATM   19  C   UNL     1       7.401  27.925  54.541  1.00  0.00     0.097 A 
BRANCH  17  20
HETATM   20  O   UNL     1       7.644  22.076  55.157  1.00  0.00    -0.356 OA
HETATM   21  C   UNL     1       7.804  20.972  54.275  1.00  0.00     0.210 C 
ENDBRANCH  17  20
ENDBRANCH   9  10
ENDBRANCH   6   9
ENDBRANCH   2   5
BRANCH   1  22
HETATM   22  C   UNL     1       6.413  32.417  59.923  1.00  0.00     0.058 A 
HETATM   23  C   UNL     1       6.434  32.987  61.196  1.00  0.00     0.029 A 
HETATM   24  N   UNL     1       5.327  33.825  61.337  1.00  0.00    -0.319 N 
HETATM   25  C   UNL     1       7.489  32.832  62.248  1.00  0.00     0.070 C 
HETATM   26  C   UNL     1       4.654  33.854  60.120  1.00  0.00     0.014 A 
HETATM   27  C   UNL     1       3.381  34.590  59.864  1.00  0.00     0.068 C 
HETATM   28  C   UNL     1       5.302  32.995  59.254  1.00  0.00     0.044 A 
BRANCH  24  29
HETATM   29  C   UNL     1       4.934  34.506  62.528  1.00  0.00     0.039 A 
HETATM   30  C   UNL     1       4.078  33.876  63.440  1.00  0.00     0.030 A 
HETATM   31  C   UNL     1       3.680  34.544  64.600  1.00  0.00     0.002 A 
HETATM   32  C   UNL     1       4.135  35.836  64.854  1.00  0.00     0.000 A 
HETATM   33  C   UNL     1       4.989  36.466  63.949  1.00  0.00     0.002 A 
HETATM   34  C   UNL     1       5.389  35.804  62.786  1.00  0.00     0.030 A 
ENDBRANCH  24  29
ENDBRANCH   1  22
TORSDOF 6
ENDMDL
