MODEL 1
REMARK VINA RESULT:      -8.7      0.000      0.000
REMARK  4 active torsions:
REMARK  status: ('A' for Active; 'I' for Inactive)
REMARK    1  A    between atoms: C_5  and  C_6 
REMARK    2  A    between atoms: C_6  and  N_7 
REMARK    3  A    between atoms: C_6  and  C_18 
REMARK    4  A    between atoms: N_7  and  C_8 
ROOT
HETATM    1  C   UNL     1       7.645  27.736  56.898  1.00  0.00     0.290 C 
ENDROOT
BRANCH   1   2
HETATM    2  C   UNL     1       8.527  28.877  57.373  1.00  0.00     0.021 A 
HETATM    3  C   UNL     1       9.899  28.970  57.080  1.00  0.00     0.055 A 
HETATM    4  C   UNL     1      10.641  30.059  57.533  1.00  0.00     0.117 A 
HETATM    5  C   UNL     1      10.052  31.078  58.270  1.00  0.00     0.045 A 
HETATM    6  F   UNL     1      11.949  30.118  57.251  1.00  0.00    -0.206 F 
HETATM    7  C   UNL     1       8.692  31.009  58.561  1.00  0.00     0.046 A 
HETATM    8  C   UNL     1       7.947  29.920  58.113  1.00  0.00     0.125 A 
HETATM    9  F   UNL     1       6.642  29.867  58.420  1.00  0.00    -0.205 F 
ENDBRANCH   1   2
BRANCH   1  10
HETATM   10  N   UNL     1       8.330  26.434  56.720  1.00  0.00     0.101 N 
HETATM   11  H   UNL     1       9.272  26.533  57.102  1.00  0.00     0.317 HD
BRANCH  10  12
HETATM   12  C   UNL     1       7.670  25.250  57.288  1.00  0.00     0.225 C 
HETATM   13  C   UNL     1       8.598  24.037  57.040  1.00  0.00     0.069 C 
HETATM   14  C   UNL     1       8.634  23.687  55.560  1.00  0.00     0.190 C 
HETATM   15  N   UNL     1       7.230  23.365  55.110  1.00  0.00    -0.067 N 
HETATM   16  C   UNL     1       9.361  22.418  55.164  1.00  0.00     0.035 C 
HETATM   17  H   UNL     1       6.859  22.621  55.718  1.00  0.00     0.280 HD
HETATM   18  C   UNL     1       6.317  24.544  55.228  1.00  0.00     0.237 C 
HETATM   19  C   UNL     1       7.390  22.751  53.745  1.00  0.00     0.235 C 
HETATM   20  C   UNL     1       6.273  24.955  56.698  1.00  0.00     0.063 C 
HETATM   21  C   UNL     1       8.773  22.100  53.788  1.00  0.00     0.030 C 
ENDBRANCH  10  12
ENDBRANCH   1  10
BRANCH   1  22
HETATM   22  C   UNL     1       6.871  28.062  55.624  1.00  0.00    -0.018 A 
HETATM   23  C   UNL     1       5.523  28.445  55.705  1.00  0.00     0.029 A 
HETATM   24  C   UNL     1       4.825  28.708  54.537  1.00  0.00     0.116 A 
HETATM   25  N   UNL     1       5.364  28.611  53.306  1.00  0.00    -0.273 NA
HETATM   26  C   UNL     1       6.661  28.249  53.237  1.00  0.00     0.116 A 
HETATM   27  C   UNL     1       7.442  27.961  54.347  1.00  0.00     0.029 A 
ENDBRANCH   1  22
TORSDOF 4
ENDMDL
MODEL 2
REMARK VINA RESULT:      -8.7      3.016      6.404
REMARK  4 active torsions:
REMARK  status: ('A' for Active; 'I' for Inactive)
REMARK    1  A    between atoms: C_5  and  C_6 
REMARK    2  A    between atoms: C_6  and  N_7 
REMARK    3  A    between atoms: C_6  and  C_18 
REMARK    4  A    between atoms: N_7  and  C_8 
ROOT
HETATM    1  C   UNL     1       7.945  25.131  54.735  1.00  0.00     0.290 C 
ENDROOT
BRANCH   1   2
HETATM    2  C   UNL     1       8.228  23.699  55.155  1.00  0.00     0.021 A 
HETATM    3  C   UNL     1       8.105  23.242  56.479  1.00  0.00     0.055 A 
HETATM    4  C   UNL     1       8.361  21.907  56.786  1.00  0.00     0.117 A 
HETATM    5  C   UNL     1       8.731  20.997  55.804  1.00  0.00     0.045 A 
HETATM    6  F   UNL     1       8.249  21.498  58.057  1.00  0.00    -0.206 F 
HETATM    7  C   UNL     1       8.848  21.430  54.485  1.00  0.00     0.046 A 
HETATM    8  C   UNL     1       8.596  22.765  54.174  1.00  0.00     0.125 A 
HETATM    9  F   UNL     1       8.730  23.161  52.900  1.00  0.00    -0.205 F 
ENDBRANCH   1   2
BRANCH   1  10
HETATM   10  N   UNL     1       7.610  26.063  55.837  1.00  0.00     0.101 N 
HETATM   11  H   UNL     1       8.461  26.201  56.386  1.00  0.00     0.317 HD
BRANCH  10  12
HETATM   12  C   UNL     1       7.028  27.359  55.461  1.00  0.00     0.225 C 
HETATM   13  C   UNL     1       8.191  28.279  55.016  1.00  0.00     0.069 C 
HETATM   14  C   UNL     1       9.051  28.665  56.209  1.00  0.00     0.190 C 
HETATM   15  N   UNL     1       8.183  29.379  57.215  1.00  0.00    -0.067 N 
HETATM   16  C   UNL     1      10.134  29.700  55.978  1.00  0.00     0.035 C 
HETATM   17  H   UNL     1       7.725  30.171  56.743  1.00  0.00     0.280 HD
HETATM   18  C   UNL     1       7.107  28.492  57.759  1.00  0.00     0.237 C 
HETATM   19  C   UNL     1       9.145  29.979  58.205  1.00  0.00     0.235 C 
HETATM   20  C   UNL     1       6.231  28.050  56.589  1.00  0.00     0.063 C 
HETATM   21  C   UNL     1      10.416  30.222  57.388  1.00  0.00     0.030 C 
ENDBRANCH  10  12
ENDBRANCH   1  10
BRANCH   1  22
HETATM   22  C   UNL     1       6.873  25.242  53.654  1.00  0.00    -0.018 A 
HETATM   23  C   UNL     1       5.576  24.771  53.908  1.00  0.00     0.029 A 
HETATM   24  C   UNL     1       4.622  24.851  52.905  1.00  0.00     0.116 A 
HETATM   25  N   UNL     1       4.865  25.354  51.680  1.00  0.00    -0.273 NA
HETATM   26  C   UNL     1       6.112  25.810  51.446  1.00  0.00     0.116 A 
HETATM   27  C   UNL     1       7.135  25.770  52.382  1.00  0.00     0.029 A 
ENDBRANCH   1  22
TORSDOF 4
ENDMDL
MODEL 3
REMARK VINA RESULT:      -8.5      2.012      3.015
REMARK  4 active torsions:
REMARK  status: ('A' for Active; 'I' for Inactive)
REMARK    1  A    between atoms: C_5  and  C_6 
REMARK    2  A    between atoms: C_6  and  N_7 
REMARK    3  A    between atoms: C_6  and  C_18 
REMARK    4  A    between atoms: N_7  and  C_8 
ROOT
HETATM    1  C   UNL     1       5.688  25.773  55.665  1.00  0.00     0.290 C 
ENDROOT
BRANCH   1   2
HETATM    2  C   UNL     1       6.220  27.008  56.372  1.00  0.00     0.021 A 
HETATM    3  C   UNL     1       7.579  27.201  56.674  1.00  0.00     0.055 A 
HETATM    4  C   UNL     1       7.998  28.371  57.305  1.00  0.00     0.117 A 
HETATM    5  C   UNL     1       7.096  29.373  57.642  1.00  0.00     0.045 A 
HETATM    6  F   UNL     1       9.296  28.526  57.594  1.00  0.00    -0.206 F 
HETATM    7  C   UNL     1       5.747  29.203  57.341  1.00  0.00     0.046 A 
HETATM    8  C   UNL     1       5.324  28.033  56.712  1.00  0.00     0.125 A 
HETATM    9  F   UNL     1       4.017  27.885  56.447  1.00  0.00    -0.205 F 
ENDBRANCH   1   2
BRANCH   1  10
HETATM   10  N   UNL     1       6.414  24.514  55.951  1.00  0.00     0.101 N 
HETATM   11  H   UNL     1       5.972  23.777  55.398  1.00  0.00     0.317 HD
BRANCH  10  12
HETATM   12  C   UNL     1       7.867  24.516  55.733  1.00  0.00     0.225 C 
HETATM   13  C   UNL     1       8.122  23.998  54.296  1.00  0.00     0.069 C 
HETATM   14  C   UNL     1       7.801  22.514  54.201  1.00  0.00     0.190 C 
HETATM   15  N   UNL     1       8.674  21.771  55.181  1.00  0.00    -0.067 N 
HETATM   16  C   UNL     1       8.156  21.810  52.907  1.00  0.00     0.035 C 
HETATM   17  H   UNL     1       9.656  22.011  54.986  1.00  0.00     0.280 HD
HETATM   18  C   UNL     1       8.386  22.159  56.597  1.00  0.00     0.237 C 
HETATM   19  C   UNL     1       8.517  20.318  54.820  1.00  0.00     0.235 C 
HETATM   20  C   UNL     1       8.664  23.655  56.737  1.00  0.00     0.063 C 
HETATM   21  C   UNL     1       8.210  20.338  53.321  1.00  0.00     0.030 C 
ENDBRANCH  10  12
ENDBRANCH   1  10
BRANCH   1  22
HETATM   22  C   UNL     1       5.578  25.944  54.152  1.00  0.00    -0.018 A 
HETATM   23  C   UNL     1       4.969  24.943  53.380  1.00  0.00     0.029 A 
HETATM   24  C   UNL     1       4.905  25.099  52.004  1.00  0.00     0.116 A 
HETATM   25  N   UNL     1       5.403  26.165  51.348  1.00  0.00    -0.273 NA
HETATM   26  C   UNL     1       5.980  27.125  52.098  1.00  0.00     0.116 A 
HETATM   27  C   UNL     1       6.097  27.059  53.479  1.00  0.00     0.029 A 
ENDBRANCH   1  22
TORSDOF 4
ENDMDL
MODEL 4
REMARK VINA RESULT:      -8.2      3.308      6.498
REMARK  4 active torsions:
REMARK  status: ('A' for Active; 'I' for Inactive)
REMARK    1  A    between atoms: C_5  and  C_6 
REMARK    2  A    between atoms: C_6  and  N_7 
REMARK    3  A    between atoms: C_6  and  C_18 
REMARK    4  A    between atoms: N_7  and  C_8 
ROOT
HETATM    1  C   UNL     1       6.573  26.513  54.774  1.00  0.00     0.290 C 
ENDROOT
BRANCH   1   2
HETATM    2  C   UNL     1       7.105  25.121  54.481  1.00  0.00     0.021 A 
HETATM    3  C   UNL     1       6.918  24.024  55.339  1.00  0.00     0.055 A 
HETATM    4  C   UNL     1       7.417  22.770  54.993  1.00  0.00     0.117 A 
HETATM    5  C   UNL     1       8.097  22.567  53.799  1.00  0.00     0.045 A 
HETATM    6  F   UNL     1       7.236  21.742  55.833  1.00  0.00    -0.206 F 
HETATM    7  C   UNL     1       8.284  23.640  52.932  1.00  0.00     0.046 A 
HETATM    8  C   UNL     1       7.789  24.897  53.276  1.00  0.00     0.125 A 
HETATM    9  F   UNL     1       7.995  25.919  52.431  1.00  0.00    -0.205 F 
ENDBRANCH   1   2
BRANCH   1  10
HETATM   10  N   UNL     1       5.938  27.206  53.629  1.00  0.00     0.101 N 
HETATM   11  H   UNL     1       6.543  27.067  52.818  1.00  0.00     0.317 HD
BRANCH  10  12
HETATM   12  C   UNL     1       4.554  26.829  53.306  1.00  0.00     0.225 C 
HETATM   13  C   UNL     1       4.584  26.059  51.963  1.00  0.00     0.069 C 
HETATM   14  C   UNL     1       4.921  27.000  50.816  1.00  0.00     0.190 C 
HETATM   15  N   UNL     1       3.876  28.087  50.767  1.00  0.00    -0.067 N 
HETATM   16  C   UNL     1       4.825  26.443  49.410  1.00  0.00     0.035 C 
HETATM   17  H   UNL     1       2.949  27.641  50.699  1.00  0.00     0.280 HD
HETATM   18  C   UNL     1       3.883  28.931  52.001  1.00  0.00     0.237 C 
HETATM   19  C   UNL     1       4.103  28.786  49.453  1.00  0.00     0.235 C 
HETATM   20  C   UNL     1       3.580  28.021  53.190  1.00  0.00     0.063 C 
HETATM   21  C   UNL     1       4.695  27.701  48.551  1.00  0.00     0.030 C 
ENDBRANCH  10  12
ENDBRANCH   1  10
BRANCH   1  22
HETATM   22  C   UNL     1       7.617  27.441  55.391  1.00  0.00    -0.018 A 
HETATM   23  C   UNL     1       7.902  27.356  56.763  1.00  0.00     0.029 A 
HETATM   24  C   UNL     1       8.830  28.226  57.314  1.00  0.00     0.116 A 
HETATM   25  N   UNL     1       9.482  29.168  56.607  1.00  0.00    -0.273 NA
HETATM   26  C   UNL     1       9.209  29.239  55.289  1.00  0.00     0.116 A 
HETATM   27  C   UNL     1       8.294  28.417  54.646  1.00  0.00     0.029 A 
ENDBRANCH   1  22
TORSDOF 4
ENDMDL
MODEL 5
REMARK VINA RESULT:      -8.1      1.695      2.290
REMARK  4 active torsions:
REMARK  status: ('A' for Active; 'I' for Inactive)
REMARK    1  A    between atoms: C_5  and  C_6 
REMARK    2  A    between atoms: C_6  and  N_7 
REMARK    3  A    between atoms: C_6  and  C_18 
REMARK    4  A    between atoms: N_7  and  C_8 
ROOT
HETATM    1  C   UNL     1       6.489  27.870  55.872  1.00  0.00     0.290 C 
ENDROOT
BRANCH   1   2
HETATM    2  C   UNL     1       7.691  28.637  56.395  1.00  0.00     0.021 A 
HETATM    3  C   UNL     1       7.839  29.023  57.738  1.00  0.00     0.055 A 
HETATM    4  C   UNL     1       8.982  29.707  58.149  1.00  0.00     0.117 A 
HETATM    5  C   UNL     1      10.000  30.016  57.256  1.00  0.00     0.045 A 
HETATM    6  F   UNL     1       9.094  30.075  59.432  1.00  0.00    -0.206 F 
HETATM    7  C   UNL     1       9.875  29.633  55.923  1.00  0.00     0.046 A 
HETATM    8  C   UNL     1       8.733  28.951  55.507  1.00  0.00     0.125 A 
HETATM    9  F   UNL     1       8.628  28.607  54.215  1.00  0.00    -0.205 F 
ENDBRANCH   1   2
BRANCH   1  10
HETATM   10  N   UNL     1       6.803  26.660  55.076  1.00  0.00     0.101 N 
HETATM   11  H   UNL     1       7.770  26.405  55.283  1.00  0.00     0.317 HD
BRANCH  10  12
HETATM   12  C   UNL     1       5.919  25.499  55.249  1.00  0.00     0.225 C 
HETATM   13  C   UNL     1       6.691  24.447  56.082  1.00  0.00     0.069 C 
HETATM   14  C   UNL     1       7.826  23.849  55.265  1.00  0.00     0.190 C 
HETATM   15  N   UNL     1       7.240  23.205  54.033  1.00  0.00    -0.067 N 
HETATM   16  C   UNL     1       8.577  22.680  55.872  1.00  0.00     0.035 C 
HETATM   17  H   UNL     1       6.523  22.528  54.331  1.00  0.00     0.280 HD
HETATM   18  C   UNL     1       6.577  24.203  53.137  1.00  0.00     0.237 C 
HETATM   19  C   UNL     1       8.365  22.394  53.445  1.00  0.00     0.235 C 
HETATM   20  C   UNL     1       5.445  24.857  53.927  1.00  0.00     0.063 C 
HETATM   21  C   UNL     1       9.225  22.020  54.654  1.00  0.00     0.030 C 
ENDBRANCH  10  12
ENDBRANCH   1  10
BRANCH   1  22
HETATM   22  C   UNL     1       5.515  28.739  55.081  1.00  0.00    -0.018 A 
HETATM   23  C   UNL     1       4.734  29.696  55.747  1.00  0.00     0.029 A 
HETATM   24  C   UNL     1       3.833  30.456  55.019  1.00  0.00     0.116 A 
HETATM   25  N   UNL     1       3.650  30.329  53.691  1.00  0.00    -0.273 NA
HETATM   26  C   UNL     1       4.408  29.413  53.057  1.00  0.00     0.116 A 
HETATM   27  C   UNL     1       5.334  28.602  53.697  1.00  0.00     0.029 A 
ENDBRANCH   1  22
TORSDOF 4
ENDMDL
MODEL 6
REMARK VINA RESULT:      -8.0      1.466      2.174
REMARK  4 active torsions:
REMARK  status: ('A' for Active; 'I' for Inactive)
REMARK    1  A    between atoms: C_5  and  C_6 
REMARK    2  A    between atoms: C_6  and  N_7 
REMARK    3  A    between atoms: C_6  and  C_18 
REMARK    4  A    between atoms: N_7  and  C_8 
ROOT
HETATM    1  C   UNL     1       6.267  27.663  55.043  1.00  0.00     0.290 C 
ENDROOT
BRANCH   1   2
HETATM    2  C   UNL     1       7.274  28.393  55.914  1.00  0.00     0.021 A 
HETATM    3  C   UNL     1       8.526  28.831  55.450  1.00  0.00     0.055 A 
HETATM    4  C   UNL     1       9.391  29.515  56.303  1.00  0.00     0.117 A 
HETATM    5  C   UNL     1       9.041  29.789  57.619  1.00  0.00     0.045 A 
HETATM    6  F   UNL     1      10.584  29.911  55.840  1.00  0.00    -0.206 F 
HETATM    7  C   UNL     1       7.800  29.371  58.094  1.00  0.00     0.046 A 
HETATM    8  C   UNL     1       6.934  28.685  57.245  1.00  0.00     0.125 A 
HETATM    9  F   UNL     1       5.751  28.279  57.730  1.00  0.00    -0.205 F 
ENDBRANCH   1   2
BRANCH   1  10
HETATM   10  N   UNL     1       6.766  26.429  54.392  1.00  0.00     0.101 N 
HETATM   11  H   UNL     1       7.690  26.234  54.781  1.00  0.00     0.317 HD
BRANCH  10  12
HETATM   12  C   UNL     1       5.911  25.236  54.479  1.00  0.00     0.225 C 
HETATM   13  C   UNL     1       6.496  24.327  55.588  1.00  0.00     0.069 C 
HETATM   14  C   UNL     1       7.818  23.723  55.140  1.00  0.00     0.190 C 
HETATM   15  N   UNL     1       7.578  22.921  53.885  1.00  0.00    -0.067 N 
HETATM   16  C   UNL     1       8.442  22.674  56.038  1.00  0.00     0.035 C 
HETATM   17  H   UNL     1       6.837  22.233  54.078  1.00  0.00     0.280 HD
HETATM   18  C   UNL     1       7.117  23.778  52.749  1.00  0.00     0.237 C 
HETATM   19  C   UNL     1       8.843  22.130  53.681  1.00  0.00     0.235 C 
HETATM   20  C   UNL     1       5.802  24.434  53.164  1.00  0.00     0.063 C 
HETATM   21  C   UNL     1       9.394  21.937  55.095  1.00  0.00     0.030 C 
ENDBRANCH  10  12
ENDBRANCH   1  10
BRANCH   1  22
HETATM   22  C   UNL     1       5.628  28.555  53.982  1.00  0.00    -0.018 A 
HETATM   23  C   UNL     1       4.678  29.516  54.359  1.00  0.00     0.029 A 
HETATM   24  C   UNL     1       4.084  30.297  53.380  1.00  0.00     0.116 A 
HETATM   25  N   UNL     1       4.360  30.187  52.067  1.00  0.00    -0.273 NA
HETATM   26  C   UNL     1       5.278  29.265  51.713  1.00  0.00     0.116 A 
HETATM   27  C   UNL     1       5.924  28.434  52.617  1.00  0.00     0.029 A 
ENDBRANCH   1  22
TORSDOF 4
ENDMDL
MODEL 7
REMARK VINA RESULT:      -8.0      2.966      6.902
REMARK  4 active torsions:
REMARK  status: ('A' for Active; 'I' for Inactive)
REMARK    1  A    between atoms: C_5  and  C_6 
REMARK    2  A    between atoms: C_6  and  N_7 
REMARK    3  A    between atoms: C_6  and  C_18 
REMARK    4  A    between atoms: N_7  and  C_8 
ROOT
HETATM    1  C   UNL     1       6.817  23.837  54.766  1.00  0.00     0.290 C 
ENDROOT
BRANCH   1   2
HETATM    2  C   UNL     1       6.430  24.604  53.513  1.00  0.00     0.021 A 
HETATM    3  C   UNL     1       5.358  24.239  52.682  1.00  0.00     0.055 A 
HETATM    4  C   UNL     1       5.048  25.004  51.559  1.00  0.00     0.117 A 
HETATM    5  C   UNL     1       5.775  26.144  51.238  1.00  0.00     0.045 A 
HETATM    6  F   UNL     1       4.030  24.628  50.775  1.00  0.00    -0.206 F 
HETATM    7  C   UNL     1       6.835  26.527  52.056  1.00  0.00     0.046 A 
HETATM    8  C   UNL     1       7.150  25.762  53.179  1.00  0.00     0.125 A 
HETATM    9  F   UNL     1       8.185  26.143  53.943  1.00  0.00    -0.205 F 
ENDBRANCH   1   2
BRANCH   1  10
HETATM   10  N   UNL     1       7.651  24.584  55.737  1.00  0.00     0.101 N 
HETATM   11  H   UNL     1       7.934  25.455  55.285  1.00  0.00     0.317 HD
BRANCH  10  12
HETATM   12  C   UNL     1       7.057  24.860  57.053  1.00  0.00     0.225 C 
HETATM   13  C   UNL     1       5.674  25.513  56.811  1.00  0.00     0.069 C 
HETATM   14  C   UNL     1       5.839  26.917  56.249  1.00  0.00     0.190 C 
HETATM   15  N   UNL     1       6.633  27.737  57.236  1.00  0.00    -0.067 N 
HETATM   16  C   UNL     1       4.588  27.762  56.113  1.00  0.00     0.035 C 
HETATM   17  H   UNL     1       6.158  27.693  58.148  1.00  0.00     0.280 HD
HETATM   18  C   UNL     1       8.020  27.207  57.420  1.00  0.00     0.237 C 
HETATM   19  C   UNL     1       6.497  29.159  56.759  1.00  0.00     0.235 C 
HETATM   20  C   UNL     1       7.907  25.781  57.955  1.00  0.00     0.063 C 
HETATM   21  C   UNL     1       5.141  29.187  56.052  1.00  0.00     0.030 C 
ENDBRANCH  10  12
ENDBRANCH   1  10
BRANCH   1  22
HETATM   22  C   UNL     1       7.487  22.498  54.471  1.00  0.00    -0.018 A 
HETATM   23  C   UNL     1       7.829  22.165  53.151  1.00  0.00     0.029 A 
HETATM   24  C   UNL     1       8.408  20.932  52.896  1.00  0.00     0.116 A 
HETATM   25  N   UNL     1       8.664  20.015  53.848  1.00  0.00    -0.273 NA
HETATM   26  C   UNL     1       8.339  20.344  55.114  1.00  0.00     0.116 A 
HETATM   27  C   UNL     1       7.752  21.550  55.470  1.00  0.00     0.029 A 
ENDBRANCH   1  22
TORSDOF 4
ENDMDL
MODEL 8
REMARK VINA RESULT:      -7.9      3.006      5.989
REMARK  4 active torsions:
REMARK  status: ('A' for Active; 'I' for Inactive)
REMARK    1  A    between atoms: C_5  and  C_6 
REMARK    2  A    between atoms: C_6  and  N_7 
REMARK    3  A    between atoms: C_6  and  C_18 
REMARK    4  A    between atoms: N_7  and  C_8 
ROOT
HETATM    1  C   UNL     1       6.393  26.913  55.394  1.00  0.00     0.290 C 
ENDROOT
BRANCH   1   2
HETATM    2  C   UNL     1       6.967  25.524  55.174  1.00  0.00     0.021 A 
HETATM    3  C   UNL     1       7.543  25.107  53.961  1.00  0.00     0.055 A 
HETATM    4  C   UNL     1       8.070  23.822  53.840  1.00  0.00     0.117 A 
HETATM    5  C   UNL     1       8.051  22.930  54.904  1.00  0.00     0.045 A 
HETATM    6  F   UNL     1       8.602  23.445  52.670  1.00  0.00    -0.206 F 
HETATM    7  C   UNL     1       7.493  23.329  56.116  1.00  0.00     0.046 A 
HETATM    8  C   UNL     1       6.963  24.612  56.241  1.00  0.00     0.125 A 
HETATM    9  F   UNL     1       6.417  24.967  57.414  1.00  0.00    -0.205 F 
ENDBRANCH   1   2
BRANCH   1  10
HETATM   10  N   UNL     1       5.848  27.575  54.185  1.00  0.00     0.101 N 
HETATM   11  H   UNL     1       6.460  27.331  53.405  1.00  0.00     0.317 HD
BRANCH  10  12
HETATM   12  C   UNL     1       4.447  27.293  53.844  1.00  0.00     0.225 C 
HETATM   13  C   UNL     1       4.449  26.287  52.667  1.00  0.00     0.069 C 
HETATM   14  C   UNL     1       4.944  26.957  51.395  1.00  0.00     0.190 C 
HETATM   15  N   UNL     1       4.036  28.119  51.080  1.00  0.00    -0.067 N 
HETATM   16  C   UNL     1       4.849  26.160  50.109  1.00  0.00     0.035 C 
HETATM   17  H   UNL     1       3.068  27.770  51.032  1.00  0.00     0.280 HD
HETATM   18  C   UNL     1       4.085  29.174  52.140  1.00  0.00     0.237 C 
HETATM   19  C   UNL     1       4.403  28.533  49.680  1.00  0.00     0.235 C 
HETATM   20  C   UNL     1       3.624  28.539  53.451  1.00  0.00     0.063 C 
HETATM   21  C   UNL     1       4.905  27.243  49.030  1.00  0.00     0.030 C 
ENDBRANCH  10  12
ENDBRANCH   1  10
BRANCH   1  22
HETATM   22  C   UNL     1       7.367  27.866  56.080  1.00  0.00    -0.018 A 
HETATM   23  C   UNL     1       7.281  28.074  57.465  1.00  0.00     0.029 A 
HETATM   24  C   UNL     1       8.153  28.967  58.069  1.00  0.00     0.116 A 
HETATM   25  N   UNL     1       9.089  29.665  57.399  1.00  0.00    -0.273 NA
HETATM   26  C   UNL     1       9.170  29.456  56.070  1.00  0.00     0.116 A 
HETATM   27  C   UNL     1       8.341  28.588  55.374  1.00  0.00     0.029 A 
ENDBRANCH   1  22
TORSDOF 4
ENDMDL
MODEL 9
REMARK VINA RESULT:      -7.7      2.722      6.415
REMARK  4 active torsions:
REMARK  status: ('A' for Active; 'I' for Inactive)
REMARK    1  A    between atoms: C_5  and  C_6 
REMARK    2  A    between atoms: C_6  and  N_7 
REMARK    3  A    between atoms: C_6  and  C_18 
REMARK    4  A    between atoms: N_7  and  C_8 
ROOT
HETATM    1  C   UNL     1       6.752  28.623  54.923  1.00  0.00     0.290 C 
ENDROOT
BRANCH   1   2
HETATM    2  C   UNL     1       6.544  27.174  55.328  1.00  0.00     0.021 A 
HETATM    3  C   UNL     1       5.663  26.774  56.348  1.00  0.00     0.055 A 
HETATM    4  C   UNL     1       5.508  25.423  56.651  1.00  0.00     0.117 A 
HETATM    5  C   UNL     1       6.203  24.442  55.955  1.00  0.00     0.045 A 
HETATM    6  F   UNL     1       4.672  25.068  57.636  1.00  0.00    -0.206 F 
HETATM    7  C   UNL     1       7.072  24.819  54.935  1.00  0.00     0.046 A 
HETATM    8  C   UNL     1       7.233  26.169  54.631  1.00  0.00     0.125 A 
HETATM    9  F   UNL     1       8.087  26.509  53.654  1.00  0.00    -0.205 F 
ENDBRANCH   1   2
BRANCH   1  10
HETATM   10  N   UNL     1       7.683  29.395  55.778  1.00  0.00     0.101 N 
HETATM   11  H   UNL     1       7.153  30.169  56.181  1.00  0.00     0.317 HD
BRANCH  10  12
HETATM   12  C   UNL     1       8.391  28.655  56.832  1.00  0.00     0.225 C 
HETATM   13  C   UNL     1       7.788  29.091  58.190  1.00  0.00     0.069 C 
HETATM   14  C   UNL     1       8.178  30.526  58.509  1.00  0.00     0.190 C 
HETATM   15  N   UNL     1       9.683  30.614  58.559  1.00  0.00    -0.067 N 
HETATM   16  C   UNL     1       7.813  31.055  59.882  1.00  0.00     0.035 C 
HETATM   17  H   UNL     1      10.026  29.916  59.234  1.00  0.00     0.280 HD
HETATM   18  C   UNL     1      10.309  30.308  57.235  1.00  0.00     0.237 C 
HETATM   19  C   UNL     1       9.975  31.961  59.163  1.00  0.00     0.235 C 
HETATM   20  C   UNL     1       9.918  28.881  56.853  1.00  0.00     0.063 C 
HETATM   21  C   UNL     1       8.766  32.239  60.058  1.00  0.00     0.030 C 
ENDBRANCH  10  12
ENDBRANCH   1  10
BRANCH   1  22
HETATM   22  C   UNL     1       5.448  29.404  54.786  1.00  0.00    -0.018 A 
HETATM   23  C   UNL     1       4.639  29.219  53.654  1.00  0.00     0.029 A 
HETATM   24  C   UNL     1       3.473  29.959  53.530  1.00  0.00     0.116 A 
HETATM   25  N   UNL     1       3.063  30.865  54.437  1.00  0.00    -0.273 NA
HETATM   26  C   UNL     1       3.842  31.033  55.524  1.00  0.00     0.116 A 
HETATM   27  C   UNL     1       5.027  30.344  55.737  1.00  0.00     0.029 A 
ENDBRANCH   1  22
TORSDOF 4
ENDMDL
MODEL 10
REMARK VINA RESULT:      -7.6      2.878      6.495
REMARK  4 active torsions:
REMARK  status: ('A' for Active; 'I' for Inactive)
REMARK    1  A    between atoms: C_5  and  C_6 
REMARK    2  A    between atoms: C_6  and  N_7 
REMARK    3  A    between atoms: C_6  and  C_18 
REMARK    4  A    between atoms: N_7  and  C_8 
ROOT
HETATM    1  C   UNL     1       6.865  27.890  55.798  1.00  0.00     0.290 C 
ENDROOT
BRANCH   1   2
HETATM    2  C   UNL     1       7.254  26.614  55.070  1.00  0.00     0.021 A 
HETATM    3  C   UNL     1       7.386  26.529  53.674  1.00  0.00     0.055 A 
HETATM    4  C   UNL     1       7.768  25.329  53.077  1.00  0.00     0.117 A 
HETATM    5  C   UNL     1       8.036  24.198  53.837  1.00  0.00     0.045 A 
HETATM    6  F   UNL     1       7.875  25.270  51.743  1.00  0.00    -0.206 F 
HETATM    7  C   UNL     1       7.919  24.266  55.223  1.00  0.00     0.046 A 
HETATM    8  C   UNL     1       7.535  25.463  55.823  1.00  0.00     0.125 A 
HETATM    9  F   UNL     1       7.415  25.500  57.159  1.00  0.00    -0.205 F 
ENDBRANCH   1   2
BRANCH   1  10
HETATM   10  N   UNL     1       5.972  28.803  55.047  1.00  0.00     0.101 N 
HETATM   11  H   UNL     1       6.205  28.709  54.057  1.00  0.00     0.317 HD
BRANCH  10  12
HETATM   12  C   UNL     1       4.526  28.638  55.250  1.00  0.00     0.225 C 
HETATM   13  C   UNL     1       3.914  28.202  53.897  1.00  0.00     0.069 C 
HETATM   14  C   UNL     1       3.954  29.349  52.899  1.00  0.00     0.190 C 
HETATM   15  N   UNL     1       3.174  30.508  53.470  1.00  0.00    -0.067 N 
HETATM   16  C   UNL     1       3.240  29.145  51.578  1.00  0.00     0.035 C 
HETATM   17  H   UNL     1       2.228  30.176  53.705  1.00  0.00     0.280 HD
HETATM   18  C   UNL     1       3.793  31.038  54.725  1.00  0.00     0.237 C 
HETATM   19  C   UNL     1       3.010  31.470  52.323  1.00  0.00     0.235 C 
HETATM   20  C   UNL     1       3.804  29.909  55.752  1.00  0.00     0.063 C 
HETATM   21  C   UNL     1       3.019  30.575  51.082  1.00  0.00     0.030 C 
ENDBRANCH  10  12
ENDBRANCH   1  10
BRANCH   1  22
HETATM   22  C   UNL     1       8.065  28.684  56.307  1.00  0.00    -0.018 A 
HETATM   23  C   UNL     1       8.112  29.093  57.649  1.00  0.00     0.029 A 
HETATM   24  C   UNL     1       9.194  29.840  58.088  1.00  0.00     0.116 A 
HETATM   25  N   UNL     1      10.217  30.210  57.295  1.00  0.00    -0.273 NA
HETATM   26  C   UNL     1      10.168  29.809  56.010  1.00  0.00     0.116 A 
HETATM   27  C   UNL     1       9.127  29.063  55.475  1.00  0.00     0.029 A 
ENDBRANCH   1  22
TORSDOF 4
ENDMDL
