MODEL 1
REMARK VINA RESULT:     -10.2      0.000      0.000
REMARK  2 active torsions:
REMARK  status: ('A' for Active; 'I' for Inactive)
REMARK    1  A    between atoms: C_10  and  C_11 
REMARK    2  A    between atoms: C_12  and  O_13 
ROOT
HETATM    1  C   UNL     1       8.289  19.861  55.332  1.00  0.00     0.076 C 
HETATM    2  C   UNL     1       8.084  21.110  54.572  1.00  0.00     0.050 A 
HETATM    3  O   UNL     1       8.057  22.266  55.291  1.00  0.00    -0.312 OA
HETATM    4  C   UNL     1       7.837  23.300  54.413  1.00  0.00     0.121 A 
HETATM    5  C   UNL     1       7.725  24.658  54.834  1.00  0.00     0.163 A 
HETATM    6  N   UNL     1       7.416  25.685  54.078  1.00  0.00    -0.221 NA
HETATM    7  C   UNL     1       7.377  26.794  54.918  1.00  0.00     0.149 A 
HETATM    8  C   UNL     1       7.707  26.408  56.211  1.00  0.00     0.046 A 
HETATM    9  C   UNL     1       7.864  27.096  57.523  1.00  0.00     0.070 C 
HETATM   10  C   UNL     1       7.367  28.544  57.641  1.00  0.00     0.045 C 
HETATM   11  C   UNL     1       6.259  28.950  56.656  1.00  0.00     0.132 C 
HETATM   12  N   UNL     1       6.644  29.101  55.272  1.00  0.00    -0.355 N 
HETATM   13  C   UNL     1       7.042  28.121  54.398  1.00  0.00     0.272 C 
HETATM   14  O   UNL     1       7.104  28.409  53.203  1.00  0.00    -0.266 OA
HETATM   15  N   UNL     1       7.924  25.050  56.124  1.00  0.00    -0.340 N 
HETATM   16  H   UNL     1       8.180  24.426  56.876  1.00  0.00     0.167 HD
HETATM   17  C   UNL     1       7.739  22.782  53.133  1.00  0.00     0.043 A 
HETATM   18  C   UNL     1       7.899  21.380  53.235  1.00  0.00     0.035 A 
HETATM   19  H   UNL     1       6.386  29.953  54.793  1.00  0.00     0.162 HD
ENDROOT
BRANCH  10  20
HETATM   20  C   UNL     1       8.523  29.539  57.792  1.00  0.00    -0.019 A 
HETATM   21  C   UNL     1       8.404  30.661  58.647  1.00  0.00     0.074 A 
HETATM   22  C   UNL     1       9.463  31.570  58.763  1.00  0.00     0.037 A 
HETATM   23  C   UNL     1      10.654  31.365  58.067  1.00  0.00     0.003 A 
HETATM   24  C   UNL     1      10.799  30.245  57.260  1.00  0.00     0.001 A 
HETATM   25  C   UNL     1       9.747  29.336  57.131  1.00  0.00     0.010 A 
BRANCH  21  26
HETATM   26  O   UNL     1       7.218  30.786  59.325  1.00  0.00    -0.355 OA
HETATM   27  C   UNL     1       6.473  31.982  59.125  1.00  0.00     0.210 C 
ENDBRANCH  21  26
ENDBRANCH  10  20
TORSDOF 2
ENDMDL
MODEL 2
REMARK VINA RESULT:      -8.9      3.880      7.420
REMARK  2 active torsions:
REMARK  status: ('A' for Active; 'I' for Inactive)
REMARK    1  A    between atoms: C_10  and  C_11 
REMARK    2  A    between atoms: C_12  and  O_13 
ROOT
HETATM    1  C   UNL     1       1.610  28.183  47.489  1.00  0.00     0.076 C 
HETATM    2  C   UNL     1       2.760  28.609  48.312  1.00  0.00     0.050 A 
HETATM    3  O   UNL     1       3.164  27.751  49.289  1.00  0.00    -0.312 OA
HETATM    4  C   UNL     1       4.219  28.334  49.947  1.00  0.00     0.121 A 
HETATM    5  C   UNL     1       4.874  27.715  51.053  1.00  0.00     0.163 A 
HETATM    6  N   UNL     1       5.817  28.245  51.797  1.00  0.00    -0.221 NA
HETATM    7  C   UNL     1       6.118  27.305  52.778  1.00  0.00     0.149 A 
HETATM    8  C   UNL     1       5.346  26.167  52.584  1.00  0.00     0.046 A 
HETATM    9  C   UNL     1       5.212  24.842  53.250  1.00  0.00     0.070 C 
HETATM   10  C   UNL     1       5.890  24.649  54.613  1.00  0.00     0.045 C 
HETATM   11  C   UNL     1       6.122  25.932  55.429  1.00  0.00     0.132 C 
HETATM   12  N   UNL     1       7.144  26.832  54.947  1.00  0.00    -0.355 N 
HETATM   13  C   UNL     1       7.130  27.583  53.800  1.00  0.00     0.272 C 
HETATM   14  O   UNL     1       7.983  28.461  53.678  1.00  0.00    -0.266 OA
HETATM   15  N   UNL     1       4.570  26.458  51.483  1.00  0.00    -0.340 N 
HETATM   16  H   UNL     1       3.878  25.861  51.051  1.00  0.00     0.167 HD
HETATM   17  C   UNL     1       4.483  29.561  49.365  1.00  0.00     0.043 A 
HETATM   18  C   UNL     1       3.550  29.737  48.315  1.00  0.00     0.035 A 
HETATM   19  H   UNL     1       7.847  27.151  55.600  1.00  0.00     0.162 HD
ENDROOT
BRANCH  10  20
HETATM   20  C   UNL     1       7.080  23.686  54.533  1.00  0.00    -0.019 A 
HETATM   21  C   UNL     1       7.928  23.490  55.648  1.00  0.00     0.074 A 
HETATM   22  C   UNL     1       9.020  22.618  55.556  1.00  0.00     0.037 A 
HETATM   23  C   UNL     1       9.265  21.910  54.380  1.00  0.00     0.003 A 
HETATM   24  C   UNL     1       8.414  22.059  53.293  1.00  0.00     0.001 A 
HETATM   25  C   UNL     1       7.326  22.932  53.372  1.00  0.00     0.010 A 
BRANCH  21  26
HETATM   26  O   UNL     1       7.614  24.195  56.783  1.00  0.00    -0.355 OA
HETATM   27  C   UNL     1       8.690  24.611  57.615  1.00  0.00     0.210 C 
ENDBRANCH  21  26
ENDBRANCH  10  20
TORSDOF 2
ENDMDL
MODEL 3
REMARK VINA RESULT:      -8.2      5.867      8.650
REMARK  2 active torsions:
REMARK  status: ('A' for Active; 'I' for Inactive)
REMARK    1  A    between atoms: C_10  and  C_11 
REMARK    2  A    between atoms: C_12  and  O_13 
ROOT
HETATM    1  C   UNL     1       8.568  21.815  53.284  1.00  0.00     0.076 C 
HETATM    2  C   UNL     1       7.671  22.923  53.666  1.00  0.00     0.050 A 
HETATM    3  O   UNL     1       7.191  23.698  52.654  1.00  0.00    -0.312 OA
HETATM    4  C   UNL     1       6.403  24.674  53.213  1.00  0.00     0.121 A 
HETATM    5  C   UNL     1       5.757  25.682  52.436  1.00  0.00     0.163 A 
HETATM    6  N   UNL     1       5.074  26.704  52.897  1.00  0.00    -0.221 NA
HETATM    7  C   UNL     1       4.674  27.441  51.787  1.00  0.00     0.149 A 
HETATM    8  C   UNL     1       5.110  26.812  50.629  1.00  0.00     0.046 A 
HETATM    9  C   UNL     1       4.993  27.067  49.166  1.00  0.00     0.070 C 
HETATM   10  C   UNL     1       4.462  28.434  48.715  1.00  0.00     0.045 C 
HETATM   11  C   UNL     1       4.658  29.588  49.712  1.00  0.00     0.132 C 
HETATM   12  N   UNL     1       3.839  29.563  50.902  1.00  0.00    -0.355 N 
HETATM   13  C   UNL     1       3.896  28.672  51.943  1.00  0.00     0.272 C 
HETATM   14  O   UNL     1       3.279  28.951  52.971  1.00  0.00    -0.266 OA
HETATM   15  N   UNL     1       5.792  25.700  51.074  1.00  0.00    -0.340 N 
HETATM   16  H   UNL     1       6.255  25.003  50.507  1.00  0.00     0.167 HD
HETATM   17  C   UNL     1       6.381  24.496  54.585  1.00  0.00     0.043 A 
HETATM   18  C   UNL     1       7.191  23.373  54.876  1.00  0.00     0.035 A 
HETATM   19  H   UNL     1       3.323  30.398  51.145  1.00  0.00     0.162 HD
ENDROOT
BRANCH  10  20
HETATM   20  C   UNL     1       3.071  28.331  48.080  1.00  0.00    -0.019 A 
HETATM   21  C   UNL     1       2.674  29.225  47.057  1.00  0.00     0.074 A 
HETATM   22  C   UNL     1       1.395  29.128  46.497  1.00  0.00     0.037 A 
HETATM   23  C   UNL     1       0.511  28.133  46.915  1.00  0.00     0.003 A 
HETATM   24  C   UNL     1       0.904  27.222  47.885  1.00  0.00     0.001 A 
HETATM   25  C   UNL     1       2.175  27.314  48.455  1.00  0.00     0.010 A 
BRANCH  21  26
HETATM   26  O   UNL     1       3.602  30.160  46.673  1.00  0.00    -0.355 OA
HETATM   27  C   UNL     1       3.169  31.187  45.789  1.00  0.00     0.210 C 
ENDBRANCH  21  26
ENDBRANCH  10  20
TORSDOF 2
ENDMDL
MODEL 4
REMARK VINA RESULT:      -8.1      3.303      7.984
REMARK  2 active torsions:
REMARK  status: ('A' for Active; 'I' for Inactive)
REMARK    1  A    between atoms: C_10  and  C_11 
REMARK    2  A    between atoms: C_12  and  O_13 
ROOT
HETATM    1  C   UNL     1       7.690  32.114  63.267  1.00  0.00     0.076 C 
HETATM    2  C   UNL     1       8.368  31.866  61.980  1.00  0.00     0.050 A 
HETATM    3  O   UNL     1       7.641  31.232  61.018  1.00  0.00    -0.312 OA
HETATM    4  C   UNL     1       8.449  31.078  59.917  1.00  0.00     0.121 A 
HETATM    5  C   UNL     1       8.011  30.426  58.726  1.00  0.00     0.163 A 
HETATM    6  N   UNL     1       8.746  30.149  57.675  1.00  0.00    -0.221 NA
HETATM    7  C   UNL     1       7.918  29.472  56.784  1.00  0.00     0.149 A 
HETATM    8  C   UNL     1       6.640  29.376  57.319  1.00  0.00     0.046 A 
HETATM    9  C   UNL     1       5.336  28.811  56.874  1.00  0.00     0.070 C 
HETATM   10  C   UNL     1       5.328  27.912  55.630  1.00  0.00     0.045 C 
HETATM   11  C   UNL     1       6.654  27.201  55.313  1.00  0.00     0.132 C 
HETATM   12  N   UNL     1       7.731  28.027  54.819  1.00  0.00    -0.355 N 
HETATM   13  C   UNL     1       8.429  28.995  55.497  1.00  0.00     0.272 C 
HETATM   14  O   UNL     1       9.460  29.425  54.983  1.00  0.00    -0.266 OA
HETATM   15  N   UNL     1       6.732  29.991  58.549  1.00  0.00    -0.340 N 
HETATM   16  H   UNL     1       5.992  30.107  59.227  1.00  0.00     0.167 HD
HETATM   17  C   UNL     1       9.686  31.633  60.193  1.00  0.00     0.043 A 
HETATM   18  C   UNL     1       9.634  32.140  61.513  1.00  0.00     0.035 A 
HETATM   19  H   UNL     1       8.208  27.739  53.975  1.00  0.00     0.162 HD
ENDROOT
BRANCH  10  20
HETATM   20  C   UNL     1       4.629  28.580  54.441  1.00  0.00    -0.019 A 
HETATM   21  C   UNL     1       4.282  27.831  53.291  1.00  0.00     0.074 A 
HETATM   22  C   UNL     1       3.658  28.458  52.207  1.00  0.00     0.037 A 
HETATM   23  C   UNL     1       3.341  29.815  52.258  1.00  0.00     0.003 A 
HETATM   24  C   UNL     1       3.635  30.551  53.397  1.00  0.00     0.001 A 
HETATM   25  C   UNL     1       4.264  29.937  54.482  1.00  0.00     0.010 A 
BRANCH  21  26
HETATM   26  O   UNL     1       4.596  26.495  53.319  1.00  0.00    -0.355 OA
HETATM   27  C   UNL     1       5.167  25.932  52.143  1.00  0.00     0.210 C 
ENDBRANCH  21  26
ENDBRANCH  10  20
TORSDOF 2
ENDMDL
MODEL 5
REMARK VINA RESULT:      -8.1      2.659      7.937
REMARK  2 active torsions:
REMARK  status: ('A' for Active; 'I' for Inactive)
REMARK    1  A    between atoms: C_10  and  C_11 
REMARK    2  A    between atoms: C_12  and  O_13 
ROOT
HETATM    1  C   UNL     1       1.504  32.438  55.281  1.00  0.00     0.076 C 
HETATM    2  C   UNL     1       2.924  32.159  55.577  1.00  0.00     0.050 A 
HETATM    3  O   UNL     1       3.303  30.851  55.571  1.00  0.00    -0.312 OA
HETATM    4  C   UNL     1       4.640  30.802  55.886  1.00  0.00     0.121 A 
HETATM    5  C   UNL     1       5.362  29.577  55.994  1.00  0.00     0.163 A 
HETATM    6  N   UNL     1       6.606  29.438  56.388  1.00  0.00    -0.221 NA
HETATM    7  C   UNL     1       6.869  28.071  56.384  1.00  0.00     0.149 A 
HETATM    8  C   UNL     1       5.746  27.384  55.940  1.00  0.00     0.046 A 
HETATM    9  C   UNL     1       5.397  25.957  55.692  1.00  0.00     0.070 C 
HETATM   10  C   UNL     1       6.359  24.880  56.211  1.00  0.00     0.045 C 
HETATM   11  C   UNL     1       7.236  25.290  57.405  1.00  0.00     0.132 C 
HETATM   12  N   UNL     1       8.296  26.234  57.138  1.00  0.00    -0.355 N 
HETATM   13  C   UNL     1       8.178  27.556  56.791  1.00  0.00     0.272 C 
HETATM   14  O   UNL     1       9.190  28.253  56.833  1.00  0.00    -0.266 OA
HETATM   15  N   UNL     1       4.810  28.366  55.700  1.00  0.00    -0.340 N 
HETATM   16  H   UNL     1       3.864  28.237  55.369  1.00  0.00     0.167 HD
HETATM   17  C   UNL     1       5.098  32.094  56.077  1.00  0.00     0.043 A 
HETATM   18  C   UNL     1       4.000  32.963  55.876  1.00  0.00     0.035 A 
HETATM   19  H   UNL     1       9.230  26.008  57.454  1.00  0.00     0.162 HD
ENDROOT
BRANCH  10  20
HETATM   20  C   UNL     1       7.081  24.155  55.070  1.00  0.00    -0.019 A 
HETATM   21  C   UNL     1       7.709  22.906  55.290  1.00  0.00     0.074 A 
HETATM   22  C   UNL     1       8.379  22.262  54.242  1.00  0.00     0.037 A 
HETATM   23  C   UNL     1       8.407  22.826  52.966  1.00  0.00     0.003 A 
HETATM   24  C   UNL     1       7.757  24.029  52.727  1.00  0.00     0.001 A 
HETATM   25  C   UNL     1       7.093  24.682  53.767  1.00  0.00     0.010 A 
BRANCH  21  26
HETATM   26  O   UNL     1       7.618  22.394  56.560  1.00  0.00    -0.355 OA
HETATM   27  C   UNL     1       8.309  21.179  56.828  1.00  0.00     0.210 C 
ENDBRANCH  21  26
ENDBRANCH  10  20
TORSDOF 2
ENDMDL
MODEL 6
REMARK VINA RESULT:      -7.6      5.202      8.586
REMARK  2 active torsions:
REMARK  status: ('A' for Active; 'I' for Inactive)
REMARK    1  A    between atoms: C_10  and  C_11 
REMARK    2  A    between atoms: C_12  and  O_13 
ROOT
HETATM    1  C   UNL     1      10.607  29.350  56.937  1.00  0.00     0.076 C 
HETATM    2  C   UNL     1       9.188  29.743  57.047  1.00  0.00     0.050 A 
HETATM    3  O   UNL     1       8.843  30.490  58.133  1.00  0.00    -0.312 OA
HETATM    4  C   UNL     1       7.493  30.730  58.062  1.00  0.00     0.121 A 
HETATM    5  C   UNL     1       6.789  31.467  59.060  1.00  0.00     0.163 A 
HETATM    6  N   UNL     1       5.491  31.654  59.121  1.00  0.00    -0.221 NA
HETATM    7  C   UNL     1       5.253  32.385  60.281  1.00  0.00     0.149 A 
HETATM    8  C   UNL     1       6.460  32.666  60.909  1.00  0.00     0.046 A 
HETATM    9  C   UNL     1       6.880  33.406  62.131  1.00  0.00     0.070 C 
HETATM   10  C   UNL     1       5.791  33.826  63.128  1.00  0.00     0.045 C 
HETATM   11  C   UNL     1       4.509  32.977  63.111  1.00  0.00     0.132 C 
HETATM   12  N   UNL     1       3.644  33.132  61.965  1.00  0.00    -0.355 N 
HETATM   13  C   UNL     1       3.890  32.758  60.668  1.00  0.00     0.272 C 
HETATM   14  O   UNL     1       2.945  32.759  59.881  1.00  0.00    -0.266 OA
HETATM   15  N   UNL     1       7.413  32.073  60.110  1.00  0.00    -0.340 N 
HETATM   16  H   UNL     1       8.412  32.066  60.259  1.00  0.00     0.167 HD
HETATM   17  C   UNL     1       6.995  30.139  56.914  1.00  0.00     0.043 A 
HETATM   18  C   UNL     1       8.082  29.509  56.263  1.00  0.00     0.035 A 
HETATM   19  H   UNL     1       2.662  33.311  62.126  1.00  0.00     0.162 HD
ENDROOT
BRANCH  10  20
HETATM   20  C   UNL     1       5.586  35.344  63.151  1.00  0.00    -0.019 A 
HETATM   21  C   UNL     1       5.242  36.010  64.352  1.00  0.00     0.074 A 
HETATM   22  C   UNL     1       5.043  37.396  64.354  1.00  0.00     0.037 A 
HETATM   23  C   UNL     1       5.212  38.139  63.186  1.00  0.00     0.003 A 
HETATM   24  C   UNL     1       5.593  37.504  62.012  1.00  0.00     0.001 A 
HETATM   25  C   UNL     1       5.787  36.121  61.997  1.00  0.00     0.010 A 
BRANCH  21  26
HETATM   26  O   UNL     1       5.120  35.223  65.470  1.00  0.00    -0.355 OA
HETATM   27  C   UNL     1       3.913  35.328  66.216  1.00  0.00     0.210 C 
ENDBRANCH  21  26
ENDBRANCH  10  20
TORSDOF 2
ENDMDL
MODEL 7
REMARK VINA RESULT:      -7.6      4.482      7.424
REMARK  2 active torsions:
REMARK  status: ('A' for Active; 'I' for Inactive)
REMARK    1  A    between atoms: C_10  and  C_11 
REMARK    2  A    between atoms: C_12  and  O_13 
ROOT
HETATM    1  C   UNL     1       8.565  20.462  53.238  1.00  0.00     0.076 C 
HETATM    2  C   UNL     1       7.973  21.642  53.898  1.00  0.00     0.050 A 
HETATM    3  O   UNL     1       7.497  22.625  53.084  1.00  0.00    -0.312 OA
HETATM    4  C   UNL     1       7.013  23.632  53.882  1.00  0.00     0.121 A 
HETATM    5  C   UNL     1       6.460  24.836  53.354  1.00  0.00     0.163 A 
HETATM    6  N   UNL     1       6.072  25.884  54.042  1.00  0.00    -0.221 NA
HETATM    7  C   UNL     1       5.649  26.830  53.114  1.00  0.00     0.149 A 
HETATM    8  C   UNL     1       5.763  26.306  51.832  1.00  0.00     0.046 A 
HETATM    9  C   UNL     1       5.465  26.784  50.453  1.00  0.00     0.070 C 
HETATM   10  C   UNL     1       5.144  28.272  50.261  1.00  0.00     0.045 C 
HETATM   11  C   UNL     1       5.719  29.221  51.326  1.00  0.00     0.132 C 
HETATM   12  N   UNL     1       5.112  29.168  52.636  1.00  0.00    -0.355 N 
HETATM   13  C   UNL     1       5.161  28.142  53.545  1.00  0.00     0.272 C 
HETATM   14  O   UNL     1       4.783  28.373  54.693  1.00  0.00    -0.266 OA
HETATM   15  N   UNL     1       6.278  25.042  52.019  1.00  0.00    -0.340 N 
HETATM   16  H   UNL     1       6.500  24.364  51.303  1.00  0.00     0.167 HD
HETATM   17  C   UNL     1       7.178  23.267  55.207  1.00  0.00     0.043 A 
HETATM   18  C   UNL     1       7.790  21.991  55.217  1.00  0.00     0.035 A 
HETATM   19  H   UNL     1       4.813  30.036  53.061  1.00  0.00     0.162 HD
ENDROOT
BRANCH  10  20
HETATM   20  C   UNL     1       3.676  28.501  49.885  1.00  0.00    -0.019 A 
HETATM   21  C   UNL     1       3.123  27.899  48.730  1.00  0.00     0.074 A 
HETATM   22  C   UNL     1       1.784  28.130  48.391  1.00  0.00     0.037 A 
HETATM   23  C   UNL     1       0.974  28.925  49.201  1.00  0.00     0.003 A 
HETATM   24  C   UNL     1       1.493  29.485  50.361  1.00  0.00     0.001 A 
HETATM   25  C   UNL     1       2.828  29.267  50.704  1.00  0.00     0.010 A 
BRANCH  21  26
HETATM   26  O   UNL     1       3.966  27.105  47.994  1.00  0.00    -0.355 OA
HETATM   27  C   UNL     1       3.418  25.926  47.417  1.00  0.00     0.210 C 
ENDBRANCH  21  26
ENDBRANCH  10  20
TORSDOF 2
ENDMDL
MODEL 8
REMARK VINA RESULT:      -7.3      4.788      6.211
REMARK  2 active torsions:
REMARK  status: ('A' for Active; 'I' for Inactive)
REMARK    1  A    between atoms: C_10  and  C_11 
REMARK    2  A    between atoms: C_12  and  O_13 
ROOT
HETATM    1  C   UNL     1       8.936  23.480  56.145  1.00  0.00     0.076 C 
HETATM    2  C   UNL     1       8.374  23.587  54.784  1.00  0.00     0.050 A 
HETATM    3  O   UNL     1       7.717  24.741  54.483  1.00  0.00    -0.312 OA
HETATM    4  C   UNL     1       7.256  24.635  53.193  1.00  0.00     0.121 A 
HETATM    5  C   UNL     1       6.497  25.662  52.559  1.00  0.00     0.163 A 
HETATM    6  N   UNL     1       5.935  25.599  51.375  1.00  0.00    -0.221 NA
HETATM    7  C   UNL     1       5.264  26.804  51.193  1.00  0.00     0.149 A 
HETATM    8  C   UNL     1       5.465  27.620  52.299  1.00  0.00     0.046 A 
HETATM    9  C   UNL     1       5.053  28.993  52.702  1.00  0.00     0.070 C 
HETATM   10  C   UNL     1       3.976  29.696  51.865  1.00  0.00     0.045 C 
HETATM   11  C   UNL     1       3.018  28.769  51.099  1.00  0.00     0.132 C 
HETATM   12  N   UNL     1       3.566  28.065  49.963  1.00  0.00    -0.355 N 
HETATM   13  C   UNL     1       4.506  27.066  49.967  1.00  0.00     0.272 C 
HETATM   14  O   UNL     1       4.673  26.432  48.926  1.00  0.00    -0.266 OA
HETATM   15  N   UNL     1       6.251  26.868  53.145  1.00  0.00    -0.340 N 
HETATM   16  H   UNL     1       6.595  27.139  54.056  1.00  0.00     0.167 HD
HETATM   17  C   UNL     1       7.641  23.407  52.684  1.00  0.00     0.043 A 
HETATM   18  C   UNL     1       8.359  22.737  53.702  1.00  0.00     0.035 A 
HETATM   19  H   UNL     1       3.070  28.114  49.084  1.00  0.00     0.162 HD
ENDROOT
BRANCH  10  20
HETATM   20  C   UNL     1       4.543  30.875  51.068  1.00  0.00    -0.019 A 
HETATM   21  C   UNL     1       3.980  32.168  51.188  1.00  0.00     0.074 A 
HETATM   22  C   UNL     1       4.500  33.233  50.442  1.00  0.00     0.037 A 
HETATM   23  C   UNL     1       5.594  33.041  49.599  1.00  0.00     0.003 A 
HETATM   24  C   UNL     1       6.184  31.788  49.506  1.00  0.00     0.001 A 
HETATM   25  C   UNL     1       5.669  30.718  50.241  1.00  0.00     0.010 A 
BRANCH  21  26
HETATM   26  O   UNL     1       2.925  32.293  52.057  1.00  0.00    -0.355 OA
HETATM   27  C   UNL     1       1.671  32.686  51.511  1.00  0.00     0.210 C 
ENDBRANCH  21  26
ENDBRANCH  10  20
TORSDOF 2
ENDMDL
