MODEL 1
REMARK VINA RESULT:      -9.8      0.000      0.000
REMARK  3 active torsions:
REMARK  status: ('A' for Active; 'I' for Inactive)
REMARK    1  A    between atoms: C_6  and  C_7 
REMARK    2  A    between atoms: C_14  and  N_15 
REMARK    3  A    between atoms: N_15  and  C_16 
ROOT
HETATM    1  C   UNL     1       4.660  27.852  52.111  1.00  0.00     0.001 A 
HETATM    2  C   UNL     1       5.143  27.542  53.380  1.00  0.00     0.018 A 
HETATM    3  C   UNL     1       5.782  26.301  53.635  1.00  0.00     0.039 A 
HETATM    4  C   UNL     1       5.912  25.370  52.598  1.00  0.00     0.073 A 
HETATM    5  N   UNL     1       6.481  24.175  52.764  1.00  0.00    -0.228 NA
HETATM    6  C   UNL     1       6.939  23.868  53.988  1.00  0.00     0.164 A 
HETATM    7  N   UNL     1       6.870  24.686  55.049  1.00  0.00    -0.210 NA
HETATM    8  C   UNL     1       6.304  25.894  54.877  1.00  0.00     0.143 A 
HETATM    9  C   UNL     1       5.424  25.703  51.339  1.00  0.00     0.032 A 
HETATM   10  C   UNL     1       4.805  26.929  51.084  1.00  0.00     0.002 A 
ENDROOT
BRANCH   8  11
HETATM   11  N   UNL     1       6.241  26.795  55.974  1.00  0.00    -0.340 N 
HETATM   12  H   UNL     1       5.277  27.081  56.111  1.00  0.00     0.167 HD
BRANCH  11  13
HETATM   13  C   UNL     1       7.147  27.819  56.335  1.00  0.00     0.036 A 
HETATM   14  C   UNL     1       7.205  28.223  57.681  1.00  0.00     0.069 A 
HETATM   15  C   UNL     1       8.145  29.164  58.050  1.00  0.00     0.107 A 
HETATM   16  C   UNL     1       9.033  29.695  57.147  1.00  0.00     0.105 A 
HETATM   17  O   UNL     1       8.321  29.659  59.305  1.00  0.00    -0.323 OA
HETATM   18  O   UNL     1       9.878  30.595  57.717  1.00  0.00    -0.323 OA
HETATM   19  C   UNL     1       9.035  29.308  55.829  1.00  0.00     0.042 A 
HETATM   20  C   UNL     1       9.426  30.563  59.086  1.00  0.00     0.352 A 
HETATM   21  C   UNL     1       8.092  28.351  55.430  1.00  0.00     0.032 A 
ENDBRANCH  11  13
ENDBRANCH   8  11
BRANCH   6  22
HETATM   22  C   UNL     1       7.558  22.551  54.181  1.00  0.00     0.029 A 
HETATM   23  C   UNL     1       7.807  22.032  55.452  1.00  0.00     0.131 A 
HETATM   24  N   UNL     1       8.376  20.825  55.711  1.00  0.00    -0.272 NA
HETATM   25  C   UNL     1       8.720  20.079  54.641  1.00  0.00     0.116 A 
HETATM   26  C   UNL     1       8.523  20.483  53.333  1.00  0.00     0.020 A 
HETATM   27  C   UNL     1       7.938  21.728  53.108  1.00  0.00     0.018 A 
ENDBRANCH   6  22
TORSDOF 3
ENDMDL
MODEL 2
REMARK VINA RESULT:      -9.7      2.857      5.304
REMARK  3 active torsions:
REMARK  status: ('A' for Active; 'I' for Inactive)
REMARK    1  A    between atoms: C_6  and  C_7 
REMARK    2  A    between atoms: C_14  and  N_15 
REMARK    3  A    between atoms: N_15  and  C_16 
ROOT
HETATM    1  C   UNL     1       6.626  28.299  57.036  1.00  0.00     0.001 A 
HETATM    2  C   UNL     1       6.045  27.664  55.941  1.00  0.00     0.018 A 
HETATM    3  C   UNL     1       6.430  26.349  55.571  1.00  0.00     0.039 A 
HETATM    4  C   UNL     1       7.421  25.691  56.310  1.00  0.00     0.073 A 
HETATM    5  N   UNL     1       7.851  24.463  56.013  1.00  0.00    -0.228 NA
HETATM    6  C   UNL     1       7.301  23.851  54.951  1.00  0.00     0.164 A 
HETATM    7  N   UNL     1       6.344  24.388  54.180  1.00  0.00    -0.210 NA
HETATM    8  C   UNL     1       5.905  25.621  54.488  1.00  0.00     0.143 A 
HETATM    9  C   UNL     1       7.984  26.345  57.401  1.00  0.00     0.032 A 
HETATM   10  C   UNL     1       7.598  27.635  57.771  1.00  0.00     0.002 A 
ENDROOT
BRANCH   8  11
HETATM   11  N   UNL     1       4.873  26.206  53.707  1.00  0.00    -0.340 N 
HETATM   12  H   UNL     1       4.029  25.652  53.805  1.00  0.00     0.167 HD
BRANCH  11  13
HETATM   13  C   UNL     1       4.958  26.806  52.429  1.00  0.00     0.036 A 
HETATM   14  C   UNL     1       5.292  28.169  52.345  1.00  0.00     0.069 A 
HETATM   15  C   UNL     1       5.456  28.736  51.096  1.00  0.00     0.107 A 
HETATM   16  C   UNL     1       5.324  28.002  49.944  1.00  0.00     0.105 A 
HETATM   17  O   UNL     1       5.770  30.036  50.851  1.00  0.00    -0.323 OA
HETATM   18  O   UNL     1       5.534  28.746  48.826  1.00  0.00    -0.323 OA
HETATM   19  C   UNL     1       5.030  26.660  49.977  1.00  0.00     0.042 A 
HETATM   20  C   UNL     1       5.824  30.034  49.408  1.00  0.00     0.352 A 
HETATM   21  C   UNL     1       4.862  26.060  51.233  1.00  0.00     0.032 A 
ENDBRANCH  11  13
ENDBRANCH   8  11
BRANCH   6  22
HETATM   22  C   UNL     1       7.777  22.504  54.612  1.00  0.00     0.029 A 
HETATM   23  C   UNL     1       8.182  21.597  55.592  1.00  0.00     0.131 A 
HETATM   24  N   UNL     1       8.634  20.336  55.357  1.00  0.00    -0.272 NA
HETATM   25  C   UNL     1       8.688  19.945  54.067  1.00  0.00     0.116 A 
HETATM   26  C   UNL     1       8.313  20.753  53.008  1.00  0.00     0.020 A 
HETATM   27  C   UNL     1       7.856  22.040  53.288  1.00  0.00     0.018 A 
ENDBRANCH   6  22
TORSDOF 3
ENDMDL
MODEL 3
REMARK VINA RESULT:      -9.6      1.990      5.053
REMARK  3 active torsions:
REMARK  status: ('A' for Active; 'I' for Inactive)
REMARK    1  A    between atoms: C_6  and  C_7 
REMARK    2  A    between atoms: C_14  and  N_15 
REMARK    3  A    between atoms: N_15  and  C_16 
ROOT
HETATM    1  C   UNL     1       7.757  22.881  55.201  1.00  0.00     0.001 A 
HETATM    2  C   UNL     1       6.915  23.975  55.386  1.00  0.00     0.018 A 
HETATM    3  C   UNL     1       6.439  24.726  54.279  1.00  0.00     0.039 A 
HETATM    4  C   UNL     1       6.838  24.369  52.986  1.00  0.00     0.073 A 
HETATM    5  N   UNL     1       6.451  25.038  51.898  1.00  0.00    -0.228 NA
HETATM    6  C   UNL     1       5.648  26.099  52.073  1.00  0.00     0.164 A 
HETATM    7  N   UNL     1       5.203  26.524  53.265  1.00  0.00    -0.210 NA
HETATM    8  C   UNL     1       5.587  25.843  54.359  1.00  0.00     0.143 A 
HETATM    9  C   UNL     1       7.677  23.272  52.826  1.00  0.00     0.032 A 
HETATM   10  C   UNL     1       8.137  22.526  53.914  1.00  0.00     0.002 A 
ENDROOT
BRANCH   8  11
HETATM   11  N   UNL     1       5.111  26.250  55.634  1.00  0.00    -0.340 N 
HETATM   12  H   UNL     1       4.125  26.020  55.708  1.00  0.00     0.167 HD
BRANCH  11  13
HETATM   13  C   UNL     1       5.433  27.412  56.372  1.00  0.00     0.036 A 
HETATM   14  C   UNL     1       6.653  27.451  57.070  1.00  0.00     0.069 A 
HETATM   15  C   UNL     1       7.007  28.615  57.724  1.00  0.00     0.107 A 
HETATM   16  C   UNL     1       6.214  29.735  57.690  1.00  0.00     0.105 A 
HETATM   17  O   UNL     1       8.145  28.805  58.444  1.00  0.00    -0.323 OA
HETATM   18  O   UNL     1       6.748  30.772  58.388  1.00  0.00    -0.323 OA
HETATM   19  C   UNL     1       5.028  29.755  56.995  1.00  0.00     0.042 A 
HETATM   20  C   UNL     1       7.976  30.178  58.858  1.00  0.00     0.352 A 
HETATM   21  C   UNL     1       4.649  28.586  56.320  1.00  0.00     0.032 A 
ENDBRANCH  11  13
ENDBRANCH   8  11
BRANCH   6  22
HETATM   22  C   UNL     1       5.225  26.846  50.881  1.00  0.00     0.029 A 
HETATM   23  C   UNL     1       5.303  28.238  50.817  1.00  0.00     0.131 A 
HETATM   24  N   UNL     1       4.932  28.997  49.753  1.00  0.00    -0.272 NA
HETATM   25  C   UNL     1       4.452  28.337  48.678  1.00  0.00     0.116 A 
HETATM   26  C   UNL     1       4.328  26.961  48.621  1.00  0.00     0.020 A 
HETATM   27  C   UNL     1       4.719  26.215  49.733  1.00  0.00     0.018 A 
ENDBRANCH   6  22
TORSDOF 3
ENDMDL
MODEL 4
REMARK VINA RESULT:      -9.4      3.458      6.874
REMARK  3 active torsions:
REMARK  status: ('A' for Active; 'I' for Inactive)
REMARK    1  A    between atoms: C_6  and  C_7 
REMARK    2  A    between atoms: C_14  and  N_15 
REMARK    3  A    between atoms: N_15  and  C_16 
ROOT
HETATM    1  C   UNL     1       5.377  27.672  56.619  1.00  0.00     0.001 A 
HETATM    2  C   UNL     1       6.200  26.985  55.729  1.00  0.00     0.018 A 
HETATM    3  C   UNL     1       5.988  27.066  54.328  1.00  0.00     0.039 A 
HETATM    4  C   UNL     1       4.925  27.834  53.838  1.00  0.00     0.073 A 
HETATM    5  N   UNL     1       4.647  27.942  52.537  1.00  0.00    -0.228 NA
HETATM    6  C   UNL     1       5.432  27.274  51.677  1.00  0.00     0.164 A 
HETATM    7  N   UNL     1       6.478  26.515  52.038  1.00  0.00    -0.210 NA
HETATM    8  C   UNL     1       6.760  26.415  53.348  1.00  0.00     0.143 A 
HETATM    9  C   UNL     1       4.118  28.512  54.746  1.00  0.00     0.032 A 
HETATM   10  C   UNL     1       4.334  28.442  56.124  1.00  0.00     0.002 A 
ENDROOT
BRANCH   8  11
HETATM   11  N   UNL     1       7.878  25.642  53.762  1.00  0.00    -0.340 N 
HETATM   12  H   UNL     1       8.717  26.016  53.331  1.00  0.00     0.167 HD
BRANCH  11  13
HETATM   13  C   UNL     1       7.968  24.244  53.953  1.00  0.00     0.036 A 
HETATM   14  C   UNL     1       8.100  23.749  55.263  1.00  0.00     0.069 A 
HETATM   15  C   UNL     1       8.106  22.382  55.458  1.00  0.00     0.107 A 
HETATM   16  C   UNL     1       7.964  21.501  54.416  1.00  0.00     0.105 A 
HETATM   17  O   UNL     1       8.232  21.754  56.658  1.00  0.00    -0.323 OA
HETATM   18  O   UNL     1       7.987  20.204  54.825  1.00  0.00    -0.323 OA
HETATM   19  C   UNL     1       7.800  21.937  53.123  1.00  0.00     0.042 A 
HETATM   20  C   UNL     1       8.150  20.371  56.248  1.00  0.00     0.352 A 
HETATM   21  C   UNL     1       7.788  23.320  52.899  1.00  0.00     0.032 A 
ENDBRANCH  11  13
ENDBRANCH   8  11
BRANCH   6  22
HETATM   22  C   UNL     1       5.128  27.380  50.244  1.00  0.00     0.029 A 
HETATM   23  C   UNL     1       5.388  28.544  49.520  1.00  0.00     0.131 A 
HETATM   24  N   UNL     1       5.134  28.718  48.195  1.00  0.00    -0.272 NA
HETATM   25  C   UNL     1       4.587  27.672  47.543  1.00  0.00     0.116 A 
HETATM   26  C   UNL     1       4.284  26.467  48.151  1.00  0.00     0.020 A 
HETATM   27  C   UNL     1       4.558  26.326  49.511  1.00  0.00     0.018 A 
ENDBRANCH   6  22
TORSDOF 3
ENDMDL
MODEL 5
REMARK VINA RESULT:      -9.4      3.142      7.233
REMARK  3 active torsions:
REMARK  status: ('A' for Active; 'I' for Inactive)
REMARK    1  A    between atoms: C_6  and  C_7 
REMARK    2  A    between atoms: C_14  and  N_15 
REMARK    3  A    between atoms: N_15  and  C_16 
ROOT
HETATM    1  C   UNL     1       7.268  23.142  55.711  1.00  0.00     0.001 A 
HETATM    2  C   UNL     1       6.586  24.321  55.418  1.00  0.00     0.018 A 
HETATM    3  C   UNL     1       7.025  25.566  55.939  1.00  0.00     0.039 A 
HETATM    4  C   UNL     1       8.149  25.603  56.773  1.00  0.00     0.073 A 
HETATM    5  N   UNL     1       8.610  26.731  57.318  1.00  0.00    -0.228 NA
HETATM    6  C   UNL     1       7.949  27.868  57.046  1.00  0.00     0.164 A 
HETATM    7  N   UNL     1       6.867  27.946  56.258  1.00  0.00    -0.210 NA
HETATM    8  C   UNL     1       6.410  26.810  55.703  1.00  0.00     0.143 A 
HETATM    9  C   UNL     1       8.814  24.414  57.049  1.00  0.00     0.032 A 
HETATM   10  C   UNL     1       8.389  23.189  56.527  1.00  0.00     0.002 A 
ENDROOT
BRANCH   8  11
HETATM   11  N   UNL     1       5.282  26.862  54.841  1.00  0.00    -0.340 N 
HETATM   12  H   UNL     1       4.619  26.147  55.121  1.00  0.00     0.167 HD
BRANCH  11  13
HETATM   13  C   UNL     1       5.240  27.096  53.447  1.00  0.00     0.036 A 
HETATM   14  C   UNL     1       5.519  28.390  52.972  1.00  0.00     0.069 A 
HETATM   15  C   UNL     1       5.559  28.602  51.609  1.00  0.00     0.107 A 
HETATM   16  C   UNL     1       5.357  27.583  50.711  1.00  0.00     0.105 A 
HETATM   17  O   UNL     1       5.808  29.791  50.998  1.00  0.00    -0.323 OA
HETATM   18  O   UNL     1       5.448  28.002  49.420  1.00  0.00    -0.323 OA
HETATM   19  C   UNL     1       5.112  26.296  51.127  1.00  0.00     0.042 A 
HETATM   20  C   UNL     1       5.741  29.401  49.609  1.00  0.00     0.352 A 
HETATM   21  C   UNL     1       5.070  26.056  52.507  1.00  0.00     0.032 A 
ENDBRANCH  11  13
ENDBRANCH   8  11
BRANCH   6  22
HETATM   22  C   UNL     1       8.445  29.112  57.651  1.00  0.00     0.029 A 
HETATM   23  C   UNL     1       7.653  29.886  58.499  1.00  0.00     0.131 A 
HETATM   24  N   UNL     1       8.039  31.046  59.094  1.00  0.00    -0.272 NA
HETATM   25  C   UNL     1       9.294  31.468  58.833  1.00  0.00     0.116 A 
HETATM   26  C   UNL     1      10.173  30.789  58.011  1.00  0.00     0.020 A 
HETATM   27  C   UNL     1       9.740  29.603  57.418  1.00  0.00     0.018 A 
ENDBRANCH   6  22
TORSDOF 3
ENDMDL
MODEL 6
REMARK VINA RESULT:      -9.2      1.741      4.728
REMARK  3 active torsions:
REMARK  status: ('A' for Active; 'I' for Inactive)
REMARK    1  A    between atoms: C_6  and  C_7 
REMARK    2  A    between atoms: C_14  and  N_15 
REMARK    3  A    between atoms: N_15  and  C_16 
ROOT
HETATM    1  C   UNL     1       8.774  23.615  57.163  1.00  0.00     0.001 A 
HETATM    2  C   UNL     1       8.256  24.908  57.164  1.00  0.00     0.018 A 
HETATM    3  C   UNL     1       7.570  25.420  56.031  1.00  0.00     0.039 A 
HETATM    4  C   UNL     1       7.430  24.617  54.893  1.00  0.00     0.073 A 
HETATM    5  N   UNL     1       6.817  25.034  53.783  1.00  0.00    -0.228 NA
HETATM    6  C   UNL     1       6.325  26.284  53.777  1.00  0.00     0.164 A 
HETATM    7  N   UNL     1       6.400  27.133  54.812  1.00  0.00    -0.210 NA
HETATM    8  C   UNL     1       7.010  26.707  55.932  1.00  0.00     0.143 A 
HETATM    9  C   UNL     1       7.954  23.329  54.917  1.00  0.00     0.032 A 
HETATM   10  C   UNL     1       8.619  22.821  56.035  1.00  0.00     0.002 A 
ENDROOT
BRANCH   8  11
HETATM   11  N   UNL     1       7.082  27.573  57.056  1.00  0.00    -0.340 N 
HETATM   12  H   UNL     1       6.141  27.781  57.374  1.00  0.00     0.167 HD
BRANCH  11  13
HETATM   13  C   UNL     1       7.963  28.654  57.289  1.00  0.00     0.036 A 
HETATM   14  C   UNL     1       7.746  29.470  58.414  1.00  0.00     0.069 A 
HETATM   15  C   UNL     1       8.652  30.475  58.689  1.00  0.00     0.107 A 
HETATM   16  C   UNL     1       9.764  30.681  57.910  1.00  0.00     0.105 A 
HETATM   17  O   UNL     1       8.577  31.347  59.729  1.00  0.00    -0.323 OA
HETATM   18  O   UNL     1      10.529  31.712  58.358  1.00  0.00    -0.323 OA
HETATM   19  C   UNL     1      10.035  29.889  56.820  1.00  0.00     0.042 A 
HETATM   20  C   UNL     1       9.775  32.126  59.516  1.00  0.00     0.352 A 
HETATM   21  C   UNL     1       9.131  28.859  56.523  1.00  0.00     0.032 A 
ENDBRANCH  11  13
ENDBRANCH   8  11
BRANCH   6  22
HETATM   22  C   UNL     1       5.658  26.753  52.555  1.00  0.00     0.029 A 
HETATM   23  C   UNL     1       5.022  27.993  52.493  1.00  0.00     0.131 A 
HETATM   24  N   UNL     1       4.384  28.495  51.402  1.00  0.00    -0.272 NA
HETATM   25  C   UNL     1       4.375  27.720  50.298  1.00  0.00     0.116 A 
HETATM   26  C   UNL     1       4.972  26.474  50.236  1.00  0.00     0.020 A 
HETATM   27  C   UNL     1       5.616  25.992  51.375  1.00  0.00     0.018 A 
ENDBRANCH   6  22
TORSDOF 3
ENDMDL
MODEL 7
REMARK VINA RESULT:      -8.9      4.329      6.773
REMARK  3 active torsions:
REMARK  status: ('A' for Active; 'I' for Inactive)
REMARK    1  A    between atoms: C_6  and  C_7 
REMARK    2  A    between atoms: C_14  and  N_15 
REMARK    3  A    between atoms: N_15  and  C_16 
ROOT
HETATM    1  C   UNL     1       4.184  29.672  55.062  1.00  0.00     0.001 A 
HETATM    2  C   UNL     1       4.688  29.128  53.883  1.00  0.00     0.018 A 
HETATM    3  C   UNL     1       5.252  27.825  53.862  1.00  0.00     0.039 A 
HETATM    4  C   UNL     1       5.316  27.087  55.050  1.00  0.00     0.073 A 
HETATM    5  N   UNL     1       5.850  25.866  55.116  1.00  0.00    -0.228 NA
HETATM    6  C   UNL     1       6.346  25.342  53.983  1.00  0.00     0.164 A 
HETATM    7  N   UNL     1       6.332  25.960  52.793  1.00  0.00    -0.210 NA
HETATM    8  C   UNL     1       5.785  27.187  52.728  1.00  0.00     0.143 A 
HETATM    9  C   UNL     1       4.804  27.650  56.214  1.00  0.00     0.032 A 
HETATM   10  C   UNL     1       4.239  28.928  56.232  1.00  0.00     0.002 A 
ENDROOT
BRANCH   8  11
HETATM   11  N   UNL     1       5.729  27.857  51.476  1.00  0.00    -0.340 N 
HETATM   12  H   UNL     1       6.044  28.813  51.599  1.00  0.00     0.167 HD
BRANCH  11  13
HETATM   13  C   UNL     1       4.753  27.755  50.457  1.00  0.00     0.036 A 
HETATM   14  C   UNL     1       4.875  26.724  49.509  1.00  0.00     0.069 A 
HETATM   15  C   UNL     1       3.881  26.573  48.563  1.00  0.00     0.107 A 
HETATM   16  C   UNL     1       2.773  27.384  48.540  1.00  0.00     0.105 A 
HETATM   17  O   UNL     1       3.858  25.633  47.580  1.00  0.00    -0.323 OA
HETATM   18  O   UNL     1       1.913  27.061  47.537  1.00  0.00    -0.323 OA
HETATM   19  C   UNL     1       2.595  28.384  49.465  1.00  0.00     0.042 A 
HETATM   20  C   UNL     1       2.603  25.945  46.936  1.00  0.00     0.352 A 
HETATM   21  C   UNL     1       3.590  28.555  50.438  1.00  0.00     0.032 A 
ENDBRANCH  11  13
ENDBRANCH   8  11
BRANCH   6  22
HETATM   22  C   UNL     1       6.944  24.002  54.050  1.00  0.00     0.029 A 
HETATM   23  C   UNL     1       7.128  23.337  55.262  1.00  0.00     0.131 A 
HETATM   24  N   UNL     1       7.674  22.100  55.404  1.00  0.00    -0.272 NA
HETATM   25  C   UNL     1       8.063  21.478  54.272  1.00  0.00     0.116 A 
HETATM   26  C   UNL     1       7.931  22.033  53.012  1.00  0.00     0.020 A 
HETATM   27  C   UNL     1       7.368  23.305  52.907  1.00  0.00     0.018 A 
ENDBRANCH   6  22
TORSDOF 3
ENDMDL
MODEL 8
REMARK VINA RESULT:      -8.9      3.528      7.290
REMARK  3 active torsions:
REMARK  status: ('A' for Active; 'I' for Inactive)
REMARK    1  A    between atoms: C_6  and  C_7 
REMARK    2  A    between atoms: C_14  and  N_15 
REMARK    3  A    between atoms: N_15  and  C_16 
ROOT
HETATM    1  C   UNL     1       8.098  21.915  53.275  1.00  0.00     0.001 A 
HETATM    2  C   UNL     1       7.246  22.969  52.952  1.00  0.00     0.018 A 
HETATM    3  C   UNL     1       7.187  24.134  53.761  1.00  0.00     0.039 A 
HETATM    4  C   UNL     1       7.986  24.215  54.907  1.00  0.00     0.073 A 
HETATM    5  N   UNL     1       7.972  25.267  55.728  1.00  0.00    -0.228 NA
HETATM    6  C   UNL     1       7.144  26.280  55.426  1.00  0.00     0.164 A 
HETATM    7  N   UNL     1       6.341  26.308  54.352  1.00  0.00    -0.210 NA
HETATM    8  C   UNL     1       6.365  25.251  53.521  1.00  0.00     0.143 A 
HETATM    9  C   UNL     1       8.830  23.151  55.208  1.00  0.00     0.032 A 
HETATM   10  C   UNL     1       8.897  22.009  54.406  1.00  0.00     0.002 A 
ENDROOT
BRANCH   8  11
HETATM   11  N   UNL     1       5.547  25.261  52.360  1.00  0.00    -0.340 N 
HETATM   12  H   UNL     1       5.573  24.342  51.929  1.00  0.00     0.167 HD
BRANCH  11  13
HETATM   13  C   UNL     1       5.383  26.284  51.398  1.00  0.00     0.036 A 
HETATM   14  C   UNL     1       4.846  25.949  50.142  1.00  0.00     0.069 A 
HETATM   15  C   UNL     1       4.610  26.960  49.231  1.00  0.00     0.107 A 
HETATM   16  C   UNL     1       4.862  28.276  49.527  1.00  0.00     0.105 A 
HETATM   17  O   UNL     1       4.104  26.796  47.979  1.00  0.00    -0.323 OA
HETATM   18  O   UNL     1       4.552  29.110  48.499  1.00  0.00    -0.323 OA
HETATM   19  C   UNL     1       5.357  28.655  50.752  1.00  0.00     0.042 A 
HETATM   20  C   UNL     1       4.064  28.166  47.523  1.00  0.00     0.352 A 
HETATM   21  C   UNL     1       5.603  27.648  51.695  1.00  0.00     0.032 A 
ENDBRANCH  11  13
ENDBRANCH   8  11
BRANCH   6  22
HETATM   22  C   UNL     1       7.115  27.437  56.330  1.00  0.00     0.029 A 
HETATM   23  C   UNL     1       8.003  27.559  57.399  1.00  0.00     0.131 A 
HETATM   24  N   UNL     1       8.037  28.597  58.277  1.00  0.00    -0.272 NA
HETATM   25  C   UNL     1       7.135  29.580  58.085  1.00  0.00     0.116 A 
HETATM   26  C   UNL     1       6.205  29.574  57.061  1.00  0.00     0.020 A 
HETATM   27  C   UNL     1       6.199  28.492  56.181  1.00  0.00     0.018 A 
ENDBRANCH   6  22
TORSDOF 3
ENDMDL
MODEL 9
REMARK VINA RESULT:      -8.5      3.894      8.762
REMARK  3 active torsions:
REMARK  status: ('A' for Active; 'I' for Inactive)
REMARK    1  A    between atoms: C_6  and  C_7 
REMARK    2  A    between atoms: C_14  and  N_15 
REMARK    3  A    between atoms: N_15  and  C_16 
ROOT
HETATM    1  C   UNL     1      10.781  29.483  56.735  1.00  0.00     0.001 A 
HETATM    2  C   UNL     1       9.447  29.213  56.439  1.00  0.00     0.018 A 
HETATM    3  C   UNL     1       8.398  29.890  57.115  1.00  0.00     0.039 A 
HETATM    4  C   UNL     1       8.713  30.828  58.105  1.00  0.00     0.073 A 
HETATM    5  N   UNL     1       7.784  31.489  58.799  1.00  0.00    -0.228 NA
HETATM    6  C   UNL     1       6.497  31.224  58.524  1.00  0.00     0.164 A 
HETATM    7  N   UNL     1       6.085  30.350  57.593  1.00  0.00    -0.210 NA
HETATM    8  C   UNL     1       7.023  29.692  56.889  1.00  0.00     0.143 A 
HETATM    9  C   UNL     1      10.052  31.081  58.382  1.00  0.00     0.032 A 
HETATM   10  C   UNL     1      11.085  30.424  57.709  1.00  0.00     0.002 A 
ENDROOT
BRANCH   8  11
HETATM   11  N   UNL     1       6.621  28.780  55.878  1.00  0.00    -0.340 N 
HETATM   12  H   UNL     1       5.764  29.116  55.452  1.00  0.00     0.167 HD
BRANCH  11  13
HETATM   13  C   UNL     1       6.684  27.367  55.880  1.00  0.00     0.036 A 
HETATM   14  C   UNL     1       7.241  26.715  54.765  1.00  0.00     0.069 A 
HETATM   15  C   UNL     1       7.379  25.342  54.800  1.00  0.00     0.107 A 
HETATM   16  C   UNL     1       7.010  24.604  55.898  1.00  0.00     0.105 A 
HETATM   17  O   UNL     1       7.890  24.571  53.804  1.00  0.00    -0.323 OA
HETATM   18  O   UNL     1       7.237  23.274  55.731  1.00  0.00    -0.323 OA
HETATM   19  C   UNL     1       6.490  25.200  57.022  1.00  0.00     0.042 A 
HETATM   20  C   UNL     1       7.802  23.260  54.404  1.00  0.00     0.352 A 
HETATM   21  C   UNL     1       6.343  26.594  57.012  1.00  0.00     0.032 A 
ENDBRANCH  11  13
ENDBRANCH   8  11
BRANCH   6  22
HETATM   22  C   UNL     1       5.469  31.940  59.290  1.00  0.00     0.029 A 
HETATM   23  C   UNL     1       4.118  31.878  58.948  1.00  0.00     0.131 A 
HETATM   24  N   UNL     1       3.111  32.512  59.606  1.00  0.00    -0.272 NA
HETATM   25  C   UNL     1       3.463  33.256  60.674  1.00  0.00     0.116 A 
HETATM   26  C   UNL     1       4.767  33.395  61.112  1.00  0.00     0.020 A 
HETATM   27  C   UNL     1       5.773  32.730  60.411  1.00  0.00     0.018 A 
ENDBRANCH   6  22
TORSDOF 3
ENDMDL
MODEL 10
REMARK VINA RESULT:      -8.4      3.278      5.715
REMARK  3 active torsions:
REMARK  status: ('A' for Active; 'I' for Inactive)
REMARK    1  A    between atoms: C_6  and  C_7 
REMARK    2  A    between atoms: C_14  and  N_15 
REMARK    3  A    between atoms: N_15  and  C_16 
ROOT
HETATM    1  C   UNL     1       6.762  29.813  57.685  1.00  0.00     0.001 A 
HETATM    2  C   UNL     1       5.907  29.212  56.764  1.00  0.00     0.018 A 
HETATM    3  C   UNL     1       6.187  27.922  56.241  1.00  0.00     0.039 A 
HETATM    4  C   UNL     1       7.350  27.256  56.645  1.00  0.00     0.073 A 
HETATM    5  N   UNL     1       7.693  26.052  56.183  1.00  0.00    -0.228 NA
HETATM    6  C   UNL     1       6.876  25.474  55.287  1.00  0.00     0.164 A 
HETATM    7  N   UNL     1       5.737  26.021  54.837  1.00  0.00    -0.210 NA
HETATM    8  C   UNL     1       5.389  27.230  55.312  1.00  0.00     0.143 A 
HETATM    9  C   UNL     1       8.187  27.875  57.567  1.00  0.00     0.032 A 
HETATM   10  C   UNL     1       7.906  29.139  58.091  1.00  0.00     0.002 A 
ENDROOT
BRANCH   8  11
HETATM   11  N   UNL     1       4.175  27.825  54.875  1.00  0.00    -0.340 N 
HETATM   12  H   UNL     1       3.418  27.161  54.999  1.00  0.00     0.167 HD
BRANCH  11  13
HETATM   13  C   UNL     1       3.951  28.672  53.765  1.00  0.00     0.036 A 
HETATM   14  C   UNL     1       3.895  28.100  52.481  1.00  0.00     0.069 A 
HETATM   15  C   UNL     1       3.595  28.913  51.406  1.00  0.00     0.107 A 
HETATM   16  C   UNL     1       3.328  30.251  51.561  1.00  0.00     0.105 A 
HETATM   17  O   UNL     1       3.511  28.512  50.109  1.00  0.00    -0.323 OA
HETATM   18  O   UNL     1       3.047  30.865  50.381  1.00  0.00    -0.323 OA
HETATM   19  C   UNL     1       3.340  30.847  52.799  1.00  0.00     0.042 A 
HETATM   20  C   UNL     1       3.158  29.756  49.465  1.00  0.00     0.352 A 
HETATM   21  C   UNL     1       3.639  30.042  53.907  1.00  0.00     0.032 A 
ENDBRANCH  11  13
ENDBRANCH   8  11
BRANCH   6  22
HETATM   22  C   UNL     1       7.252  24.153  54.767  1.00  0.00     0.029 A 
HETATM   23  C   UNL     1       7.473  23.064  55.610  1.00  0.00     0.131 A 
HETATM   24  N   UNL     1       7.824  21.814  55.204  1.00  0.00    -0.272 NA
HETATM   25  C   UNL     1       7.964  21.629  53.876  1.00  0.00     0.116 A 
HETATM   26  C   UNL     1       7.771  22.629  52.940  1.00  0.00     0.020 A 
HETATM   27  C   UNL     1       7.413  23.898  53.395  1.00  0.00     0.018 A 
ENDBRANCH   6  22
TORSDOF 3
ENDMDL
