MODEL 1
REMARK VINA RESULT:      -7.8      0.000      0.000
REMARK  6 active torsions:
REMARK  status: ('A' for Active; 'I' for Inactive)
REMARK    1  A    between atoms: N_2  and  C_3 
REMARK    2  A    between atoms: N_2  and  C_19 
REMARK    3  A    between atoms: C_4  and  N_5 
REMARK       I    between atoms: N_5  and  C_6 
REMARK    4  A    between atoms: C_6  and  C_7 
REMARK    5  A    between atoms: C_7  and  C_8 
REMARK    6  A    between atoms: C_19  and  C_20 
ROOT
HETATM    1  C   UNL     1       7.428  23.362  53.905  1.00  0.00     0.037 A 
HETATM    2  C   UNL     1       7.426  22.985  55.274  1.00  0.00     0.056 A 
HETATM    3  C   UNL     1       7.716  21.671  55.645  1.00  0.00     0.031 A 
HETATM    4  C   UNL     1       8.018  20.718  54.672  1.00  0.00     0.002 A 
HETATM    5  C   UNL     1       8.026  21.072  53.327  1.00  0.00     0.002 A 
HETATM    6  C   UNL     1       7.729  22.382  52.945  1.00  0.00     0.026 A 
ENDROOT
BRANCH   2   7
HETATM    7  N   UNL     1       7.171  24.013  56.206  1.00  0.00    -0.325 N 
HETATM    8  C   UNL     1       8.075  24.744  56.946  1.00  0.00     0.227 C 
HETATM    9  O   UNL     1       9.292  24.557  56.981  1.00  0.00    -0.273 OA
HETATM   10  H   UNL     1       6.177  24.145  56.376  1.00  0.00     0.169 HD
BRANCH   8  11
HETATM   11  C   UNL     1       7.412  25.824  57.801  1.00  0.00     0.159 C 
BRANCH  11  12
HETATM   12  C   UNL     1       7.648  27.197  57.248  1.00  0.00     0.017 A 
HETATM   13  N   UNL     1       8.246  27.397  56.023  1.00  0.00    -0.369 N 
HETATM   14  H   UNL     1       8.516  26.650  55.390  1.00  0.00     0.165 HD
HETATM   15  C   UNL     1       8.353  28.739  55.775  1.00  0.00     0.088 A 
HETATM   16  C   UNL     1       7.817  29.414  56.848  1.00  0.00     0.019 A 
HETATM   17  C   UNL     1       7.373  28.443  57.778  1.00  0.00     0.027 A 
ENDBRANCH  11  12
ENDBRANCH   8  11
ENDBRANCH   2   7
BRANCH   1  18
HETATM   18  N   UNL     1       7.083  24.700  53.553  1.00  0.00    -0.281 NA
HETATM   19  C   UNL     1       8.000  25.319  52.591  1.00  0.00     0.117 C 
BRANCH  18  20
HETATM   20  C   UNL     1       5.651  24.810  53.187  1.00  0.00     0.133 C 
BRANCH  20  21
HETATM   21  C   UNL     1       5.133  26.204  53.478  1.00  0.00    -0.045 A 
HETATM   22  C   UNL     1       4.635  27.020  52.450  1.00  0.00     0.008 A 
HETATM   23  C   UNL     1       4.163  28.305  52.724  1.00  0.00     0.001 A 
HETATM   24  C   UNL     1       4.178  28.789  54.029  1.00  0.00     0.000 A 
HETATM   25  C   UNL     1       4.665  27.990  55.061  1.00  0.00     0.001 A 
HETATM   26  C   UNL     1       5.143  26.706  54.788  1.00  0.00     0.008 A 
ENDBRANCH  20  21
ENDBRANCH  18  20
ENDBRANCH   1  18
TORSDOF 6
ENDMDL
MODEL 2
REMARK VINA RESULT:      -7.7      2.187      5.542
REMARK  6 active torsions:
REMARK  status: ('A' for Active; 'I' for Inactive)
REMARK    1  A    between atoms: N_2  and  C_3 
REMARK    2  A    between atoms: N_2  and  C_19 
REMARK    3  A    between atoms: C_4  and  N_5 
REMARK       I    between atoms: N_5  and  C_6 
REMARK    4  A    between atoms: C_6  and  C_7 
REMARK    5  A    between atoms: C_7  and  C_8 
REMARK    6  A    between atoms: C_19  and  C_20 
ROOT
HETATM    1  C   UNL     1       5.647  26.756  51.687  1.00  0.00     0.037 A 
HETATM    2  C   UNL     1       5.855  28.123  52.008  1.00  0.00     0.056 A 
HETATM    3  C   UNL     1       5.485  29.124  51.107  1.00  0.00     0.031 A 
HETATM    4  C   UNL     1       4.899  28.787  49.886  1.00  0.00     0.002 A 
HETATM    5  C   UNL     1       4.687  27.452  49.558  1.00  0.00     0.002 A 
HETATM    6  C   UNL     1       5.062  26.443  50.449  1.00  0.00     0.026 A 
ENDROOT
BRANCH   2   7
HETATM    7  N   UNL     1       6.395  28.392  53.283  1.00  0.00    -0.325 N 
HETATM    8  C   UNL     1       5.728  28.607  54.469  1.00  0.00     0.227 C 
HETATM    9  O   UNL     1       4.506  28.688  54.602  1.00  0.00    -0.273 OA
HETATM   10  H   UNL     1       7.406  28.507  53.259  1.00  0.00     0.169 HD
BRANCH   8  11
HETATM   11  C   UNL     1       6.671  28.799  55.657  1.00  0.00     0.159 C 
BRANCH  11  12
HETATM   12  C   UNL     1       6.837  27.536  56.447  1.00  0.00     0.017 A 
HETATM   13  N   UNL     1       5.864  26.561  56.477  1.00  0.00    -0.369 N 
HETATM   14  H   UNL     1       5.005  26.594  55.937  1.00  0.00     0.165 HD
HETATM   15  C   UNL     1       6.267  25.532  57.286  1.00  0.00     0.088 A 
HETATM   16  C   UNL     1       7.512  25.843  57.781  1.00  0.00     0.019 A 
HETATM   17  C   UNL     1       7.873  27.106  57.254  1.00  0.00     0.027 A 
ENDBRANCH  11  12
ENDBRANCH   8  11
ENDBRANCH   2   7
BRANCH   1  18
HETATM   18  N   UNL     1       6.077  25.754  52.606  1.00  0.00    -0.281 NA
HETATM   19  C   UNL     1       4.987  24.946  53.162  1.00  0.00     0.117 C 
BRANCH  18  20
HETATM   20  C   UNL     1       7.201  24.961  52.054  1.00  0.00     0.133 C 
BRANCH  20  21
HETATM   21  C   UNL     1       7.708  23.970  53.081  1.00  0.00    -0.045 A 
HETATM   22  C   UNL     1       8.159  24.399  54.339  1.00  0.00     0.008 A 
HETATM   23  C   UNL     1       8.630  23.480  55.279  1.00  0.00     0.001 A 
HETATM   24  C   UNL     1       8.648  22.122  54.978  1.00  0.00     0.000 A 
HETATM   25  C   UNL     1       8.200  21.679  53.735  1.00  0.00     0.001 A 
HETATM   26  C   UNL     1       7.734  22.597  52.790  1.00  0.00     0.008 A 
ENDBRANCH  20  21
ENDBRANCH  18  20
ENDBRANCH   1  18
TORSDOF 6
ENDMDL
MODEL 3
REMARK VINA RESULT:      -7.6      1.779      4.185
REMARK  6 active torsions:
REMARK  status: ('A' for Active; 'I' for Inactive)
REMARK    1  A    between atoms: N_2  and  C_3 
REMARK    2  A    between atoms: N_2  and  C_19 
REMARK    3  A    between atoms: C_4  and  N_5 
REMARK       I    between atoms: N_5  and  C_6 
REMARK    4  A    between atoms: C_6  and  C_7 
REMARK    5  A    between atoms: C_7  and  C_8 
REMARK    6  A    between atoms: C_19  and  C_20 
ROOT
HETATM    1  C   UNL     1       7.149  23.927  55.179  1.00  0.00     0.037 A 
HETATM    2  C   UNL     1       7.106  24.102  53.771  1.00  0.00     0.056 A 
HETATM    3  C   UNL     1       7.532  23.081  52.919  1.00  0.00     0.031 A 
HETATM    4  C   UNL     1       7.996  21.876  53.447  1.00  0.00     0.002 A 
HETATM    5  C   UNL     1       8.042  21.688  54.825  1.00  0.00     0.002 A 
HETATM    6  C   UNL     1       7.627  22.707  55.685  1.00  0.00     0.026 A 
ENDROOT
BRANCH   2   7
HETATM    7  N   UNL     1       6.569  25.321  53.307  1.00  0.00    -0.325 N 
HETATM    8  C   UNL     1       5.256  25.627  53.019  1.00  0.00     0.227 C 
HETATM    9  O   UNL     1       4.314  24.834  53.038  1.00  0.00    -0.273 OA
HETATM   10  H   UNL     1       7.290  26.010  53.102  1.00  0.00     0.169 HD
BRANCH   8  11
HETATM   11  C   UNL     1       5.061  27.085  52.605  1.00  0.00     0.159 C 
BRANCH  11  12
HETATM   12  C   UNL     1       4.758  27.964  53.781  1.00  0.00     0.017 A 
HETATM   13  N   UNL     1       4.504  27.446  55.032  1.00  0.00    -0.369 N 
HETATM   14  H   UNL     1       4.555  26.458  55.263  1.00  0.00     0.165 HD
HETATM   15  C   UNL     1       4.242  28.465  55.909  1.00  0.00     0.088 A 
HETATM   16  C   UNL     1       4.330  29.652  55.220  1.00  0.00     0.019 A 
HETATM   17  C   UNL     1       4.654  29.338  53.877  1.00  0.00     0.027 A 
ENDBRANCH  11  12
ENDBRANCH   8  11
ENDBRANCH   2   7
BRANCH   1  18
HETATM   18  N   UNL     1       6.750  25.004  56.025  1.00  0.00    -0.281 NA
HETATM   19  C   UNL     1       5.587  24.704  56.865  1.00  0.00     0.117 C 
BRANCH  18  20
HETATM   20  C   UNL     1       7.906  25.567  56.763  1.00  0.00     0.133 C 
BRANCH  20  21
HETATM   21  C   UNL     1       7.846  27.081  56.771  1.00  0.00    -0.045 A 
HETATM   22  C   UNL     1       7.577  27.787  57.954  1.00  0.00     0.008 A 
HETATM   23  C   UNL     1       7.519  29.182  57.954  1.00  0.00     0.001 A 
HETATM   24  C   UNL     1       7.735  29.888  56.774  1.00  0.00     0.000 A 
HETATM   25  C   UNL     1       8.007  29.202  55.593  1.00  0.00     0.001 A 
HETATM   26  C   UNL     1       8.060  27.806  55.590  1.00  0.00     0.008 A 
ENDBRANCH  20  21
ENDBRANCH  18  20
ENDBRANCH   1  18
TORSDOF 6
ENDMDL
MODEL 4
REMARK VINA RESULT:      -7.4      1.640      2.324
REMARK  6 active torsions:
REMARK  status: ('A' for Active; 'I' for Inactive)
REMARK    1  A    between atoms: N_2  and  C_3 
REMARK    2  A    between atoms: N_2  and  C_19 
REMARK    3  A    between atoms: C_4  and  N_5 
REMARK       I    between atoms: N_5  and  C_6 
REMARK    4  A    between atoms: C_6  and  C_7 
REMARK    5  A    between atoms: C_7  and  C_8 
REMARK    6  A    between atoms: C_19  and  C_20 
ROOT
HETATM    1  C   UNL     1       7.468  23.406  53.911  1.00  0.00     0.037 A 
HETATM    2  C   UNL     1       7.677  23.461  55.315  1.00  0.00     0.056 A 
HETATM    3  C   UNL     1       8.005  22.304  56.025  1.00  0.00     0.031 A 
HETATM    4  C   UNL     1       8.137  21.086  55.359  1.00  0.00     0.002 A 
HETATM    5  C   UNL     1       7.937  21.016  53.984  1.00  0.00     0.002 A 
HETATM    6  C   UNL     1       7.600  22.165  53.266  1.00  0.00     0.026 A 
ENDROOT
BRANCH   2   7
HETATM    7  N   UNL     1       7.587  24.735  55.912  1.00  0.00    -0.325 N 
HETATM    8  C   UNL     1       6.502  25.318  56.531  1.00  0.00     0.227 C 
HETATM    9  O   UNL     1       5.369  24.839  56.594  1.00  0.00    -0.273 OA
HETATM   10  H   UNL     1       8.430  25.288  55.776  1.00  0.00     0.169 HD
BRANCH   8  11
HETATM   11  C   UNL     1       6.818  26.693  57.118  1.00  0.00     0.159 C 
BRANCH  11  12
HETATM   12  C   UNL     1       5.886  27.748  56.602  1.00  0.00     0.017 A 
HETATM   13  N   UNL     1       4.521  27.568  56.581  1.00  0.00    -0.369 N 
HETATM   14  H   UNL     1       4.046  26.752  56.955  1.00  0.00     0.165 HD
HETATM   15  C   UNL     1       3.917  28.675  56.046  1.00  0.00     0.088 A 
HETATM   16  C   UNL     1       4.901  29.580  55.720  1.00  0.00     0.019 A 
HETATM   17  C   UNL     1       6.143  28.997  56.069  1.00  0.00     0.027 A 
ENDBRANCH  11  12
ENDBRANCH   8  11
ENDBRANCH   2   7
BRANCH   1  18
HETATM   18  N   UNL     1       7.090  24.593  53.219  1.00  0.00    -0.281 NA
HETATM   19  C   UNL     1       8.056  25.027  52.205  1.00  0.00     0.117 C 
BRANCH  18  20
HETATM   20  C   UNL     1       5.692  24.513  52.733  1.00  0.00     0.133 C 
BRANCH  20  21
HETATM   21  C   UNL     1       5.261  25.835  52.130  1.00  0.00    -0.045 A 
HETATM   22  C   UNL     1       4.958  26.937  52.946  1.00  0.00     0.008 A 
HETATM   23  C   UNL     1       4.558  28.151  52.384  1.00  0.00     0.001 A 
HETATM   24  C   UNL     1       4.462  28.281  51.002  1.00  0.00     0.000 A 
HETATM   25  C   UNL     1       4.762  27.198  50.179  1.00  0.00     0.001 A 
HETATM   26  C   UNL     1       5.158  25.981  50.739  1.00  0.00     0.008 A 
ENDBRANCH  20  21
ENDBRANCH  18  20
ENDBRANCH   1  18
TORSDOF 6
ENDMDL
MODEL 5
REMARK VINA RESULT:      -7.4      2.037      5.209
REMARK  6 active torsions:
REMARK  status: ('A' for Active; 'I' for Inactive)
REMARK    1  A    between atoms: N_2  and  C_3 
REMARK    2  A    between atoms: N_2  and  C_19 
REMARK    3  A    between atoms: C_4  and  N_5 
REMARK       I    between atoms: N_5  and  C_6 
REMARK    4  A    between atoms: C_6  and  C_7 
REMARK    5  A    between atoms: C_7  and  C_8 
REMARK    6  A    between atoms: C_19  and  C_20 
ROOT
HETATM    1  C   UNL     1       5.662  26.806  51.874  1.00  0.00     0.037 A 
HETATM    2  C   UNL     1       5.789  28.015  52.607  1.00  0.00     0.056 A 
HETATM    3  C   UNL     1       5.598  29.246  51.978  1.00  0.00     0.031 A 
HETATM    4  C   UNL     1       5.272  29.297  50.622  1.00  0.00     0.002 A 
HETATM    5  C   UNL     1       5.142  28.122  49.890  1.00  0.00     0.002 A 
HETATM    6  C   UNL     1       5.340  26.885  50.508  1.00  0.00     0.026 A 
ENDROOT
BRANCH   2   7
HETATM    7  N   UNL     1       6.060  27.885  53.986  1.00  0.00    -0.325 N 
HETATM    8  C   UNL     1       7.247  28.106  54.651  1.00  0.00     0.227 C 
HETATM    9  O   UNL     1       8.326  28.381  54.124  1.00  0.00    -0.273 OA
HETATM   10  H   UNL     1       5.271  27.504  54.502  1.00  0.00     0.169 HD
BRANCH   8  11
HETATM   11  C   UNL     1       7.125  27.924  56.164  1.00  0.00     0.159 C 
BRANCH  11  12
HETATM   12  C   UNL     1       7.994  28.888  56.914  1.00  0.00     0.017 A 
HETATM   13  N   UNL     1       9.365  28.887  56.783  1.00  0.00    -0.369 N 
HETATM   14  H   UNL     1       9.878  28.288  56.143  1.00  0.00     0.165 HD
HETATM   15  C   UNL     1       9.907  29.852  57.590  1.00  0.00     0.088 A 
HETATM   16  C   UNL     1       8.876  30.484  58.247  1.00  0.00     0.019 A 
HETATM   17  C   UNL     1       7.669  29.877  57.823  1.00  0.00     0.027 A 
ENDBRANCH  11  12
ENDBRANCH   8  11
ENDBRANCH   2   7
BRANCH   1  18
HETATM   18  N   UNL     1       5.909  25.565  52.531  1.00  0.00    -0.281 NA
HETATM   19  C   UNL     1       4.779  24.631  52.486  1.00  0.00     0.117 C 
BRANCH  18  20
HETATM   20  C   UNL     1       7.202  24.977  52.109  1.00  0.00     0.133 C 
BRANCH  20  21
HETATM   21  C   UNL     1       7.715  24.010  53.158  1.00  0.00    -0.045 A 
HETATM   22  C   UNL     1       7.964  22.666  52.841  1.00  0.00     0.008 A 
HETATM   23  C   UNL     1       8.433  21.780  53.813  1.00  0.00     0.001 A 
HETATM   24  C   UNL     1       8.664  22.227  55.111  1.00  0.00     0.000 A 
HETATM   25  C   UNL     1       8.424  23.559  55.440  1.00  0.00     0.001 A 
HETATM   26  C   UNL     1       7.951  24.447  54.470  1.00  0.00     0.008 A 
ENDBRANCH  20  21
ENDBRANCH  18  20
ENDBRANCH   1  18
TORSDOF 6
ENDMDL
MODEL 6
REMARK VINA RESULT:      -7.4      3.570      7.572
REMARK  6 active torsions:
REMARK  status: ('A' for Active; 'I' for Inactive)
REMARK    1  A    between atoms: N_2  and  C_3 
REMARK    2  A    between atoms: N_2  and  C_19 
REMARK    3  A    between atoms: C_4  and  N_5 
REMARK       I    between atoms: N_5  and  C_6 
REMARK    4  A    between atoms: C_6  and  C_7 
REMARK    5  A    between atoms: C_7  and  C_8 
REMARK    6  A    between atoms: C_19  and  C_20 
ROOT
HETATM    1  C   UNL     1       5.720  26.521  53.390  1.00  0.00     0.037 A 
HETATM    2  C   UNL     1       4.634  27.085  52.671  1.00  0.00     0.056 A 
HETATM    3  C   UNL     1       3.849  28.085  53.248  1.00  0.00     0.031 A 
HETATM    4  C   UNL     1       4.132  28.544  54.534  1.00  0.00     0.002 A 
HETATM    5  C   UNL     1       5.194  28.002  55.251  1.00  0.00     0.002 A 
HETATM    6  C   UNL     1       5.980  26.995  54.686  1.00  0.00     0.026 A 
ENDROOT
BRANCH   2   7
HETATM    7  N   UNL     1       4.443  26.616  51.354  1.00  0.00    -0.325 N 
HETATM    8  C   UNL     1       4.692  27.269  50.166  1.00  0.00     0.227 C 
HETATM    9  O   UNL     1       5.055  28.440  50.053  1.00  0.00    -0.273 OA
HETATM   10  H   UNL     1       3.992  25.704  51.329  1.00  0.00     0.169 HD
BRANCH   8  11
HETATM   11  C   UNL     1       4.421  26.398  48.939  1.00  0.00     0.159 C 
BRANCH  11  12
HETATM   12  C   UNL     1       3.114  26.741  48.289  1.00  0.00     0.017 A 
HETATM   13  N   UNL     1       2.158  27.499  48.930  1.00  0.00    -0.369 N 
HETATM   14  H   UNL     1       2.282  27.921  49.845  1.00  0.00     0.165 HD
HETATM   15  C   UNL     1       1.064  27.642  48.118  1.00  0.00     0.088 A 
HETATM   16  C   UNL     1       1.316  26.973  46.943  1.00  0.00     0.019 A 
HETATM   17  C   UNL     1       2.608  26.404  47.049  1.00  0.00     0.027 A 
ENDBRANCH  11  12
ENDBRANCH   8  11
ENDBRANCH   2   7
BRANCH   1  18
HETATM   18  N   UNL     1       6.476  25.468  52.794  1.00  0.00    -0.281 NA
HETATM   19  C   UNL     1       7.926  25.680  52.830  1.00  0.00     0.117 C 
BRANCH  18  20
HETATM   20  C   UNL     1       6.042  24.142  53.293  1.00  0.00     0.133 C 
BRANCH  20  21
HETATM   21  C   UNL     1       7.212  23.390  53.894  1.00  0.00    -0.045 A 
HETATM   22  C   UNL     1       7.944  22.465  53.134  1.00  0.00     0.008 A 
HETATM   23  C   UNL     1       9.019  21.772  53.695  1.00  0.00     0.001 A 
HETATM   24  C   UNL     1       9.380  22.001  55.020  1.00  0.00     0.000 A 
HETATM   25  C   UNL     1       8.666  22.920  55.786  1.00  0.00     0.001 A 
HETATM   26  C   UNL     1       7.587  23.610  55.228  1.00  0.00     0.008 A 
ENDBRANCH  20  21
ENDBRANCH  18  20
ENDBRANCH   1  18
TORSDOF 6
ENDMDL
MODEL 7
REMARK VINA RESULT:      -7.3      2.355      5.174
REMARK  6 active torsions:
REMARK  status: ('A' for Active; 'I' for Inactive)
REMARK    1  A    between atoms: N_2  and  C_3 
REMARK    2  A    between atoms: N_2  and  C_19 
REMARK    3  A    between atoms: C_4  and  N_5 
REMARK       I    between atoms: N_5  and  C_6 
REMARK    4  A    between atoms: C_6  and  C_7 
REMARK    5  A    between atoms: C_7  and  C_8 
REMARK    6  A    between atoms: C_19  and  C_20 
ROOT
HETATM    1  C   UNL     1       7.343  24.371  55.150  1.00  0.00     0.037 A 
HETATM    2  C   UNL     1       7.371  24.474  53.734  1.00  0.00     0.056 A 
HETATM    3  C   UNL     1       7.961  23.469  52.965  1.00  0.00     0.031 A 
HETATM    4  C   UNL     1       8.522  22.351  53.583  1.00  0.00     0.002 A 
HETATM    5  C   UNL     1       8.501  22.235  54.969  1.00  0.00     0.002 A 
HETATM    6  C   UNL     1       7.921  23.239  55.748  1.00  0.00     0.026 A 
ENDROOT
BRANCH   2   7
HETATM    7  N   UNL     1       6.732  25.600  53.175  1.00  0.00    -0.325 N 
HETATM    8  C   UNL     1       5.425  25.725  52.754  1.00  0.00     0.227 C 
HETATM    9  O   UNL     1       4.594  24.818  52.715  1.00  0.00    -0.273 OA
HETATM   10  H   UNL     1       7.376  26.370  53.012  1.00  0.00     0.169 HD
BRANCH   8  11
HETATM   11  C   UNL     1       5.088  27.134  52.267  1.00  0.00     0.159 C 
BRANCH  11  12
HETATM   12  C   UNL     1       4.917  27.184  50.778  1.00  0.00     0.017 A 
HETATM   13  N   UNL     1       4.332  26.153  50.076  1.00  0.00    -0.369 N 
HETATM   14  H   UNL     1       3.931  25.325  50.506  1.00  0.00     0.165 HD
HETATM   15  C   UNL     1       4.321  26.453  48.740  1.00  0.00     0.088 A 
HETATM   16  C   UNL     1       4.902  27.689  48.576  1.00  0.00     0.019 A 
HETATM   17  C   UNL     1       5.279  28.152  49.861  1.00  0.00     0.027 A 
ENDBRANCH  11  12
ENDBRANCH   8  11
ENDBRANCH   2   7
BRANCH   1  18
HETATM   18  N   UNL     1       6.775  25.434  55.912  1.00  0.00    -0.281 NA
HETATM   19  C   UNL     1       5.706  25.011  56.822  1.00  0.00     0.117 C 
BRANCH  18  20
HETATM   20  C   UNL     1       7.825  26.263  56.550  1.00  0.00     0.133 C 
BRANCH  20  21
HETATM   21  C   UNL     1       7.347  27.691  56.719  1.00  0.00    -0.045 A 
HETATM   22  C   UNL     1       7.645  28.420  57.880  1.00  0.00     0.008 A 
HETATM   23  C   UNL     1       7.197  29.734  58.031  1.00  0.00     0.001 A 
HETATM   24  C   UNL     1       6.453  30.337  57.021  1.00  0.00     0.000 A 
HETATM   25  C   UNL     1       6.152  29.628  55.861  1.00  0.00     0.001 A 
HETATM   26  C   UNL     1       6.595  28.311  55.710  1.00  0.00     0.008 A 
ENDBRANCH  20  21
ENDBRANCH  18  20
ENDBRANCH   1  18
TORSDOF 6
ENDMDL
MODEL 8
REMARK VINA RESULT:      -7.3      2.830      6.127
REMARK  6 active torsions:
REMARK  status: ('A' for Active; 'I' for Inactive)
REMARK    1  A    between atoms: N_2  and  C_3 
REMARK    2  A    between atoms: N_2  and  C_19 
REMARK    3  A    between atoms: C_4  and  N_5 
REMARK       I    between atoms: N_5  and  C_6 
REMARK    4  A    between atoms: C_6  and  C_7 
REMARK    5  A    between atoms: C_7  and  C_8 
REMARK    6  A    between atoms: C_19  and  C_20 
ROOT
HETATM    1  C   UNL     1       4.311  28.031  50.175  1.00  0.00     0.037 A 
HETATM    2  C   UNL     1       4.714  26.703  49.874  1.00  0.00     0.056 A 
HETATM    3  C   UNL     1       4.005  25.945  48.940  1.00  0.00     0.031 A 
HETATM    4  C   UNL     1       2.899  26.491  48.289  1.00  0.00     0.002 A 
HETATM    5  C   UNL     1       2.492  27.791  48.571  1.00  0.00     0.002 A 
HETATM    6  C   UNL     1       3.189  28.554  49.511  1.00  0.00     0.026 A 
ENDROOT
BRANCH   2   7
HETATM    7  N   UNL     1       5.876  26.239  50.525  1.00  0.00    -0.325 N 
HETATM    8  C   UNL     1       5.973  25.379  51.598  1.00  0.00     0.227 C 
HETATM    9  O   UNL     1       5.026  24.924  52.241  1.00  0.00    -0.273 OA
HETATM   10  H   UNL     1       6.721  26.681  50.172  1.00  0.00     0.169 HD
BRANCH   8  11
HETATM   11  C   UNL     1       7.419  25.059  51.976  1.00  0.00     0.159 C 
BRANCH  11  12
HETATM   12  C   UNL     1       7.498  23.981  53.015  1.00  0.00     0.017 A 
HETATM   13  N   UNL     1       7.107  24.194  54.319  1.00  0.00    -0.369 N 
HETATM   14  H   UNL     1       6.693  25.057  54.657  1.00  0.00     0.165 HD
HETATM   15  C   UNL     1       7.302  23.054  55.052  1.00  0.00     0.088 A 
HETATM   16  C   UNL     1       7.822  22.094  54.214  1.00  0.00     0.019 A 
HETATM   17  C   UNL     1       7.947  22.677  52.930  1.00  0.00     0.027 A 
ENDBRANCH  11  12
ENDBRANCH   8  11
ENDBRANCH   2   7
BRANCH   1  18
HETATM   18  N   UNL     1       5.025  28.766  51.167  1.00  0.00    -0.281 NA
HETATM   19  C   UNL     1       5.480  30.086  50.720  1.00  0.00     0.117 C 
BRANCH  18  20
HETATM   20  C   UNL     1       4.298  28.778  52.459  1.00  0.00     0.133 C 
BRANCH  20  21
HETATM   21  C   UNL     1       5.210  28.337  53.586  1.00  0.00    -0.045 A 
HETATM   22  C   UNL     1       6.603  28.308  53.420  1.00  0.00     0.008 A 
HETATM   23  C   UNL     1       7.437  27.897  54.462  1.00  0.00     0.001 A 
HETATM   24  C   UNL     1       6.889  27.517  55.684  1.00  0.00     0.000 A 
HETATM   25  C   UNL     1       5.509  27.545  55.866  1.00  0.00     0.001 A 
HETATM   26  C   UNL     1       4.672  27.950  54.823  1.00  0.00     0.008 A 
ENDBRANCH  20  21
ENDBRANCH  18  20
ENDBRANCH   1  18
TORSDOF 6
ENDMDL
MODEL 9
REMARK VINA RESULT:      -7.2      3.194      7.285
REMARK  6 active torsions:
REMARK  status: ('A' for Active; 'I' for Inactive)
REMARK    1  A    between atoms: N_2  and  C_3 
REMARK    2  A    between atoms: N_2  and  C_19 
REMARK    3  A    between atoms: C_4  and  N_5 
REMARK       I    between atoms: N_5  and  C_6 
REMARK    4  A    between atoms: C_6  and  C_7 
REMARK    5  A    between atoms: C_7  and  C_8 
REMARK    6  A    between atoms: C_19  and  C_20 
ROOT
HETATM    1  C   UNL     1       6.041  28.460  54.642  1.00  0.00     0.037 A 
HETATM    2  C   UNL     1       4.878  28.384  53.830  1.00  0.00     0.056 A 
HETATM    3  C   UNL     1       3.765  29.177  54.115  1.00  0.00     0.031 A 
HETATM    4  C   UNL     1       3.789  30.056  55.198  1.00  0.00     0.002 A 
HETATM    5  C   UNL     1       4.921  30.144  56.001  1.00  0.00     0.002 A 
HETATM    6  C   UNL     1       6.037  29.349  55.730  1.00  0.00     0.026 A 
ENDROOT
BRANCH   2   7
HETATM    7  N   UNL     1       4.947  27.518  52.719  1.00  0.00    -0.325 N 
HETATM    8  C   UNL     1       5.239  27.827  51.407  1.00  0.00     0.227 C 
HETATM    9  O   UNL     1       5.412  28.960  50.957  1.00  0.00    -0.273 OA
HETATM   10  H   UNL     1       4.663  26.569  52.948  1.00  0.00     0.169 HD
BRANCH   8  11
HETATM   11  C   UNL     1       5.284  26.596  50.501  1.00  0.00     0.159 C 
BRANCH  11  12
HETATM   12  C   UNL     1       4.344  26.723  49.340  1.00  0.00     0.017 A 
HETATM   13  N   UNL     1       3.142  27.388  49.445  1.00  0.00    -0.369 N 
HETATM   14  H   UNL     1       2.831  27.880  50.277  1.00  0.00     0.165 HD
HETATM   15  C   UNL     1       2.480  27.336  48.247  1.00  0.00     0.088 A 
HETATM   16  C   UNL     1       3.261  26.632  47.360  1.00  0.00     0.019 A 
HETATM   17  C   UNL     1       4.437  26.244  48.048  1.00  0.00     0.027 A 
ENDBRANCH  11  12
ENDBRANCH   8  11
ENDBRANCH   2   7
BRANCH   1  18
HETATM   18  N   UNL     1       7.146  27.605  54.355  1.00  0.00    -0.281 NA
HETATM   19  C   UNL     1       8.427  28.307  54.234  1.00  0.00     0.117 C 
BRANCH  18  20
HETATM   20  C   UNL     1       7.175  26.436  55.265  1.00  0.00     0.133 C 
BRANCH  20  21
HETATM   21  C   UNL     1       7.378  25.156  54.481  1.00  0.00    -0.045 A 
HETATM   22  C   UNL     1       7.281  23.902  55.104  1.00  0.00     0.008 A 
HETATM   23  C   UNL     1       7.473  22.727  54.377  1.00  0.00     0.001 A 
HETATM   24  C   UNL     1       7.758  22.788  53.016  1.00  0.00     0.000 A 
HETATM   25  C   UNL     1       7.854  24.025  52.381  1.00  0.00     0.001 A 
HETATM   26  C   UNL     1       7.667  25.203  53.108  1.00  0.00     0.008 A 
ENDBRANCH  20  21
ENDBRANCH  18  20
ENDBRANCH   1  18
TORSDOF 6
ENDMDL
MODEL 10
REMARK VINA RESULT:      -7.0      9.490     13.432
REMARK  6 active torsions:
REMARK  status: ('A' for Active; 'I' for Inactive)
REMARK    1  A    between atoms: N_2  and  C_3 
REMARK    2  A    between atoms: N_2  and  C_19 
REMARK    3  A    between atoms: C_4  and  N_5 
REMARK       I    between atoms: N_5  and  C_6 
REMARK    4  A    between atoms: C_6  and  C_7 
REMARK    5  A    between atoms: C_7  and  C_8 
REMARK    6  A    between atoms: C_19  and  C_20 
ROOT
HETATM    1  C   UNL     1       4.414  35.087  64.680  1.00  0.00     0.037 A 
HETATM    2  C   UNL     1       5.544  34.227  64.659  1.00  0.00     0.056 A 
HETATM    3  C   UNL     1       6.214  33.913  65.843  1.00  0.00     0.031 A 
HETATM    4  C   UNL     1       5.772  34.436  67.058  1.00  0.00     0.002 A 
HETATM    5  C   UNL     1       4.666  35.278  67.096  1.00  0.00     0.002 A 
HETATM    6  C   UNL     1       3.994  35.606  65.916  1.00  0.00     0.026 A 
ENDROOT
BRANCH   2   7
HETATM    7  N   UNL     1       5.897  33.688  63.404  1.00  0.00    -0.325 N 
HETATM    8  C   UNL     1       5.556  32.464  62.870  1.00  0.00     0.227 C 
HETATM    9  O   UNL     1       4.936  31.574  63.452  1.00  0.00    -0.273 OA
HETATM   10  H   UNL     1       6.549  34.282  62.896  1.00  0.00     0.169 HD
BRANCH   8  11
HETATM   11  C   UNL     1       6.077  32.270  61.446  1.00  0.00     0.159 C 
BRANCH  11  12
HETATM   12  C   UNL     1       7.498  31.791  61.432  1.00  0.00     0.017 A 
HETATM   13  N   UNL     1       7.880  30.625  62.056  1.00  0.00    -0.369 N 
HETATM   14  H   UNL     1       7.239  29.985  62.516  1.00  0.00     0.165 HD
HETATM   15  C   UNL     1       9.229  30.439  61.902  1.00  0.00     0.088 A 
HETATM   16  C   UNL     1       9.722  31.494  61.169  1.00  0.00     0.019 A 
HETATM   17  C   UNL     1       8.632  32.348  60.872  1.00  0.00     0.027 A 
ENDBRANCH  11  12
ENDBRANCH   8  11
ENDBRANCH   2   7
BRANCH   1  18
HETATM   18  N   UNL     1       3.778  35.428  63.450  1.00  0.00    -0.281 NA
HETATM   19  C   UNL     1       2.640  34.570  63.109  1.00  0.00     0.117 C 
BRANCH  18  20
HETATM   20  C   UNL     1       3.490  36.880  63.375  1.00  0.00     0.133 C 
BRANCH  20  21
HETATM   21  C   UNL     1       4.722  37.645  62.935  1.00  0.00    -0.045 A 
HETATM   22  C   UNL     1       5.075  37.728  61.579  1.00  0.00     0.008 A 
HETATM   23  C   UNL     1       6.214  38.430  61.180  1.00  0.00     0.001 A 
HETATM   24  C   UNL     1       7.009  39.065  62.130  1.00  0.00     0.000 A 
HETATM   25  C   UNL     1       6.670  38.996  63.479  1.00  0.00     0.001 A 
HETATM   26  C   UNL     1       5.534  38.289  63.881  1.00  0.00     0.008 A 
ENDBRANCH  20  21
ENDBRANCH  18  20
ENDBRANCH   1  18
TORSDOF 6
ENDMDL
