MODEL 1
REMARK VINA RESULT:     -10.6      0.000      0.000
REMARK  5 active torsions:
REMARK  status: ('A' for Active; 'I' for Inactive)
REMARK    1  A    between atoms: C_7  and  C_8 
REMARK    2  A    between atoms: C_16  and  C_17 
REMARK    3  A    between atoms: C_20  and  O_21 
REMARK    4  A    between atoms: C_24  and  C_25 
REMARK       I    between atoms: C_25  and  N_26 
REMARK    5  A    between atoms: N_26  and  C_27 
ROOT
HETATM    1  C   UNL     1       4.987  28.200  56.933  1.00  0.00     0.070 C 
HETATM    2  C   UNL     1       5.448  27.558  55.647  1.00  0.00     0.037 C 
HETATM    3  N   UNL     1       4.459  27.374  54.677  1.00  0.00    -0.192 N 
HETATM    4  C   UNL     1       4.760  27.104  53.390  1.00  0.00     0.726 A 
HETATM    5  N   UNL     1       6.027  26.709  53.077  1.00  0.00    -0.083 N 
HETATM    6  N   UNL     1       6.203  26.598  51.747  1.00  0.00    -0.135 NA
HETATM    7  C   UNL     1       4.976  26.929  51.295  1.00  0.00     0.200 A 
HETATM    8  N   UNL     1       4.060  27.206  52.294  1.00  0.00    -0.041 NA
HETATM    9  C   UNL     1       7.084  26.508  54.067  1.00  0.00     0.202 C 
HETATM   10  C   UNL     1       6.728  27.181  55.391  1.00  0.00     0.062 C 
HETATM   11  H   UNL     1       3.557  27.811  54.862  1.00  0.00     0.184 HD
ENDROOT
BRANCH  10  12
HETATM   12  C   UNL     1       7.852  27.624  56.274  1.00  0.00     0.256 C 
HETATM   13  N   UNL     1       8.237  28.937  56.108  1.00  0.00    -0.323 N 
HETATM   14  H   UNL     1       7.830  29.467  55.350  1.00  0.00     0.169 HD
HETATM   15  O   UNL     1       8.301  26.841  57.105  1.00  0.00    -0.267 OA
BRANCH  13  16
HETATM   16  C   UNL     1       9.151  29.665  56.902  1.00  0.00     0.035 A 
HETATM   17  C   UNL     1      10.533  29.678  56.698  1.00  0.00     0.029 A 
HETATM   18  C   UNL     1      11.369  30.410  57.548  1.00  0.00     0.002 A 
HETATM   19  C   UNL     1      10.834  31.127  58.613  1.00  0.00     0.000 A 
HETATM   20  C   UNL     1       9.457  31.122  58.826  1.00  0.00     0.002 A 
HETATM   21  C   UNL     1       8.621  30.400  57.971  1.00  0.00     0.029 A 
ENDBRANCH  13  16
ENDBRANCH  10  12
BRANCH   9  22
HETATM   22  C   UNL     1       7.357  25.008  54.197  1.00  0.00    -0.028 A 
HETATM   23  C   UNL     1       7.997  24.323  53.146  1.00  0.00     0.012 A 
HETATM   24  C   UNL     1       8.256  22.952  53.240  1.00  0.00     0.037 A 
HETATM   25  C   UNL     1       7.872  22.258  54.382  1.00  0.00     0.065 A 
HETATM   26  C   UNL     1       7.228  22.909  55.425  1.00  0.00     0.037 A 
HETATM   27  C   UNL     1       6.962  24.275  55.331  1.00  0.00     0.012 A 
BRANCH  25  28
HETATM   28  O   UNL     1       8.102  20.922  54.514  1.00  0.00    -0.361 OA
HETATM   29  H   UNL     1       8.815  20.787  55.159  1.00  0.00     0.217 HD
ENDBRANCH  25  28
ENDBRANCH   9  22
BRANCH   7  30
HETATM   30  C   UNL     1       4.642  26.959  49.877  1.00  0.00     0.036 A 
HETATM   31  C   UNL     1       4.943  28.047  49.042  1.00  0.00     0.048 A 
HETATM   32 CL   UNL     1       5.791  29.456  49.584  1.00  0.00    -0.083 Cl
HETATM   33  C   UNL     1       4.601  28.007  47.683  1.00  0.00     0.025 A 
HETATM   34  C   UNL     1       3.964  26.890  47.143  1.00  0.00     0.002 A 
HETATM   35  C   UNL     1       3.668  25.802  47.958  1.00  0.00     0.001 A 
HETATM   36  C   UNL     1       4.007  25.836  49.313  1.00  0.00     0.017 A 
ENDBRANCH   7  30
TORSDOF 5
ENDMDL
MODEL 2
REMARK VINA RESULT:     -10.2      4.730      7.455
REMARK  5 active torsions:
REMARK  status: ('A' for Active; 'I' for Inactive)
REMARK    1  A    between atoms: C_7  and  C_8 
REMARK    2  A    between atoms: C_16  and  C_17 
REMARK    3  A    between atoms: C_20  and  O_21 
REMARK    4  A    between atoms: C_24  and  C_25 
REMARK       I    between atoms: C_25  and  N_26 
REMARK    5  A    between atoms: N_26  and  C_27 
ROOT
HETATM    1  C   UNL     1       9.503  31.861  58.787  1.00  0.00     0.070 C 
HETATM    2  C   UNL     1       8.530  30.803  58.326  1.00  0.00     0.037 C 
HETATM    3  N   UNL     1       9.059  29.826  57.478  1.00  0.00    -0.192 N 
HETATM    4  C   UNL     1       8.413  28.668  57.232  1.00  0.00     0.726 A 
HETATM    5  N   UNL     1       7.097  28.560  57.568  1.00  0.00    -0.083 N 
HETATM    6  N   UNL     1       6.630  27.312  57.375  1.00  0.00    -0.135 NA
HETATM    7  C   UNL     1       7.730  26.696  56.893  1.00  0.00     0.200 A 
HETATM    8  N   UNL     1       8.830  27.524  56.760  1.00  0.00    -0.041 NA
HETATM    9  C   UNL     1       6.312  29.652  58.143  1.00  0.00     0.202 C 
HETATM   10  C   UNL     1       7.222  30.748  58.693  1.00  0.00     0.062 C 
HETATM   11  H   UNL     1      10.070  29.829  57.360  1.00  0.00     0.184 HD
ENDROOT
BRANCH  10  12
HETATM   12  C   UNL     1       6.701  31.592  59.814  1.00  0.00     0.256 C 
HETATM   13  N   UNL     1       7.068  31.171  61.074  1.00  0.00    -0.323 N 
HETATM   14  H   UNL     1       7.552  30.289  61.167  1.00  0.00     0.169 HD
HETATM   15  O   UNL     1       6.059  32.603  59.550  1.00  0.00    -0.267 OA
BRANCH  13  16
HETATM   16  C   UNL     1       6.858  31.851  62.295  1.00  0.00     0.035 A 
HETATM   17  C   UNL     1       5.602  32.083  62.859  1.00  0.00     0.029 A 
HETATM   18  C   UNL     1       5.482  32.786  64.063  1.00  0.00     0.002 A 
HETATM   19  C   UNL     1       6.616  33.271  64.708  1.00  0.00     0.000 A 
HETATM   20  C   UNL     1       7.874  33.045  64.156  1.00  0.00     0.002 A 
HETATM   21  C   UNL     1       7.994  32.333  62.959  1.00  0.00     0.029 A 
ENDBRANCH  13  16
ENDBRANCH  10  12
BRANCH   9  22
HETATM   22  C   UNL     1       5.321  30.152  57.089  1.00  0.00    -0.028 A 
HETATM   23  C   UNL     1       4.001  30.465  57.468  1.00  0.00     0.012 A 
HETATM   24  C   UNL     1       3.076  30.921  56.524  1.00  0.00     0.037 A 
HETATM   25  C   UNL     1       3.463  31.063  55.196  1.00  0.00     0.065 A 
HETATM   26  C   UNL     1       4.755  30.750  54.797  1.00  0.00     0.037 A 
HETATM   27  C   UNL     1       5.678  30.287  55.735  1.00  0.00     0.012 A 
BRANCH  25  28
HETATM   28  O   UNL     1       2.595  31.503  54.244  1.00  0.00    -0.361 OA
HETATM   29  H   UNL     1       2.496  30.815  53.566  1.00  0.00     0.217 HD
ENDBRANCH  25  28
ENDBRANCH   9  22
BRANCH   7  30
HETATM   30  C   UNL     1       7.742  25.288  56.518  1.00  0.00     0.036 A 
HETATM   31  C   UNL     1       7.179  24.808  55.325  1.00  0.00     0.048 A 
HETATM   32 CL   UNL     1       6.451  25.835  54.136  1.00  0.00    -0.083 Cl
HETATM   33  C   UNL     1       7.233  23.441  55.022  1.00  0.00     0.025 A 
HETATM   34  C   UNL     1       7.848  22.543  55.894  1.00  0.00     0.002 A 
HETATM   35  C   UNL     1       8.418  23.008  57.075  1.00  0.00     0.001 A 
HETATM   36  C   UNL     1       8.367  24.370  57.383  1.00  0.00     0.017 A 
ENDBRANCH   7  30
TORSDOF 5
ENDMDL
MODEL 3
REMARK VINA RESULT:     -10.0      3.796      8.165
REMARK  5 active torsions:
REMARK  status: ('A' for Active; 'I' for Inactive)
REMARK    1  A    between atoms: C_7  and  C_8 
REMARK    2  A    between atoms: C_16  and  C_17 
REMARK    3  A    between atoms: C_20  and  O_21 
REMARK    4  A    between atoms: C_24  and  C_25 
REMARK       I    between atoms: C_25  and  N_26 
REMARK    5  A    between atoms: N_26  and  C_27 
ROOT
HETATM    1  C   UNL     1       5.009  28.043  53.063  1.00  0.00     0.070 C 
HETATM    2  C   UNL     1       5.402  28.709  54.359  1.00  0.00     0.037 C 
HETATM    3  N   UNL     1       5.041  30.053  54.481  1.00  0.00    -0.192 N 
HETATM    4  C   UNL     1       5.046  30.690  55.670  1.00  0.00     0.726 A 
HETATM    5  N   UNL     1       5.689  30.116  56.725  1.00  0.00    -0.083 N 
HETATM    6  N   UNL     1       5.500  30.808  57.864  1.00  0.00    -0.135 NA
HETATM    7  C   UNL     1       4.729  31.824  57.425  1.00  0.00     0.200 A 
HETATM    8  N   UNL     1       4.470  31.792  56.067  1.00  0.00    -0.041 NA
HETATM    9  C   UNL     1       6.429  28.858  56.639  1.00  0.00     0.202 C 
HETATM   10  C   UNL     1       6.048  28.084  55.379  1.00  0.00     0.062 C 
HETATM   11  H   UNL     1       4.430  30.425  53.756  1.00  0.00     0.184 HD
ENDROOT
BRANCH  10  12
HETATM   12  C   UNL     1       6.185  26.594  55.406  1.00  0.00     0.256 C 
HETATM   13  N   UNL     1       7.226  26.095  54.652  1.00  0.00    -0.323 N 
HETATM   14  H   UNL     1       7.741  26.732  54.059  1.00  0.00     0.169 HD
HETATM   15  O   UNL     1       5.434  25.938  56.121  1.00  0.00    -0.267 OA
BRANCH  13  16
HETATM   16  C   UNL     1       7.688  24.760  54.614  1.00  0.00     0.035 A 
HETATM   17  C   UNL     1       8.292  24.106  55.689  1.00  0.00     0.029 A 
HETATM   18  C   UNL     1       8.741  22.788  55.558  1.00  0.00     0.002 A 
HETATM   19  C   UNL     1       8.599  22.115  54.349  1.00  0.00     0.000 A 
HETATM   20  C   UNL     1       7.997  22.757  53.268  1.00  0.00     0.002 A 
HETATM   21  C   UNL     1       7.538  24.070  53.403  1.00  0.00     0.029 A 
ENDBRANCH  13  16
ENDBRANCH  10  12
BRANCH   9  22
HETATM   22  C   UNL     1       7.927  29.161  56.741  1.00  0.00    -0.028 A 
HETATM   23  C   UNL     1       8.496  29.441  57.998  1.00  0.00     0.012 A 
HETATM   24  C   UNL     1       9.860  29.723  58.117  1.00  0.00     0.037 A 
HETATM   25  C   UNL     1      10.661  29.731  56.981  1.00  0.00     0.065 A 
HETATM   26  C   UNL     1      10.120  29.469  55.730  1.00  0.00     0.037 A 
HETATM   27  C   UNL     1       8.758  29.196  55.607  1.00  0.00     0.012 A 
BRANCH  25  28
HETATM   28  O   UNL     1      11.994  30.002  57.051  1.00  0.00    -0.361 OA
HETATM   29  H   UNL     1      12.127  30.790  57.601  1.00  0.00     0.217 HD
ENDBRANCH  25  28
ENDBRANCH   9  22
BRANCH   7  30
HETATM   30  C   UNL     1       4.242  32.878  58.305  1.00  0.00     0.036 A 
HETATM   31  C   UNL     1       3.472  32.624  59.451  1.00  0.00     0.048 A 
HETATM   32 CL   UNL     1       3.056  31.031  59.984  1.00  0.00    -0.083 Cl
HETATM   33  C   UNL     1       3.042  33.686  60.260  1.00  0.00     0.025 A 
HETATM   34  C   UNL     1       3.376  35.002  59.941  1.00  0.00     0.002 A 
HETATM   35  C   UNL     1       4.145  35.266  58.812  1.00  0.00     0.001 A 
HETATM   36  C   UNL     1       4.576  34.212  58.003  1.00  0.00     0.017 A 
ENDBRANCH   7  30
TORSDOF 5
ENDMDL
MODEL 4
REMARK VINA RESULT:      -9.9      4.499      9.957
REMARK  5 active torsions:
REMARK  status: ('A' for Active; 'I' for Inactive)
REMARK    1  A    between atoms: C_7  and  C_8 
REMARK    2  A    between atoms: C_16  and  C_17 
REMARK    3  A    between atoms: C_20  and  O_21 
REMARK    4  A    between atoms: C_24  and  C_25 
REMARK       I    between atoms: C_25  and  N_26 
REMARK    5  A    between atoms: N_26  and  C_27 
ROOT
HETATM    1  C   UNL     1       4.441  32.160  55.503  1.00  0.00     0.070 C 
HETATM    2  C   UNL     1       5.263  31.811  56.720  1.00  0.00     0.037 C 
HETATM    3  N   UNL     1       5.423  32.837  57.654  1.00  0.00    -0.192 N 
HETATM    4  C   UNL     1       5.859  32.602  58.908  1.00  0.00     0.726 A 
HETATM    5  N   UNL     1       6.436  31.400  59.192  1.00  0.00    -0.083 N 
HETATM    6  N   UNL     1       6.705  31.270  60.505  1.00  0.00    -0.135 NA
HETATM    7  C   UNL     1       6.274  32.459  60.976  1.00  0.00     0.200 A 
HETATM    8  N   UNL     1       5.784  33.311  60.002  1.00  0.00    -0.041 NA
HETATM    9  C   UNL     1       6.663  30.351  58.199  1.00  0.00     0.202 C 
HETATM   10  C   UNL     1       5.819  30.592  56.949  1.00  0.00     0.062 C 
HETATM   11  H   UNL     1       4.863  33.675  57.506  1.00  0.00     0.184 HD
ENDROOT
BRANCH  10  12
HETATM   12  C   UNL     1       5.430  29.401  56.129  1.00  0.00     0.256 C 
HETATM   13  N   UNL     1       6.133  29.253  54.953  1.00  0.00    -0.323 N 
HETATM   14  H   UNL     1       6.763  29.991  54.671  1.00  0.00     0.169 HD
HETATM   15  O   UNL     1       4.588  28.625  56.568  1.00  0.00    -0.267 OA
BRANCH  13  16
HETATM   16  C   UNL     1       6.091  28.153  54.067  1.00  0.00     0.035 A 
HETATM   17  C   UNL     1       5.022  27.871  53.214  1.00  0.00     0.029 A 
HETATM   18  C   UNL     1       5.054  26.745  52.384  1.00  0.00     0.002 A 
HETATM   19  C   UNL     1       6.149  25.887  52.406  1.00  0.00     0.000 A 
HETATM   20  C   UNL     1       7.222  26.159  53.253  1.00  0.00     0.002 A 
HETATM   21  C   UNL     1       7.195  27.289  54.073  1.00  0.00     0.029 A 
ENDBRANCH  13  16
ENDBRANCH  10  12
BRANCH   9  22
HETATM   22  C   UNL     1       8.164  30.259  57.915  1.00  0.00    -0.028 A 
HETATM   23  C   UNL     1       8.672  29.156  57.202  1.00  0.00     0.012 A 
HETATM   24  C   UNL     1      10.039  29.047  56.932  1.00  0.00     0.037 A 
HETATM   25  C   UNL     1      10.907  30.038  57.377  1.00  0.00     0.065 A 
HETATM   26  C   UNL     1      10.432  31.129  58.092  1.00  0.00     0.037 A 
HETATM   27  C   UNL     1       9.069  31.236  58.370  1.00  0.00     0.012 A 
BRANCH  25  28
HETATM   28  O   UNL     1      12.246  29.972  57.138  1.00  0.00    -0.361 OA
HETATM   29  H   UNL     1      12.686  29.584  57.911  1.00  0.00     0.217 HD
ENDBRANCH  25  28
ENDBRANCH   9  22
BRANCH   7  30
HETATM   30  C   UNL     1       6.348  32.821  62.386  1.00  0.00     0.036 A 
HETATM   31  C   UNL     1       5.219  33.143  63.155  1.00  0.00     0.048 A 
HETATM   32 CL   UNL     1       3.603  33.098  62.536  1.00  0.00    -0.083 Cl
HETATM   33  C   UNL     1       5.361  33.473  64.510  1.00  0.00     0.025 A 
HETATM   34  C   UNL     1       6.620  33.482  65.111  1.00  0.00     0.002 A 
HETATM   35  C   UNL     1       7.746  33.156  64.361  1.00  0.00     0.001 A 
HETATM   36  C   UNL     1       7.610  32.826  63.011  1.00  0.00     0.017 A 
ENDBRANCH   7  30
TORSDOF 5
ENDMDL
MODEL 5
REMARK VINA RESULT:      -9.4      3.510      7.239
REMARK  5 active torsions:
REMARK  status: ('A' for Active; 'I' for Inactive)
REMARK    1  A    between atoms: C_7  and  C_8 
REMARK    2  A    between atoms: C_16  and  C_17 
REMARK    3  A    between atoms: C_20  and  O_21 
REMARK    4  A    between atoms: C_24  and  C_25 
REMARK       I    between atoms: C_25  and  N_26 
REMARK    5  A    between atoms: N_26  and  C_27 
ROOT
HETATM    1  C   UNL     1       2.480  28.392  52.143  1.00  0.00     0.070 C 
HETATM    2  C   UNL     1       3.772  27.993  52.815  1.00  0.00     0.037 C 
HETATM    3  N   UNL     1       3.831  26.674  53.272  1.00  0.00    -0.192 N 
HETATM    4  C   UNL     1       4.997  26.085  53.609  1.00  0.00     0.726 A 
HETATM    5  N   UNL     1       6.100  26.863  53.795  1.00  0.00    -0.083 N 
HETATM    6  N   UNL     1       7.206  26.124  54.005  1.00  0.00    -0.135 NA
HETATM    7  C   UNL     1       6.697  24.876  53.950  1.00  0.00     0.200 A 
HETATM    8  N   UNL     1       5.329  24.830  53.746  1.00  0.00    -0.041 NA
HETATM    9  C   UNL     1       6.092  28.322  53.700  1.00  0.00     0.202 C 
HETATM   10  C   UNL     1       4.842  28.816  52.975  1.00  0.00     0.062 C 
HETATM   11  H   UNL     1       3.066  26.063  52.991  1.00  0.00     0.184 HD
ENDROOT
BRANCH  10  12
HETATM   12  C   UNL     1       4.924  30.122  52.249  1.00  0.00     0.256 C 
HETATM   13  N   UNL     1       5.511  30.056  51.004  1.00  0.00    -0.323 N 
HETATM   14  H   UNL     1       5.936  29.185  50.716  1.00  0.00     0.169 HD
HETATM   15  O   UNL     1       4.426  31.120  52.759  1.00  0.00    -0.267 OA
BRANCH  13  16
HETATM   16  C   UNL     1       5.582  31.086  50.039  1.00  0.00     0.035 A 
HETATM   17  C   UNL     1       6.047  32.376  50.300  1.00  0.00     0.029 A 
HETATM   18  C   UNL     1       6.062  33.344  49.289  1.00  0.00     0.002 A 
HETATM   19  C   UNL     1       5.605  33.033  48.012  1.00  0.00     0.000 A 
HETATM   20  C   UNL     1       5.139  31.748  47.740  1.00  0.00     0.002 A 
HETATM   21  C   UNL     1       5.134  30.779  48.747  1.00  0.00     0.029 A 
ENDBRANCH  13  16
ENDBRANCH  10  12
BRANCH   9  22
HETATM   22  C   UNL     1       6.256  28.908  55.105  1.00  0.00    -0.028 A 
HETATM   23  C   UNL     1       5.113  29.245  55.857  1.00  0.00     0.012 A 
HETATM   24  C   UNL     1       5.236  29.783  57.141  1.00  0.00     0.037 A 
HETATM   25  C   UNL     1       6.501  29.991  57.680  1.00  0.00     0.065 A 
HETATM   26  C   UNL     1       7.642  29.677  56.954  1.00  0.00     0.037 A 
HETATM   27  C   UNL     1       7.522  29.148  55.669  1.00  0.00     0.012 A 
BRANCH  25  28
HETATM   28  O   UNL     1       6.667  30.514  58.926  1.00  0.00    -0.361 OA
HETATM   29  H   UNL     1       7.409  31.139  58.910  1.00  0.00     0.217 HD
ENDBRANCH  25  28
ENDBRANCH   9  22
BRANCH   7  30
HETATM   30  C   UNL     1       7.517  23.684  54.122  1.00  0.00     0.036 A 
HETATM   31  C   UNL     1       8.175  23.374  55.323  1.00  0.00     0.048 A 
HETATM   32 CL   UNL     1       8.050  24.341  56.754  1.00  0.00    -0.083 Cl
HETATM   33  C   UNL     1       8.942  22.205  55.424  1.00  0.00     0.025 A 
HETATM   34  C   UNL     1       9.056  21.335  54.340  1.00  0.00     0.002 A 
HETATM   35  C   UNL     1       8.401  21.626  53.147  1.00  0.00     0.001 A 
HETATM   36  C   UNL     1       7.636  22.790  53.041  1.00  0.00     0.017 A 
ENDBRANCH   7  30
TORSDOF 5
ENDMDL
MODEL 6
REMARK VINA RESULT:      -9.3      1.756      2.516
REMARK  5 active torsions:
REMARK  status: ('A' for Active; 'I' for Inactive)
REMARK    1  A    between atoms: C_7  and  C_8 
REMARK    2  A    between atoms: C_16  and  C_17 
REMARK    3  A    between atoms: C_20  and  O_21 
REMARK    4  A    between atoms: C_24  and  C_25 
REMARK       I    between atoms: C_25  and  N_26 
REMARK    5  A    between atoms: N_26  and  C_27 
ROOT
HETATM    1  C   UNL     1       4.144  29.805  57.542  1.00  0.00     0.070 C 
HETATM    2  C   UNL     1       4.806  29.179  56.338  1.00  0.00     0.037 C 
HETATM    3  N   UNL     1       4.006  29.073  55.198  1.00  0.00    -0.192 N 
HETATM    4  C   UNL     1       4.528  28.826  53.979  1.00  0.00     0.726 A 
HETATM    5  N   UNL     1       5.812  28.379  53.888  1.00  0.00    -0.083 N 
HETATM    6  N   UNL     1       6.226  28.298  52.609  1.00  0.00    -0.135 NA
HETATM    7  C   UNL     1       5.118  28.702  51.953  1.00  0.00     0.200 A 
HETATM    8  N   UNL     1       4.047  28.995  52.777  1.00  0.00    -0.041 NA
HETATM    9  C   UNL     1       6.659  28.098  55.046  1.00  0.00     0.202 C 
HETATM   10  C   UNL     1       6.094  28.748  56.307  1.00  0.00     0.062 C 
HETATM   11  H   UNL     1       3.105  29.547  55.231  1.00  0.00     0.184 HD
ENDROOT
BRANCH  10  12
HETATM   12  C   UNL     1       7.054  29.109  57.397  1.00  0.00     0.256 C 
HETATM   13  N   UNL     1       7.246  30.462  57.575  1.00  0.00    -0.323 N 
HETATM   14  H   UNL     1       6.831  31.100  56.910  1.00  0.00     0.169 HD
HETATM   15  O   UNL     1       7.542  28.215  58.082  1.00  0.00    -0.267 OA
BRANCH  13  16
HETATM   16  C   UNL     1       7.963  31.091  58.617  1.00  0.00     0.035 A 
HETATM   17  C   UNL     1       9.354  31.204  58.657  1.00  0.00     0.029 A 
HETATM   18  C   UNL     1       9.986  31.825  59.740  1.00  0.00     0.002 A 
HETATM   19  C   UNL     1       9.234  32.330  60.796  1.00  0.00     0.000 A 
HETATM   20  C   UNL     1       7.846  32.224  60.768  1.00  0.00     0.002 A 
HETATM   21  C   UNL     1       7.214  31.614  59.681  1.00  0.00     0.029 A 
ENDBRANCH  13  16
ENDBRANCH  10  12
BRANCH   9  22
HETATM   22  C   UNL     1       6.839  26.582  55.167  1.00  0.00    -0.028 A 
HETATM   23  C   UNL     1       6.143  25.876  56.167  1.00  0.00     0.012 A 
HETATM   24  C   UNL     1       6.292  24.493  56.300  1.00  0.00     0.037 A 
HETATM   25  C   UNL     1       7.140  23.808  55.437  1.00  0.00     0.065 A 
HETATM   26  C   UNL     1       7.846  24.484  54.451  1.00  0.00     0.037 A 
HETATM   27  C   UNL     1       7.706  25.865  54.321  1.00  0.00     0.012 A 
BRANCH  25  28
HETATM   28  O   UNL     1       7.316  22.460  55.531  1.00  0.00    -0.361 OA
HETATM   29  H   UNL     1       7.832  22.155  54.767  1.00  0.00     0.217 HD
ENDBRANCH  25  28
ENDBRANCH   9  22
BRANCH   7  30
HETATM   30  C   UNL     1       5.054  28.790  50.500  1.00  0.00     0.036 A 
HETATM   31  C   UNL     1       4.964  27.664  49.667  1.00  0.00     0.048 A 
HETATM   32 CL   UNL     1       4.867  26.042  50.267  1.00  0.00    -0.083 Cl
HETATM   33  C   UNL     1       4.896  27.820  48.276  1.00  0.00     0.025 A 
HETATM   34  C   UNL     1       4.912  29.092  47.702  1.00  0.00     0.002 A 
HETATM   35  C   UNL     1       4.992  30.216  48.517  1.00  0.00     0.001 A 
HETATM   36  C   UNL     1       5.060  30.066  49.905  1.00  0.00     0.017 A 
ENDBRANCH   7  30
TORSDOF 5
ENDMDL
MODEL 7
REMARK VINA RESULT:      -9.2      3.970      7.000
REMARK  5 active torsions:
REMARK  status: ('A' for Active; 'I' for Inactive)
REMARK    1  A    between atoms: C_7  and  C_8 
REMARK    2  A    between atoms: C_16  and  C_17 
REMARK    3  A    between atoms: C_20  and  O_21 
REMARK    4  A    between atoms: C_24  and  C_25 
REMARK       I    between atoms: C_25  and  N_26 
REMARK    5  A    between atoms: N_26  and  C_27 
ROOT
HETATM    1  C   UNL     1       3.163  29.025  56.666  1.00  0.00     0.070 C 
HETATM    2  C   UNL     1       4.476  28.451  56.193  1.00  0.00     0.037 C 
HETATM    3  N   UNL     1       4.728  27.130  56.572  1.00  0.00    -0.192 N 
HETATM    4  C   UNL     1       5.691  26.389  55.986  1.00  0.00     0.726 A 
HETATM    5  N   UNL     1       6.631  27.012  55.222  1.00  0.00    -0.083 N 
HETATM    6  N   UNL     1       7.443  26.130  54.609  1.00  0.00    -0.135 NA
HETATM    7  C   UNL     1       6.947  24.961  55.063  1.00  0.00     0.200 A 
HETATM    8  N   UNL     1       5.890  25.099  55.945  1.00  0.00    -0.041 NA
HETATM    9  C   UNL     1       6.696  28.460  55.032  1.00  0.00     0.202 C 
HETATM   10  C   UNL     1       5.380  29.123  55.432  1.00  0.00     0.062 C 
HETATM   11  H   UNL     1       3.956  26.630  57.009  1.00  0.00     0.184 HD
ENDROOT
BRANCH  10  12
HETATM   12  C   UNL     1       5.019  30.415  54.769  1.00  0.00     0.256 C 
HETATM   13  N   UNL     1       4.520  30.291  53.490  1.00  0.00    -0.323 N 
HETATM   14  H   UNL     1       4.535  29.379  53.053  1.00  0.00     0.169 HD
HETATM   15  O   UNL     1       5.123  31.460  55.403  1.00  0.00    -0.267 OA
BRANCH  13  16
HETATM   16  C   UNL     1       3.957  31.311  52.691  1.00  0.00     0.035 A 
HETATM   17  C   UNL     1       2.831  32.056  53.047  1.00  0.00     0.029 A 
HETATM   18  C   UNL     1       2.325  33.035  52.184  1.00  0.00     0.002 A 
HETATM   19  C   UNL     1       2.934  33.271  50.955  1.00  0.00     0.000 A 
HETATM   20  C   UNL     1       4.058  32.534  50.590  1.00  0.00     0.002 A 
HETATM   21  C   UNL     1       4.570  31.564  51.456  1.00  0.00     0.029 A 
ENDBRANCH  13  16
ENDBRANCH  10  12
BRANCH   9  22
HETATM   22  C   UNL     1       7.909  29.002  55.792  1.00  0.00    -0.028 A 
HETATM   23  C   UNL     1       7.782  29.348  57.151  1.00  0.00     0.012 A 
HETATM   24  C   UNL     1       8.874  29.846  57.867  1.00  0.00     0.037 A 
HETATM   25  C   UNL     1      10.099  30.006  57.228  1.00  0.00     0.065 A 
HETATM   26  C   UNL     1      10.246  29.683  55.886  1.00  0.00     0.037 A 
HETATM   27  C   UNL     1       9.155  29.193  55.167  1.00  0.00     0.012 A 
BRANCH  25  28
HETATM   28  O   UNL     1      11.188  30.490  57.886  1.00  0.00    -0.361 OA
HETATM   29  H   UNL     1      11.439  31.343  57.497  1.00  0.00     0.217 HD
ENDBRANCH  25  28
ENDBRANCH   9  22
BRANCH   7  30
HETATM   30  C   UNL     1       7.500  23.669  54.679  1.00  0.00     0.036 A 
HETATM   31  C   UNL     1       8.204  22.842  55.568  1.00  0.00     0.048 A 
HETATM   32 CL   UNL     1       8.455  23.233  57.236  1.00  0.00    -0.083 Cl
HETATM   33  C   UNL     1       8.703  21.606  55.134  1.00  0.00     0.025 A 
HETATM   34  C   UNL     1       8.502  21.180  53.821  1.00  0.00     0.002 A 
HETATM   35  C   UNL     1       7.798  21.986  52.933  1.00  0.00     0.001 A 
HETATM   36  C   UNL     1       7.299  23.219  53.360  1.00  0.00     0.017 A 
ENDBRANCH   7  30
TORSDOF 5
ENDMDL
MODEL 8
REMARK VINA RESULT:      -9.1      4.095      6.970
REMARK  5 active torsions:
REMARK  status: ('A' for Active; 'I' for Inactive)
REMARK    1  A    between atoms: C_7  and  C_8 
REMARK    2  A    between atoms: C_16  and  C_17 
REMARK    3  A    between atoms: C_20  and  O_21 
REMARK    4  A    between atoms: C_24  and  C_25 
REMARK       I    between atoms: C_25  and  N_26 
REMARK    5  A    between atoms: N_26  and  C_27 
ROOT
HETATM    1  C   UNL     1       4.052  27.854  54.042  1.00  0.00     0.070 C 
HETATM    2  C   UNL     1       4.382  28.331  52.649  1.00  0.00     0.037 C 
HETATM    3  N   UNL     1       4.186  29.695  52.417  1.00  0.00    -0.192 N 
HETATM    4  C   UNL     1       4.712  30.321  51.344  1.00  0.00     0.726 A 
HETATM    5  N   UNL     1       5.191  29.572  50.311  1.00  0.00    -0.083 N 
HETATM    6  N   UNL     1       5.792  30.332  49.376  1.00  0.00    -0.135 NA
HETATM    7  C   UNL     1       5.627  31.564  49.900  1.00  0.00     0.200 A 
HETATM    8  N   UNL     1       4.929  31.584  51.094  1.00  0.00    -0.041 NA
HETATM    9  C   UNL     1       5.127  28.112  50.267  1.00  0.00     0.202 C 
HETATM   10  C   UNL     1       4.856  27.534  51.655  1.00  0.00     0.062 C 
HETATM   11  H   UNL     1       3.977  30.268  53.233  1.00  0.00     0.184 HD
ENDROOT
BRANCH  10  12
HETATM   12  C   UNL     1       5.350  26.152  51.945  1.00  0.00     0.256 C 
HETATM   13  N   UNL     1       6.449  26.093  52.774  1.00  0.00    -0.323 N 
HETATM   14  H   UNL     1       6.906  26.956  53.033  1.00  0.00     0.169 HD
HETATM   15  O   UNL     1       4.731  25.192  51.499  1.00  0.00    -0.267 OA
BRANCH  13  16
HETATM   16  C   UNL     1       7.029  24.935  53.340  1.00  0.00     0.035 A 
HETATM   17  C   UNL     1       7.846  24.043  52.641  1.00  0.00     0.029 A 
HETATM   18  C   UNL     1       8.361  22.907  53.274  1.00  0.00     0.002 A 
HETATM   19  C   UNL     1       8.058  22.647  54.607  1.00  0.00     0.000 A 
HETATM   20  C   UNL     1       7.245  23.529  55.315  1.00  0.00     0.002 A 
HETATM   21  C   UNL     1       6.739  24.670  54.685  1.00  0.00     0.029 A 
ENDBRANCH  13  16
ENDBRANCH  10  12
BRANCH   9  22
HETATM   22  C   UNL     1       4.092  27.696  49.219  1.00  0.00    -0.028 A 
HETATM   23  C   UNL     1       4.433  26.740  48.243  1.00  0.00     0.012 A 
HETATM   24  C   UNL     1       3.507  26.346  47.274  1.00  0.00     0.037 A 
HETATM   25  C   UNL     1       2.235  26.908  47.271  1.00  0.00     0.065 A 
HETATM   26  C   UNL     1       1.879  27.862  48.215  1.00  0.00     0.037 A 
HETATM   27  C   UNL     1       2.804  28.263  49.178  1.00  0.00     0.012 A 
BRANCH  25  28
HETATM   28  O   UNL     1       1.302  26.555  46.344  1.00  0.00    -0.361 OA
HETATM   29  H   UNL     1       0.834  27.352  46.048  1.00  0.00     0.217 HD
ENDBRANCH  25  28
ENDBRANCH   9  22
BRANCH   7  30
HETATM   30  C   UNL     1       6.118  32.770  49.245  1.00  0.00     0.036 A 
HETATM   31  C   UNL     1       6.341  33.976  49.927  1.00  0.00     0.048 A 
HETATM   32 CL   UNL     1       6.111  34.161  51.633  1.00  0.00    -0.083 Cl
HETATM   33  C   UNL     1       6.823  35.097  49.236  1.00  0.00     0.025 A 
HETATM   34  C   UNL     1       7.091  35.028  47.869  1.00  0.00     0.002 A 
HETATM   35  C   UNL     1       6.882  33.835  47.183  1.00  0.00     0.001 A 
HETATM   36  C   UNL     1       6.402  32.716  47.867  1.00  0.00     0.017 A 
ENDBRANCH   7  30
TORSDOF 5
ENDMDL
MODEL 9
REMARK VINA RESULT:      -9.0      3.362      7.110
REMARK  5 active torsions:
REMARK  status: ('A' for Active; 'I' for Inactive)
REMARK    1  A    between atoms: C_7  and  C_8 
REMARK    2  A    between atoms: C_16  and  C_17 
REMARK    3  A    between atoms: C_20  and  O_21 
REMARK    4  A    between atoms: C_24  and  C_25 
REMARK       I    between atoms: C_25  and  N_26 
REMARK    5  A    between atoms: N_26  and  C_27 
ROOT
HETATM    1  C   UNL     1       5.573  26.040  51.993  1.00  0.00     0.070 C 
HETATM    2  C   UNL     1       5.626  27.059  53.106  1.00  0.00     0.037 C 
HETATM    3  N   UNL     1       5.193  28.344  52.768  1.00  0.00    -0.192 N 
HETATM    4  C   UNL     1       4.894  29.267  53.705  1.00  0.00     0.726 A 
HETATM    5  N   UNL     1       5.297  29.059  54.990  1.00  0.00    -0.083 N 
HETATM    6  N   UNL     1       4.819  30.002  55.824  1.00  0.00    -0.135 NA
HETATM    7  C   UNL     1       4.132  30.783  54.966  1.00  0.00     0.200 A 
HETATM    8  N   UNL     1       4.198  30.370  53.647  1.00  0.00    -0.041 NA
HETATM    9  C   UNL     1       6.087  27.906  55.418  1.00  0.00     0.202 C 
HETATM   10  C   UNL     1       6.041  26.793  54.373  1.00  0.00     0.062 C 
HETATM   11  H   UNL     1       4.753  28.447  51.856  1.00  0.00     0.184 HD
ENDROOT
BRANCH  10  12
HETATM   12  C   UNL     1       6.229  25.385  54.842  1.00  0.00     0.256 C 
HETATM   13  N   UNL     1       7.189  24.670  54.158  1.00  0.00    -0.323 N 
HETATM   14  H   UNL     1       7.610  25.088  53.340  1.00  0.00     0.169 HD
HETATM   15  O   UNL     1       5.589  24.989  55.811  1.00  0.00    -0.267 OA
BRANCH  13  16
HETATM   16  C   UNL     1       7.687  23.387  54.479  1.00  0.00     0.035 A 
HETATM   17  C   UNL     1       8.204  23.034  55.727  1.00  0.00     0.029 A 
HETATM   18  C   UNL     1       8.697  21.744  55.952  1.00  0.00     0.002 A 
HETATM   19  C   UNL     1       8.685  20.799  54.931  1.00  0.00     0.000 A 
HETATM   20  C   UNL     1       8.171  21.140  53.682  1.00  0.00     0.002 A 
HETATM   21  C   UNL     1       7.668  22.424  53.460  1.00  0.00     0.029 A 
ENDBRANCH  13  16
ENDBRANCH  10  12
BRANCH   9  22
HETATM   22  C   UNL     1       7.506  28.377  55.748  1.00  0.00    -0.028 A 
HETATM   23  C   UNL     1       7.913  28.472  57.093  1.00  0.00     0.012 A 
HETATM   24  C   UNL     1       9.202  28.902  57.420  1.00  0.00     0.037 A 
HETATM   25  C   UNL     1      10.090  29.244  56.406  1.00  0.00     0.065 A 
HETATM   26  C   UNL     1       9.708  29.169  55.073  1.00  0.00     0.037 A 
HETATM   27  C   UNL     1       8.419  28.748  54.744  1.00  0.00     0.012 A 
BRANCH  25  28
HETATM   28  O   UNL     1      11.355  29.669  56.680  1.00  0.00    -0.361 OA
HETATM   29  H   UNL     1      11.321  30.310  57.408  1.00  0.00     0.217 HD
ENDBRANCH  25  28
ENDBRANCH   9  22
BRANCH   7  30
HETATM   30  C   UNL     1       3.410  31.975  55.392  1.00  0.00     0.036 A 
HETATM   31  C   UNL     1       3.864  32.819  56.417  1.00  0.00     0.048 A 
HETATM   32 CL   UNL     1       5.357  32.576  57.260  1.00  0.00    -0.083 Cl
HETATM   33  C   UNL     1       3.124  33.956  56.772  1.00  0.00     0.025 A 
HETATM   34  C   UNL     1       1.936  34.265  56.111  1.00  0.00     0.002 A 
HETATM   35  C   UNL     1       1.480  33.441  55.087  1.00  0.00     0.001 A 
HETATM   36  C   UNL     1       2.213  32.307  54.730  1.00  0.00     0.017 A 
ENDBRANCH   7  30
TORSDOF 5
ENDMDL
MODEL 10
REMARK VINA RESULT:      -8.8      3.510      7.070
REMARK  5 active torsions:
REMARK  status: ('A' for Active; 'I' for Inactive)
REMARK    1  A    between atoms: C_7  and  C_8 
REMARK    2  A    between atoms: C_16  and  C_17 
REMARK    3  A    between atoms: C_20  and  O_21 
REMARK    4  A    between atoms: C_24  and  C_25 
REMARK       I    between atoms: C_25  and  N_26 
REMARK    5  A    between atoms: N_26  and  C_27 
ROOT
HETATM    1  C   UNL     1       4.703  24.863  57.432  1.00  0.00     0.070 C 
HETATM    2  C   UNL     1       5.024  26.052  56.560  1.00  0.00     0.037 C 
HETATM    3  N   UNL     1       4.214  27.174  56.748  1.00  0.00    -0.192 N 
HETATM    4  C   UNL     1       4.556  28.391  56.278  1.00  0.00     0.726 A 
HETATM    5  N   UNL     1       5.553  28.486  55.353  1.00  0.00    -0.083 N 
HETATM    6  N   UNL     1       5.861  29.767  55.077  1.00  0.00    -0.135 NA
HETATM    7  C   UNL     1       4.986  30.420  55.870  1.00  0.00     0.200 A 
HETATM    8  N   UNL     1       4.145  29.590  56.590  1.00  0.00    -0.041 NA
HETATM    9  C   UNL     1       6.253  27.332  54.791  1.00  0.00     0.202 C 
HETATM   10  C   UNL     1       6.033  26.088  55.649  1.00  0.00     0.062 C 
HETATM   11  H   UNL     1       3.578  27.144  57.543  1.00  0.00     0.184 HD
ENDROOT
BRANCH  10  12
HETATM   12  C   UNL     1       7.090  25.029  55.628  1.00  0.00     0.256 C 
HETATM   13  N   UNL     1       6.664  23.794  55.190  1.00  0.00    -0.323 N 
HETATM   14  H   UNL     1       5.676  23.655  55.024  1.00  0.00     0.169 HD
HETATM   15  O   UNL     1       8.241  25.329  55.929  1.00  0.00    -0.267 OA
BRANCH  13  16
HETATM   16  C   UNL     1       7.465  22.662  54.919  1.00  0.00     0.035 A 
HETATM   17  C   UNL     1       8.088  21.887  55.899  1.00  0.00     0.029 A 
HETATM   18  C   UNL     1       8.884  20.794  55.541  1.00  0.00     0.002 A 
HETATM   19  C   UNL     1       9.071  20.470  54.201  1.00  0.00     0.000 A 
HETATM   20  C   UNL     1       8.454  21.235  53.214  1.00  0.00     0.002 A 
HETATM   21  C   UNL     1       7.650  22.321  53.572  1.00  0.00     0.029 A 
ENDBRANCH  13  16
ENDBRANCH  10  12
BRANCH   9  22
HETATM   22  C   UNL     1       5.818  27.155  53.334  1.00  0.00    -0.028 A 
HETATM   23  C   UNL     1       5.829  28.264  52.465  1.00  0.00     0.012 A 
HETATM   24  C   UNL     1       5.435  28.129  51.131  1.00  0.00     0.037 A 
HETATM   25  C   UNL     1       5.023  26.887  50.659  1.00  0.00     0.065 A 
HETATM   26  C   UNL     1       4.992  25.783  51.500  1.00  0.00     0.037 A 
HETATM   27  C   UNL     1       5.378  25.916  52.834  1.00  0.00     0.012 A 
BRANCH  25  28
HETATM   28  O   UNL     1       4.629  26.711  49.367  1.00  0.00    -0.361 OA
HETATM   29  H   UNL     1       3.716  26.382  49.358  1.00  0.00     0.217 HD
ENDBRANCH  25  28
ENDBRANCH   9  22
BRANCH   7  30
HETATM   30  C   UNL     1       4.917  31.874  55.935  1.00  0.00     0.036 A 
HETATM   31  C   UNL     1       5.120  32.599  57.120  1.00  0.00     0.048 A 
HETATM   32 CL   UNL     1       5.527  31.857  58.631  1.00  0.00    -0.083 Cl
HETATM   33  C   UNL     1       5.048  33.999  57.110  1.00  0.00     0.025 A 
HETATM   34  C   UNL     1       4.779  34.688  55.928  1.00  0.00     0.002 A 
HETATM   35  C   UNL     1       4.585  33.982  54.745  1.00  0.00     0.001 A 
HETATM   36  C   UNL     1       4.656  32.587  54.749  1.00  0.00     0.017 A 
ENDBRANCH   7  30
TORSDOF 5
ENDMDL
