MODEL 1
REMARK VINA RESULT:      -9.7      0.000      0.000
REMARK  4 active torsions:
REMARK  status: ('A' for Active; 'I' for Inactive)
REMARK    1  A    between atoms: C_7  and  C_8 
REMARK    2  A    between atoms: C_11  and  O_12 
REMARK    3  A    between atoms: C_17  and  C_18 
REMARK    4  A    between atoms: C_25  and  C_26 
REMARK       I    between atoms: C_26  and  N_27 
ROOT
HETATM    1  C   UNL     1       3.448  30.841  55.421  1.00  0.00     0.070 C 
HETATM    2  C   UNL     1       4.479  29.788  55.750  1.00  0.00     0.037 A 
HETATM    3  N   UNL     1       4.503  28.684  54.906  1.00  0.00    -0.192 N 
HETATM    4  C   UNL     1       5.337  27.642  55.072  1.00  0.00     0.726 A 
HETATM    5  N   UNL     1       6.226  27.655  56.107  1.00  0.00    -0.083 N 
HETATM    6  N   UNL     1       6.914  26.499  56.183  1.00  0.00    -0.135 NA
HETATM    7  C   UNL     1       6.467  25.853  55.089  1.00  0.00     0.199 A 
HETATM    8  N   UNL     1       5.471  26.528  54.400  1.00  0.00    -0.041 NA
HETATM    9  C   UNL     1       6.344  28.748  57.079  1.00  0.00     0.202 A 
HETATM   10  C   UNL     1       5.331  29.853  56.804  1.00  0.00     0.062 A 
HETATM   11  H   UNL     1       3.850  28.670  54.127  1.00  0.00     0.184 HD
ENDROOT
BRANCH   7  12
HETATM   12  C   UNL     1       6.974  24.557  54.648  1.00  0.00     0.014 A 
HETATM   13  C   UNL     1       7.173  23.513  55.560  1.00  0.00     0.018 A 
HETATM   14  C   UNL     1       7.681  22.282  55.130  1.00  0.00     0.037 A 
HETATM   15  C   UNL     1       7.996  22.071  53.787  1.00  0.00     0.068 A 
HETATM   16  C   UNL     1       7.797  23.104  52.871  1.00  0.00     0.037 A 
HETATM   17  C   UNL     1       7.291  24.338  53.300  1.00  0.00     0.018 A 
BRANCH  15  18
HETATM   18  O   UNL     1       8.487  20.827  53.505  1.00  0.00    -0.356 OA
HETATM   19  C   UNL     1       8.807  19.996  54.614  1.00  0.00     0.210 C 
ENDBRANCH  15  18
ENDBRANCH   7  12
BRANCH   9  20
HETATM   20  C   UNL     1       7.792  29.229  57.143  1.00  0.00    -0.028 A 
HETATM   21  C   UNL     1       8.614  29.253  56.001  1.00  0.00     0.012 A 
HETATM   22  C   UNL     1       9.939  29.684  56.092  1.00  0.00     0.043 A 
HETATM   23  C   UNL     1      10.451  30.080  57.321  1.00  0.00     0.116 A 
HETATM   24  F   UNL     1      11.723  30.489  57.406  1.00  0.00    -0.206 F 
HETATM   25  C   UNL     1       9.664  30.053  58.465  1.00  0.00     0.043 A 
HETATM   26  C   UNL     1       8.338  29.627  58.378  1.00  0.00     0.012 A 
ENDBRANCH   9  20
BRANCH  10  27
HETATM   27  C   UNL     1       5.373  31.049  57.674  1.00  0.00     0.249 C 
HETATM   28  N   UNL     1       4.698  30.950  58.849  1.00  0.00    -0.366 N 
HETATM   29  H   UNL     1       4.108  30.177  59.116  1.00  0.00     0.159 HD
HETATM   30  H   UNL     1       4.705  31.769  59.445  1.00  0.00     0.159 HD
HETATM   31  O   UNL     1       5.974  32.070  57.367  1.00  0.00    -0.268 OA
ENDBRANCH  10  27
TORSDOF 4
ENDMDL
MODEL 2
REMARK VINA RESULT:      -9.4      4.637      6.925
REMARK  4 active torsions:
REMARK  status: ('A' for Active; 'I' for Inactive)
REMARK    1  A    between atoms: C_7  and  C_8 
REMARK    2  A    between atoms: C_11  and  O_12 
REMARK    3  A    between atoms: C_17  and  C_18 
REMARK    4  A    between atoms: C_25  and  C_26 
REMARK       I    between atoms: C_26  and  N_27 
ROOT
HETATM    1  C   UNL     1       8.706  28.625  56.577  1.00  0.00     0.070 C 
HETATM    2  C   UNL     1       7.834  27.816  55.647  1.00  0.00     0.037 A 
HETATM    3  N   UNL     1       7.414  28.471  54.494  1.00  0.00    -0.192 N 
HETATM    4  C   UNL     1       6.611  27.909  53.573  1.00  0.00     0.726 A 
HETATM    5  N   UNL     1       6.187  26.624  53.750  1.00  0.00    -0.083 N 
HETATM    6  N   UNL     1       5.318  26.254  52.790  1.00  0.00    -0.135 NA
HETATM    7  C   UNL     1       5.334  27.335  51.988  1.00  0.00     0.199 A 
HETATM    8  N   UNL     1       6.105  28.383  52.465  1.00  0.00    -0.041 NA
HETATM    9  C   UNL     1       6.549  25.788  54.900  1.00  0.00     0.202 A 
HETATM   10  C   UNL     1       7.435  26.541  55.884  1.00  0.00     0.062 A 
HETATM   11  H   UNL     1       7.733  29.425  54.350  1.00  0.00     0.184 HD
ENDROOT
BRANCH   7  12
HETATM   12  C   UNL     1       4.611  27.417  50.721  1.00  0.00     0.014 A 
HETATM   13  C   UNL     1       3.801  28.520  50.424  1.00  0.00     0.018 A 
HETATM   14  C   UNL     1       3.095  28.578  49.218  1.00  0.00     0.037 A 
HETATM   15  C   UNL     1       3.187  27.540  48.288  1.00  0.00     0.068 A 
HETATM   16  C   UNL     1       3.995  26.440  48.574  1.00  0.00     0.037 A 
HETATM   17  C   UNL     1       4.700  26.380  49.783  1.00  0.00     0.018 A 
BRANCH  15  18
HETATM   18  O   UNL     1       2.443  27.722  47.155  1.00  0.00    -0.356 OA
HETATM   19  C   UNL     1       1.148  27.135  47.135  1.00  0.00     0.210 C 
ENDBRANCH  15  18
ENDBRANCH   7  12
BRANCH   9  20
HETATM   20  C   UNL     1       7.141  24.466  54.412  1.00  0.00    -0.028 A 
HETATM   21  C   UNL     1       7.754  24.352  53.150  1.00  0.00     0.012 A 
HETATM   22  C   UNL     1       8.274  23.128  52.724  1.00  0.00     0.043 A 
HETATM   23  C   UNL     1       8.171  22.014  53.547  1.00  0.00     0.116 A 
HETATM   24  F   UNL     1       8.666  20.840  53.134  1.00  0.00    -0.206 F 
HETATM   25  C   UNL     1       7.557  22.097  54.790  1.00  0.00     0.043 A 
HETATM   26  C   UNL     1       7.041  23.319  55.222  1.00  0.00     0.012 A 
ENDBRANCH   9  20
BRANCH  10  27
HETATM   27  C   UNL     1       7.926  25.800  57.067  1.00  0.00     0.249 C 
HETATM   28  N   UNL     1       7.047  25.677  58.094  1.00  0.00    -0.366 N 
HETATM   29  H   UNL     1       6.144  26.126  58.144  1.00  0.00     0.159 HD
HETATM   30  H   UNL     1       7.377  25.187  58.917  1.00  0.00     0.159 HD
HETATM   31  O   UNL     1       9.051  25.323  57.129  1.00  0.00    -0.268 OA
ENDBRANCH  10  27
TORSDOF 4
ENDMDL
MODEL 3
REMARK VINA RESULT:      -8.8      4.452      6.045
REMARK  4 active torsions:
REMARK  status: ('A' for Active; 'I' for Inactive)
REMARK    1  A    between atoms: C_7  and  C_8 
REMARK    2  A    between atoms: C_11  and  O_12 
REMARK    3  A    between atoms: C_17  and  C_18 
REMARK    4  A    between atoms: C_25  and  C_26 
REMARK       I    between atoms: C_26  and  N_27 
ROOT
HETATM    1  C   UNL     1       3.387  30.522  53.983  1.00  0.00     0.070 C 
HETATM    2  C   UNL     1       4.254  29.443  53.381  1.00  0.00     0.037 A 
HETATM    3  N   UNL     1       4.469  28.326  54.183  1.00  0.00    -0.192 N 
HETATM    4  C   UNL     1       5.238  27.286  53.814  1.00  0.00     0.726 A 
HETATM    5  N   UNL     1       5.836  27.298  52.587  1.00  0.00    -0.083 N 
HETATM    6  N   UNL     1       6.642  26.232  52.421  1.00  0.00    -0.135 NA
HETATM    7  C   UNL     1       6.409  25.544  53.555  1.00  0.00     0.199 A 
HETATM    8  N   UNL     1       5.565  26.189  54.445  1.00  0.00    -0.041 NA
HETATM    9  C   UNL     1       5.701  28.388  51.615  1.00  0.00     0.202 A 
HETATM   10  C   UNL     1       4.832  29.517  52.156  1.00  0.00     0.062 A 
HETATM   11  H   UNL     1       4.019  28.305  55.094  1.00  0.00     0.184 HD
ENDROOT
BRANCH   7  12
HETATM   12  C   UNL     1       6.983  24.231  53.840  1.00  0.00     0.014 A 
HETATM   13  C   UNL     1       7.053  23.746  55.152  1.00  0.00     0.018 A 
HETATM   14  C   UNL     1       7.624  22.497  55.417  1.00  0.00     0.037 A 
HETATM   15  C   UNL     1       8.135  21.713  54.381  1.00  0.00     0.068 A 
HETATM   16  C   UNL     1       8.065  22.187  53.072  1.00  0.00     0.037 A 
HETATM   17  C   UNL     1       7.495  23.439  52.805  1.00  0.00     0.018 A 
BRANCH  15  18
HETATM   18  O   UNL     1       8.669  20.518  54.780  1.00  0.00    -0.356 OA
HETATM   19  C   UNL     1       8.966  20.378  56.163  1.00  0.00     0.210 C 
ENDBRANCH  15  18
ENDBRANCH   7  12
BRANCH   9  20
HETATM   20  C   UNL     1       5.234  27.829  50.273  1.00  0.00    -0.028 A 
HETATM   21  C   UNL     1       5.606  28.425  49.054  1.00  0.00     0.012 A 
HETATM   22  C   UNL     1       5.152  27.902  47.841  1.00  0.00     0.043 A 
HETATM   23  C   UNL     1       4.317  26.791  47.842  1.00  0.00     0.116 A 
HETATM   24  F   UNL     1       3.879  26.293  46.678  1.00  0.00    -0.206 F 
HETATM   25  C   UNL     1       3.924  26.193  49.032  1.00  0.00     0.043 A 
HETATM   26  C   UNL     1       4.378  26.710  50.246  1.00  0.00     0.012 A 
ENDBRANCH   9  20
BRANCH  10  27
HETATM   27  C   UNL     1       4.561  30.661  51.258  1.00  0.00     0.249 C 
HETATM   28  N   UNL     1       5.570  31.561  51.126  1.00  0.00    -0.366 N 
HETATM   29  H   UNL     1       6.427  31.555  51.658  1.00  0.00     0.159 HD
HETATM   30  H   UNL     1       5.390  32.358  50.528  1.00  0.00     0.159 HD
HETATM   31  O   UNL     1       3.501  30.800  50.664  1.00  0.00    -0.268 OA
ENDBRANCH  10  27
TORSDOF 4
ENDMDL
MODEL 4
REMARK VINA RESULT:      -8.8      3.235      7.289
REMARK  4 active torsions:
REMARK  status: ('A' for Active; 'I' for Inactive)
REMARK    1  A    between atoms: C_7  and  C_8 
REMARK    2  A    between atoms: C_11  and  O_12 
REMARK    3  A    between atoms: C_17  and  C_18 
REMARK    4  A    between atoms: C_25  and  C_26 
REMARK       I    between atoms: C_26  and  N_27 
ROOT
HETATM    1  C   UNL     1       2.976  28.588  51.650  1.00  0.00     0.070 C 
HETATM    2  C   UNL     1       4.262  28.377  52.412  1.00  0.00     0.037 A 
HETATM    3  N   UNL     1       4.387  29.100  53.594  1.00  0.00    -0.192 N 
HETATM    4  C   UNL     1       5.477  29.053  54.381  1.00  0.00     0.726 A 
HETATM    5  N   UNL     1       6.522  28.248  54.028  1.00  0.00    -0.083 N 
HETATM    6  N   UNL     1       7.563  28.394  54.870  1.00  0.00    -0.135 NA
HETATM    7  C   UNL     1       7.047  29.235  55.786  1.00  0.00     0.199 A 
HETATM    8  N   UNL     1       5.767  29.678  55.491  1.00  0.00    -0.041 NA
HETATM    9  C   UNL     1       6.546  27.410  52.825  1.00  0.00     0.202 A 
HETATM   10  C   UNL     1       5.273  27.569  52.004  1.00  0.00     0.062 A 
HETATM   11  H   UNL     1       3.609  29.694  53.869  1.00  0.00     0.184 HD
ENDROOT
BRANCH   7  12
HETATM   12  C   UNL     1       7.755  29.655  56.993  1.00  0.00     0.014 A 
HETATM   13  C   UNL     1       7.058  30.155  58.100  1.00  0.00     0.018 A 
HETATM   14  C   UNL     1       7.748  30.574  59.242  1.00  0.00     0.037 A 
HETATM   15  C   UNL     1       9.141  30.501  59.301  1.00  0.00     0.068 A 
HETATM   16  C   UNL     1       9.842  30.000  58.205  1.00  0.00     0.037 A 
HETATM   17  C   UNL     1       9.153  29.582  57.058  1.00  0.00     0.018 A 
BRANCH  15  18
HETATM   18  O   UNL     1       9.687  30.948  60.472  1.00  0.00    -0.356 OA
HETATM   19  C   UNL     1       8.884  31.811  61.267  1.00  0.00     0.210 C 
ENDBRANCH  15  18
ENDBRANCH   7  12
BRANCH   9  20
HETATM   20  C   UNL     1       6.866  25.966  53.207  1.00  0.00    -0.028 A 
HETATM   21  C   UNL     1       6.248  25.338  54.305  1.00  0.00     0.012 A 
HETATM   22  C   UNL     1       6.570  24.021  54.641  1.00  0.00     0.043 A 
HETATM   23  C   UNL     1       7.517  23.333  53.893  1.00  0.00     0.116 A 
HETATM   24  F   UNL     1       7.828  22.072  54.219  1.00  0.00    -0.206 F 
HETATM   25  C   UNL     1       8.152  23.936  52.814  1.00  0.00     0.043 A 
HETATM   26  C   UNL     1       7.830  25.249  52.472  1.00  0.00     0.012 A 
ENDBRANCH   9  20
BRANCH  10  27
HETATM   27  C   UNL     1       5.135  26.737  50.788  1.00  0.00     0.249 C 
HETATM   28  N   UNL     1       5.569  27.303  49.632  1.00  0.00    -0.366 N 
HETATM   29  H   UNL     1       5.878  28.258  49.533  1.00  0.00     0.159 HD
HETATM   30  H   UNL     1       5.463  26.751  48.790  1.00  0.00     0.159 HD
HETATM   31  O   UNL     1       4.662  25.609  50.808  1.00  0.00    -0.268 OA
ENDBRANCH  10  27
TORSDOF 4
ENDMDL
MODEL 5
REMARK VINA RESULT:      -8.5      3.667      4.860
REMARK  4 active torsions:
REMARK  status: ('A' for Active; 'I' for Inactive)
REMARK    1  A    between atoms: C_7  and  C_8 
REMARK    2  A    between atoms: C_11  and  O_12 
REMARK    3  A    between atoms: C_17  and  C_18 
REMARK    4  A    between atoms: C_25  and  C_26 
REMARK       I    between atoms: C_26  and  N_27 
ROOT
HETATM    1  C   UNL     1       3.115  30.349  57.024  1.00  0.00     0.070 C 
HETATM    2  C   UNL     1       3.918  29.568  56.012  1.00  0.00     0.037 A 
HETATM    3  N   UNL     1       4.228  28.260  56.369  1.00  0.00    -0.192 N 
HETATM    4  C   UNL     1       4.959  27.435  55.598  1.00  0.00     0.726 A 
HETATM    5  N   UNL     1       5.419  27.878  54.392  1.00  0.00    -0.083 N 
HETATM    6  N   UNL     1       6.209  26.963  53.798  1.00  0.00    -0.135 NA
HETATM    7  C   UNL     1       6.107  25.929  54.655  1.00  0.00     0.199 A 
HETATM    8  N   UNL     1       5.361  26.206  55.790  1.00  0.00    -0.041 NA
HETATM    9  C   UNL     1       5.170  29.221  53.859  1.00  0.00     0.202 A 
HETATM   10  C   UNL     1       4.357  30.069  54.830  1.00  0.00     0.062 A 
HETATM   11  H   UNL     1       3.881  27.919  57.262  1.00  0.00     0.184 HD
ENDROOT
BRANCH   7  12
HETATM   12  C   UNL     1       6.718  24.622  54.427  1.00  0.00     0.014 A 
HETATM   13  C   UNL     1       7.039  23.780  55.499  1.00  0.00     0.018 A 
HETATM   14  C   UNL     1       7.644  22.540  55.270  1.00  0.00     0.037 A 
HETATM   15  C   UNL     1       7.938  22.119  53.972  1.00  0.00     0.068 A 
HETATM   16  C   UNL     1       7.618  22.949  52.899  1.00  0.00     0.037 A 
HETATM   17  C   UNL     1       7.013  24.193  53.126  1.00  0.00     0.018 A 
BRANCH  15  18
HETATM   18  O   UNL     1       8.532  20.890  53.892  1.00  0.00    -0.356 OA
HETATM   19  C   UNL     1       8.736  20.194  55.115  1.00  0.00     0.210 C 
ENDBRANCH  15  18
ENDBRANCH   7  12
BRANCH   9  20
HETATM   20  C   UNL     1       4.561  29.118  52.461  1.00  0.00    -0.028 A 
HETATM   21  C   UNL     1       3.224  28.726  52.264  1.00  0.00     0.012 A 
HETATM   22  C   UNL     1       2.698  28.626  50.974  1.00  0.00     0.043 A 
HETATM   23  C   UNL     1       3.507  28.903  49.879  1.00  0.00     0.116 A 
HETATM   24  F   UNL     1       3.002  28.802  48.643  1.00  0.00    -0.206 F 
HETATM   25  C   UNL     1       4.834  29.278  50.047  1.00  0.00     0.043 A 
HETATM   26  C   UNL     1       5.362  29.384  51.333  1.00  0.00     0.012 A 
ENDBRANCH   9  20
BRANCH  10  27
HETATM   27  C   UNL     1       3.982  31.433  54.397  1.00  0.00     0.249 C 
HETATM   28  N   UNL     1       4.974  32.360  54.434  1.00  0.00    -0.366 N 
HETATM   29  H   UNL     1       5.895  32.209  54.817  1.00  0.00     0.159 HD
HETATM   30  H   UNL     1       4.725  33.301  54.157  1.00  0.00     0.159 HD
HETATM   31  O   UNL     1       2.852  31.723  54.027  1.00  0.00    -0.268 OA
ENDBRANCH  10  27
TORSDOF 4
ENDMDL
MODEL 6
REMARK VINA RESULT:      -8.5      3.148      4.610
REMARK  4 active torsions:
REMARK  status: ('A' for Active; 'I' for Inactive)
REMARK    1  A    between atoms: C_7  and  C_8 
REMARK    2  A    between atoms: C_11  and  O_12 
REMARK    3  A    between atoms: C_17  and  C_18 
REMARK    4  A    between atoms: C_25  and  C_26 
REMARK       I    between atoms: C_26  and  N_27 
ROOT
HETATM    1  C   UNL     1       4.552  28.637  49.125  1.00  0.00     0.070 C 
HETATM    2  C   UNL     1       4.733  27.922  50.442  1.00  0.00     0.037 A 
HETATM    3  N   UNL     1       5.687  26.910  50.453  1.00  0.00    -0.192 N 
HETATM    4  C   UNL     1       5.954  26.155  51.533  1.00  0.00     0.726 A 
HETATM    5  N   UNL     1       5.278  26.387  52.696  1.00  0.00    -0.083 N 
HETATM    6  N   UNL     1       5.598  25.484  53.642  1.00  0.00    -0.135 NA
HETATM    7  C   UNL     1       6.565  24.781  53.021  1.00  0.00     0.199 A 
HETATM    8  N   UNL     1       6.784  25.160  51.706  1.00  0.00    -0.041 NA
HETATM    9  C   UNL     1       4.254  27.424  52.860  1.00  0.00     0.202 A 
HETATM   10  C   UNL     1       4.020  28.192  51.565  1.00  0.00     0.062 A 
HETATM   11  H   UNL     1       6.202  26.737  49.594  1.00  0.00     0.184 HD
ENDROOT
BRANCH   7  12
HETATM   12  C   UNL     1       7.328  23.712  53.659  1.00  0.00     0.014 A 
HETATM   13  C   UNL     1       7.918  22.696  52.898  1.00  0.00     0.018 A 
HETATM   14  C   UNL     1       8.629  21.664  53.521  1.00  0.00     0.037 A 
HETATM   15  C   UNL     1       8.764  21.630  54.911  1.00  0.00     0.068 A 
HETATM   16  C   UNL     1       8.183  22.640  55.675  1.00  0.00     0.037 A 
HETATM   17  C   UNL     1       7.469  23.673  55.053  1.00  0.00     0.018 A 
BRANCH  15  18
HETATM   18  O   UNL     1       9.478  20.566  55.388  1.00  0.00    -0.356 OA
HETATM   19  C   UNL     1       9.139  20.096  56.687  1.00  0.00     0.210 C 
ENDBRANCH  15  18
ENDBRANCH   7  12
BRANCH   9  20
HETATM   20  C   UNL     1       4.601  28.309  54.056  1.00  0.00    -0.028 A 
HETATM   21  C   UNL     1       3.603  28.865  54.879  1.00  0.00     0.012 A 
HETATM   22  C   UNL     1       3.949  29.683  55.956  1.00  0.00     0.043 A 
HETATM   23  C   UNL     1       5.287  29.958  56.209  1.00  0.00     0.116 A 
HETATM   24  F   UNL     1       5.616  30.747  57.241  1.00  0.00    -0.206 F 
HETATM   25  C   UNL     1       6.289  29.434  55.403  1.00  0.00     0.043 A 
HETATM   26  C   UNL     1       5.949  28.613  54.328  1.00  0.00     0.012 A 
ENDBRANCH   9  20
BRANCH  10  27
HETATM   27  C   UNL     1       3.051  29.310  51.598  1.00  0.00     0.249 C 
HETATM   28  N   UNL     1       1.741  28.960  51.514  1.00  0.00    -0.366 N 
HETATM   29  H   UNL     1       1.399  28.027  51.338  1.00  0.00     0.159 HD
HETATM   30  H   UNL     1       1.069  29.717  51.518  1.00  0.00     0.159 HD
HETATM   31  O   UNL     1       3.393  30.480  51.695  1.00  0.00    -0.268 OA
ENDBRANCH  10  27
TORSDOF 4
ENDMDL
MODEL 7
REMARK VINA RESULT:      -8.1      5.388      7.136
REMARK  4 active torsions:
REMARK  status: ('A' for Active; 'I' for Inactive)
REMARK    1  A    between atoms: C_7  and  C_8 
REMARK    2  A    between atoms: C_11  and  O_12 
REMARK    3  A    between atoms: C_17  and  C_18 
REMARK    4  A    between atoms: C_25  and  C_26 
REMARK       I    between atoms: C_26  and  N_27 
ROOT
HETATM    1  C   UNL     1       4.086  32.123  52.083  1.00  0.00     0.070 C 
HETATM    2  C   UNL     1       4.580  30.747  51.708  1.00  0.00     0.037 A 
HETATM    3  N   UNL     1       4.831  29.886  52.771  1.00  0.00    -0.192 N 
HETATM    4  C   UNL     1       5.303  28.635  52.617  1.00  0.00     0.726 A 
HETATM    5  N   UNL     1       5.539  28.160  51.360  1.00  0.00    -0.083 N 
HETATM    6  N   UNL     1       6.096  26.934  51.392  1.00  0.00    -0.135 NA
HETATM    7  C   UNL     1       6.078  26.670  52.713  1.00  0.00     0.199 A 
HETATM    8  N   UNL     1       5.617  27.718  53.493  1.00  0.00    -0.041 NA
HETATM    9  C   UNL     1       5.313  28.929  50.132  1.00  0.00     0.202 A 
HETATM   10  C   UNL     1       4.807  30.334  50.435  1.00  0.00     0.062 A 
HETATM   11  H   UNL     1       4.649  30.229  53.710  1.00  0.00     0.184 HD
ENDROOT
BRANCH   7  12
HETATM   12  C   UNL     1       6.500  25.397  53.292  1.00  0.00     0.014 A 
HETATM   13  C   UNL     1       6.322  25.132  54.655  1.00  0.00     0.018 A 
HETATM   14  C   UNL     1       6.750  23.919  55.204  1.00  0.00     0.037 A 
HETATM   15  C   UNL     1       7.361  22.951  54.404  1.00  0.00     0.068 A 
HETATM   16  C   UNL     1       7.538  23.205  53.045  1.00  0.00     0.037 A 
HETATM   17  C   UNL     1       7.111  24.421  52.494  1.00  0.00     0.018 A 
BRANCH  15  18
HETATM   18  O   UNL     1       7.734  21.815  55.068  1.00  0.00    -0.356 OA
HETATM   19  C   UNL     1       8.395  20.813  54.305  1.00  0.00     0.210 C 
ENDBRANCH  15  18
ENDBRANCH   7  12
BRANCH   9  20
HETATM   20  C   UNL     1       4.418  28.136  49.181  1.00  0.00    -0.028 A 
HETATM   21  C   UNL     1       3.030  28.030  49.388  1.00  0.00     0.012 A 
HETATM   22  C   UNL     1       2.238  27.285  48.512  1.00  0.00     0.043 A 
HETATM   23  C   UNL     1       2.829  26.635  47.436  1.00  0.00     0.116 A 
HETATM   24  F   UNL     1       2.068  25.917  46.599  1.00  0.00    -0.206 F 
HETATM   25  C   UNL     1       4.199  26.711  47.219  1.00  0.00     0.043 A 
HETATM   26  C   UNL     1       4.993  27.458  48.089  1.00  0.00     0.012 A 
ENDBRANCH   9  20
BRANCH  10  27
HETATM   27  C   UNL     1       4.481  31.206  49.285  1.00  0.00     0.249 C 
HETATM   28  N   UNL     1       5.542  31.760  48.643  1.00  0.00    -0.366 N 
HETATM   29  H   UNL     1       6.502  31.697  48.946  1.00  0.00     0.159 HD
HETATM   30  H   UNL     1       5.331  32.373  47.865  1.00  0.00     0.159 HD
HETATM   31  O   UNL     1       3.333  31.424  48.925  1.00  0.00    -0.268 OA
ENDBRANCH  10  27
TORSDOF 4
ENDMDL
MODEL 8
REMARK VINA RESULT:      -7.8      3.920      5.184
REMARK  4 active torsions:
REMARK  status: ('A' for Active; 'I' for Inactive)
REMARK    1  A    between atoms: C_7  and  C_8 
REMARK    2  A    between atoms: C_11  and  O_12 
REMARK    3  A    between atoms: C_17  and  C_18 
REMARK    4  A    between atoms: C_25  and  C_26 
REMARK       I    between atoms: C_26  and  N_27 
ROOT
HETATM    1  C   UNL     1       4.576  33.152  56.203  1.00  0.00     0.070 C 
HETATM    2  C   UNL     1       4.518  31.762  55.619  1.00  0.00     0.037 A 
HETATM    3  N   UNL     1       4.440  31.693  54.232  1.00  0.00    -0.192 N 
HETATM    4  C   UNL     1       4.352  30.537  53.551  1.00  0.00     0.726 A 
HETATM    5  N   UNL     1       4.355  29.356  54.234  1.00  0.00    -0.083 N 
HETATM    6  N   UNL     1       4.165  28.308  53.410  1.00  0.00    -0.135 NA
HETATM    7  C   UNL     1       4.156  28.915  52.208  1.00  0.00     0.199 A 
HETATM    8  N   UNL     1       4.244  30.296  52.270  1.00  0.00    -0.041 NA
HETATM    9  C   UNL     1       4.448  29.249  55.694  1.00  0.00     0.202 A 
HETATM   10  C   UNL     1       4.513  30.621  56.354  1.00  0.00     0.062 A 
HETATM   11  H   UNL     1       4.447  32.568  53.715  1.00  0.00     0.184 HD
ENDROOT
BRANCH   7  12
HETATM   12  C   UNL     1       4.067  28.199  50.937  1.00  0.00     0.014 A 
HETATM   13  C   UNL     1       4.821  27.041  50.708  1.00  0.00     0.018 A 
HETATM   14  C   UNL     1       4.744  26.376  49.481  1.00  0.00     0.037 A 
HETATM   15  C   UNL     1       3.915  26.852  48.463  1.00  0.00     0.068 A 
HETATM   16  C   UNL     1       3.158  28.001  48.684  1.00  0.00     0.037 A 
HETATM   17  C   UNL     1       3.235  28.670  49.913  1.00  0.00     0.018 A 
BRANCH  15  18
HETATM   18  O   UNL     1       3.939  26.110  47.314  1.00  0.00    -0.356 OA
HETATM   19  C   UNL     1       2.862  25.204  47.113  1.00  0.00     0.210 C 
ENDBRANCH  15  18
ENDBRANCH   7  12
BRANCH   9  20
HETATM   20  C   UNL     1       5.599  28.318  56.072  1.00  0.00    -0.028 A 
HETATM   21  C   UNL     1       5.376  27.104  56.747  1.00  0.00     0.012 A 
HETATM   22  C   UNL     1       6.449  26.280  57.094  1.00  0.00     0.043 A 
HETATM   23  C   UNL     1       7.745  26.670  56.781  1.00  0.00     0.116 A 
HETATM   24  F   UNL     1       8.772  25.880  57.119  1.00  0.00    -0.206 F 
HETATM   25  C   UNL     1       7.992  27.871  56.129  1.00  0.00     0.043 A 
HETATM   26  C   UNL     1       6.923  28.695  55.776  1.00  0.00     0.012 A 
ENDBRANCH   9  20
BRANCH  10  27
HETATM   27  C   UNL     1       4.667  30.665  57.825  1.00  0.00     0.249 C 
HETATM   28  N   UNL     1       3.563  30.338  58.545  1.00  0.00    -0.366 N 
HETATM   29  H   UNL     1       2.647  30.167  58.158  1.00  0.00     0.159 HD
HETATM   30  H   UNL     1       3.650  30.381  59.553  1.00  0.00     0.159 HD
HETATM   31  O   UNL     1       5.717  30.974  58.371  1.00  0.00    -0.268 OA
ENDBRANCH  10  27
TORSDOF 4
ENDMDL
MODEL 9
REMARK VINA RESULT:      -7.7      5.293      6.997
REMARK  4 active torsions:
REMARK  status: ('A' for Active; 'I' for Inactive)
REMARK    1  A    between atoms: C_7  and  C_8 
REMARK    2  A    between atoms: C_11  and  O_12 
REMARK    3  A    between atoms: C_17  and  C_18 
REMARK    4  A    between atoms: C_25  and  C_26 
REMARK       I    between atoms: C_26  and  N_27 
ROOT
HETATM    1  C   UNL     1       3.538  26.090  47.409  1.00  0.00     0.070 C 
HETATM    2  C   UNL     1       3.861  26.742  48.732  1.00  0.00     0.037 A 
HETATM    3  N   UNL     1       4.663  25.998  49.590  1.00  0.00    -0.192 N 
HETATM    4  C   UNL     1       5.023  26.415  50.817  1.00  0.00     0.726 A 
HETATM    5  N   UNL     1       4.602  27.636  51.258  1.00  0.00    -0.083 N 
HETATM    6  N   UNL     1       4.969  27.853  52.536  1.00  0.00    -0.135 NA
HETATM    7  C   UNL     1       5.710  26.757  52.788  1.00  0.00     0.199 A 
HETATM    8  N   UNL     1       5.736  25.840  51.750  1.00  0.00    -0.041 NA
HETATM    9  C   UNL     1       3.766  28.552  50.475  1.00  0.00     0.202 A 
HETATM   10  C   UNL     1       3.402  27.959  49.119  1.00  0.00     0.062 A 
HETATM   11  H   UNL     1       4.989  25.091  49.265  1.00  0.00     0.184 HD
ENDROOT
BRANCH   7  12
HETATM   12  C   UNL     1       6.433  26.536  54.038  1.00  0.00     0.014 A 
HETATM   13  C   UNL     1       6.685  25.240  54.504  1.00  0.00     0.018 A 
HETATM   14  C   UNL     1       7.359  25.040  55.713  1.00  0.00     0.037 A 
HETATM   15  C   UNL     1       7.793  26.126  56.476  1.00  0.00     0.068 A 
HETATM   16  C   UNL     1       7.550  27.419  56.016  1.00  0.00     0.037 A 
HETATM   17  C   UNL     1       6.873  27.622  54.806  1.00  0.00     0.018 A 
BRANCH  15  18
HETATM   18  O   UNL     1       8.433  25.789  57.636  1.00  0.00    -0.356 OA
HETATM   19  C   UNL     1       8.938  24.463  57.729  1.00  0.00     0.210 C 
ENDBRANCH  15  18
ENDBRANCH   7  12
BRANCH   9  20
HETATM   20  C   UNL     1       4.433  29.924  50.397  1.00  0.00    -0.028 A 
HETATM   21  C   UNL     1       5.617  30.129  49.665  1.00  0.00     0.012 A 
HETATM   22  C   UNL     1       6.214  31.391  49.624  1.00  0.00     0.043 A 
HETATM   23  C   UNL     1       5.640  32.446  50.322  1.00  0.00     0.116 A 
HETATM   24  F   UNL     1       6.217  33.655  50.284  1.00  0.00    -0.206 F 
HETATM   25  C   UNL     1       4.480  32.265  51.063  1.00  0.00     0.043 A 
HETATM   26  C   UNL     1       3.877  31.008  51.104  1.00  0.00     0.012 A 
ENDBRANCH   9  20
BRANCH  10  27
HETATM   27  C   UNL     1       2.606  28.799  48.197  1.00  0.00     0.249 C 
HETATM   28  N   UNL     1       1.276  28.869  48.460  1.00  0.00    -0.366 N 
HETATM   29  H   UNL     1       0.793  28.326  49.161  1.00  0.00     0.159 HD
HETATM   30  H   UNL     1       0.717  29.426  47.826  1.00  0.00     0.159 HD
HETATM   31  O   UNL     1       3.102  29.398  47.253  1.00  0.00    -0.268 OA
ENDBRANCH  10  27
TORSDOF 4
ENDMDL
MODEL 10
REMARK VINA RESULT:      -7.6      5.299      7.560
REMARK  4 active torsions:
REMARK  status: ('A' for Active; 'I' for Inactive)
REMARK    1  A    between atoms: C_7  and  C_8 
REMARK    2  A    between atoms: C_11  and  O_12 
REMARK    3  A    between atoms: C_17  and  C_18 
REMARK    4  A    between atoms: C_25  and  C_26 
REMARK       I    between atoms: C_26  and  N_27 
ROOT
HETATM    1  C   UNL     1       3.188  36.074  62.693  1.00  0.00     0.070 C 
HETATM    2  C   UNL     1       3.612  34.820  61.966  1.00  0.00     0.037 A 
HETATM    3  N   UNL     1       3.212  34.731  60.637  1.00  0.00    -0.192 N 
HETATM    4  C   UNL     1       3.479  33.671  59.852  1.00  0.00     0.726 A 
HETATM    5  N   UNL     1       4.192  32.625  60.361  1.00  0.00    -0.083 N 
HETATM    6  N   UNL     1       4.285  31.614  59.476  1.00  0.00    -0.135 NA
HETATM    7  C   UNL     1       3.689  32.153  58.395  1.00  0.00     0.199 A 
HETATM    8  N   UNL     1       3.158  33.414  58.611  1.00  0.00    -0.041 NA
HETATM    9  C   UNL     1       4.702  32.566  61.735  1.00  0.00     0.202 A 
HETATM   10  C   UNL     1       4.314  33.806  62.531  1.00  0.00     0.062 A 
HETATM   11  H   UNL     1       2.688  35.510  60.247  1.00  0.00     0.184 HD
ENDROOT
BRANCH   7  12
HETATM   12  C   UNL     1       3.602  31.485  57.099  1.00  0.00     0.014 A 
HETATM   13  C   UNL     1       4.099  30.187  56.922  1.00  0.00     0.018 A 
HETATM   14  C   UNL     1       4.030  29.565  55.672  1.00  0.00     0.037 A 
HETATM   15  C   UNL     1       3.464  30.224  54.578  1.00  0.00     0.068 A 
HETATM   16  C   UNL     1       2.963  31.514  54.746  1.00  0.00     0.037 A 
HETATM   17  C   UNL     1       3.033  32.140  55.999  1.00  0.00     0.018 A 
BRANCH  15  18
HETATM   18  O   UNL     1       3.465  29.504  53.416  1.00  0.00    -0.356 OA
HETATM   19  C   UNL     1       3.908  28.155  53.496  1.00  0.00     0.210 C 
ENDBRANCH  15  18
ENDBRANCH   7  12
BRANCH   9  20
HETATM   20  C   UNL     1       6.203  32.281  61.717  1.00  0.00    -0.028 A 
HETATM   21  C   UNL     1       6.799  31.402  62.641  1.00  0.00     0.012 A 
HETATM   22  C   UNL     1       8.176  31.171  62.611  1.00  0.00     0.043 A 
HETATM   23  C   UNL     1       8.962  31.824  61.671  1.00  0.00     0.116 A 
HETATM   24  F   UNL     1      10.283  31.604  61.647  1.00  0.00    -0.206 F 
HETATM   25  C   UNL     1       8.400  32.706  60.758  1.00  0.00     0.043 A 
HETATM   26  C   UNL     1       7.025  32.937  60.781  1.00  0.00     0.012 A 
ENDBRANCH   9  20
BRANCH  10  27
HETATM   27  C   UNL     1       4.811  33.910  63.920  1.00  0.00     0.249 C 
HETATM   28  N   UNL     1       5.929  34.662  64.094  1.00  0.00    -0.366 N 
HETATM   29  H   UNL     1       6.481  35.062  63.350  1.00  0.00     0.159 HD
HETATM   30  H   UNL     1       6.290  34.726  65.038  1.00  0.00     0.159 HD
HETATM   31  O   UNL     1       4.261  33.358  64.863  1.00  0.00    -0.268 OA
ENDBRANCH  10  27
TORSDOF 4
ENDMDL
