MODEL 1
REMARK VINA RESULT:      -9.7      0.000      0.000
REMARK  5 active torsions:
REMARK  status: ('A' for Active; 'I' for Inactive)
REMARK    1  A    between atoms: C_9  and  C_10 
REMARK       I    between atoms: C_10  and  N_11 
REMARK    2  A    between atoms: N_11  and  C_12 
REMARK    3  A    between atoms: C_12  and  C_13 
REMARK    4  A    between atoms: C_16  and  N_17 
REMARK       I    between atoms: N_17  and  C_18 
REMARK       I    between atoms: C_18  and  N_19 
REMARK    5  A    between atoms: N_19  and  C_20 
ROOT
HETATM    1  C   UNL     1       5.015  26.953  54.920  1.00  0.00     0.161 C 
ENDROOT
BRANCH   1   2
HETATM    2  N   UNL     1       5.750  25.883  55.536  1.00  0.00    -0.351 N 
HETATM    3  C   UNL     1       7.121  25.800  55.511  1.00  0.00     0.273 C 
HETATM    4  O   UNL     1       7.838  26.637  54.972  1.00  0.00    -0.266 OA
HETATM    5  H   UNL     1       5.271  25.131  56.024  1.00  0.00     0.163 HD
BRANCH   3   6
HETATM    6  C   UNL     1       7.631  24.599  56.194  1.00  0.00     0.157 A 
HETATM    7  C   UNL     1       7.827  23.299  55.641  1.00  0.00     0.029 A 
HETATM    8  C   UNL     1       7.650  22.693  54.382  1.00  0.00     0.023 A 
HETATM    9  C   UNL     1       8.311  22.529  56.692  1.00  0.00     0.063 A 
HETATM   10  C   UNL     1       7.961  21.332  54.219  1.00  0.00    -0.061 A 
HETATM   11  C   UNL     1       7.787  20.665  52.885  1.00  0.00     0.048 C 
HETATM   12  C   UNL     1       8.448  20.593  55.306  1.00  0.00     0.009 A 
HETATM   13  C   UNL     1       8.632  21.175  56.564  1.00  0.00     0.032 A 
HETATM   14  N   UNL     1       8.375  23.377  57.761  1.00  0.00    -0.277 N 
HETATM   15  H   UNL     1       8.684  23.155  58.700  1.00  0.00     0.189 HD
HETATM   16  N   UNL     1       7.974  24.633  57.502  1.00  0.00    -0.168 NA
ENDBRANCH   3   6
ENDBRANCH   1   2
BRANCH   1  17
HETATM   17  C   UNL     1       5.007  26.777  53.426  1.00  0.00    -0.040 A 
HETATM   18  C   UNL     1       4.818  25.515  52.851  1.00  0.00     0.011 A 
HETATM   19  C   UNL     1       4.905  25.342  51.465  1.00  0.00     0.030 A 
HETATM   20  C   UNL     1       5.211  26.421  50.632  1.00  0.00     0.036 A 
HETATM   21  C   UNL     1       5.348  27.692  51.202  1.00  0.00     0.030 A 
HETATM   22  C   UNL     1       5.260  27.868  52.586  1.00  0.00     0.011 A 
BRANCH  20  23
HETATM   23  N   UNL     1       5.367  26.330  49.238  1.00  0.00    -0.309 N 
HETATM   24  C   UNL     1       4.620  26.783  48.190  1.00  0.00     0.321 C 
HETATM   25  N   UNL     1       3.358  27.212  48.465  1.00  0.00    -0.339 N 
HETATM   26  O   UNL     1       5.092  26.721  47.057  1.00  0.00    -0.247 OA
HETATM   27  H   UNL     1       2.956  26.760  49.273  1.00  0.00     0.164 HD
HETATM   28  H   UNL     1       6.185  25.834  48.905  1.00  0.00     0.170 HD
BRANCH  25  29
HETATM   29  C   UNL     1       2.396  27.626  47.450  1.00  0.00     0.078 C 
HETATM   30  C   UNL     1       0.963  27.203  47.769  1.00  0.00     0.032 C 
HETATM   31  C   UNL     1       2.489  29.121  47.159  1.00  0.00     0.032 C 
ENDBRANCH  25  29
ENDBRANCH  20  23
ENDBRANCH   1  17
TORSDOF 5
ENDMDL
MODEL 2
REMARK VINA RESULT:      -9.5      4.560      8.241
REMARK  5 active torsions:
REMARK  status: ('A' for Active; 'I' for Inactive)
REMARK    1  A    between atoms: C_9  and  C_10 
REMARK       I    between atoms: C_10  and  N_11 
REMARK    2  A    between atoms: N_11  and  C_12 
REMARK    3  A    between atoms: C_12  and  C_13 
REMARK    4  A    between atoms: C_16  and  N_17 
REMARK       I    between atoms: N_17  and  C_18 
REMARK       I    between atoms: C_18  and  N_19 
REMARK    5  A    between atoms: N_19  and  C_20 
ROOT
HETATM    1  C   UNL     1       5.144  26.209  56.812  1.00  0.00     0.161 C 
ENDROOT
BRANCH   1   2
HETATM    2  N   UNL     1       5.878  25.403  55.876  1.00  0.00    -0.351 N 
HETATM    3  C   UNL     1       5.764  25.541  54.513  1.00  0.00     0.273 C 
HETATM    4  O   UNL     1       5.035  26.371  53.978  1.00  0.00    -0.266 OA
HETATM    5  H   UNL     1       6.522  24.685  56.194  1.00  0.00     0.163 HD
BRANCH   3   6
HETATM    6  C   UNL     1       6.602  24.583  53.773  1.00  0.00     0.157 A 
HETATM    7  C   UNL     1       7.268  23.430  54.284  1.00  0.00     0.029 A 
HETATM    8  C   UNL     1       7.389  22.799  55.537  1.00  0.00     0.023 A 
HETATM    9  C   UNL     1       7.925  22.879  53.191  1.00  0.00     0.063 A 
HETATM   10  C   UNL     1       8.170  21.635  55.653  1.00  0.00    -0.061 A 
HETATM   11  C   UNL     1       8.309  20.940  56.977  1.00  0.00     0.048 C 
HETATM   12  C   UNL     1       8.814  21.113  54.524  1.00  0.00     0.009 A 
HETATM   13  C   UNL     1       8.707  21.724  53.271  1.00  0.00     0.032 A 
HETATM   14  N   UNL     1       7.624  23.697  52.138  1.00  0.00    -0.277 N 
HETATM   15  H   UNL     1       7.935  23.599  51.179  1.00  0.00     0.189 HD
HETATM   16  N   UNL     1       6.829  24.734  52.448  1.00  0.00    -0.168 NA
ENDBRANCH   3   6
ENDBRANCH   1   2
BRANCH   1  17
HETATM   17  C   UNL     1       5.899  27.478  57.101  1.00  0.00    -0.040 A 
HETATM   18  C   UNL     1       7.252  27.445  57.458  1.00  0.00     0.011 A 
HETATM   19  C   UNL     1       7.923  28.619  57.818  1.00  0.00     0.030 A 
HETATM   20  C   UNL     1       7.248  29.841  57.854  1.00  0.00     0.036 A 
HETATM   21  C   UNL     1       5.910  29.882  57.447  1.00  0.00     0.030 A 
HETATM   22  C   UNL     1       5.236  28.711  57.086  1.00  0.00     0.011 A 
BRANCH  20  23
HETATM   23  N   UNL     1       7.829  31.059  58.249  1.00  0.00    -0.309 N 
HETATM   24  C   UNL     1       8.162  31.576  59.467  1.00  0.00     0.321 C 
HETATM   25  N   UNL     1       7.658  30.950  60.566  1.00  0.00    -0.339 N 
HETATM   26  O   UNL     1       8.835  32.602  59.510  1.00  0.00    -0.247 OA
HETATM   27  H   UNL     1       6.781  30.484  60.386  1.00  0.00     0.164 HD
HETATM   28  H   UNL     1       8.060  31.712  57.509  1.00  0.00     0.170 HD
BRANCH  25  29
HETATM   29  C   UNL     1       7.829  31.434  61.932  1.00  0.00     0.078 C 
HETATM   30  C   UNL     1       6.506  31.699  62.647  1.00  0.00     0.032 C 
HETATM   31  C   UNL     1       8.736  30.516  62.747  1.00  0.00     0.032 C 
ENDBRANCH  25  29
ENDBRANCH  20  23
ENDBRANCH   1  17
TORSDOF 5
ENDMDL
MODEL 3
REMARK VINA RESULT:      -9.4      9.966     13.838
REMARK  5 active torsions:
REMARK  status: ('A' for Active; 'I' for Inactive)
REMARK    1  A    between atoms: C_9  and  C_10 
REMARK       I    between atoms: C_10  and  N_11 
REMARK    2  A    between atoms: N_11  and  C_12 
REMARK    3  A    between atoms: C_12  and  C_13 
REMARK    4  A    between atoms: C_16  and  N_17 
REMARK       I    between atoms: N_17  and  C_18 
REMARK       I    between atoms: C_18  and  N_19 
REMARK    5  A    between atoms: N_19  and  C_20 
ROOT
HETATM    1  C   UNL     1       8.378  31.245  61.948  1.00  0.00     0.161 C 
ENDROOT
BRANCH   1   2
HETATM    2  N   UNL     1       7.690  30.968  60.717  1.00  0.00    -0.351 N 
HETATM    3  C   UNL     1       7.947  31.637  59.545  1.00  0.00     0.273 C 
HETATM    4  O   UNL     1       8.793  32.520  59.443  1.00  0.00    -0.266 OA
HETATM    5  H   UNL     1       6.972  30.251  60.668  1.00  0.00     0.163 HD
BRANCH   3   6
HETATM    6  C   UNL     1       7.094  31.183  58.433  1.00  0.00     0.157 A 
HETATM    7  C   UNL     1       7.089  29.903  57.804  1.00  0.00     0.029 A 
HETATM    8  C   UNL     1       7.792  28.692  57.958  1.00  0.00     0.023 A 
HETATM    9  C   UNL     1       6.116  29.991  56.816  1.00  0.00     0.063 A 
HETATM   10  C   UNL     1       7.498  27.609  57.112  1.00  0.00    -0.061 A 
HETATM   11  C   UNL     1       8.229  26.306  57.260  1.00  0.00     0.048 C 
HETATM   12  C   UNL     1       6.508  27.741  56.129  1.00  0.00     0.009 A 
HETATM   13  C   UNL     1       5.798  28.934  55.960  1.00  0.00     0.032 A 
HETATM   14  N   UNL     1       5.619  31.260  56.910  1.00  0.00    -0.277 N 
HETATM   15  H   UNL     1       4.891  31.676  56.341  1.00  0.00     0.189 HD
HETATM   16  N   UNL     1       6.181  32.009  57.872  1.00  0.00    -0.168 NA
ENDBRANCH   3   6
ENDBRANCH   1   2
BRANCH   1  17
HETATM   17  C   UNL     1       7.482  32.022  62.874  1.00  0.00    -0.040 A 
HETATM   18  C   UNL     1       8.018  32.814  63.897  1.00  0.00     0.011 A 
HETATM   19  C   UNL     1       7.179  33.457  64.814  1.00  0.00     0.030 A 
HETATM   20  C   UNL     1       5.793  33.298  64.742  1.00  0.00     0.036 A 
HETATM   21  C   UNL     1       5.256  32.549  63.690  1.00  0.00     0.030 A 
HETATM   22  C   UNL     1       6.091  31.906  62.772  1.00  0.00     0.011 A 
BRANCH  20  23
HETATM   23  N   UNL     1       4.881  33.866  65.649  1.00  0.00    -0.309 N 
HETATM   24  C   UNL     1       5.011  34.344  66.919  1.00  0.00     0.321 C 
HETATM   25  N   UNL     1       6.159  34.038  67.584  1.00  0.00    -0.339 N 
HETATM   26  O   UNL     1       4.074  34.962  67.418  1.00  0.00    -0.247 OA
HETATM   27  H   UNL     1       6.572  33.169  67.277  1.00  0.00     0.164 HD
HETATM   28  H   UNL     1       3.923  33.953  65.331  1.00  0.00     0.170 HD
BRANCH  25  29
HETATM   29  C   UNL     1       6.411  34.379  68.979  1.00  0.00     0.078 C 
HETATM   30  C   UNL     1       6.164  33.217  69.939  1.00  0.00     0.032 C 
HETATM   31  C   UNL     1       7.801  34.982  69.172  1.00  0.00     0.032 C 
ENDBRANCH  25  29
ENDBRANCH  20  23
ENDBRANCH   1  17
TORSDOF 5
ENDMDL
MODEL 4
REMARK VINA RESULT:      -9.3      4.901      8.109
REMARK  5 active torsions:
REMARK  status: ('A' for Active; 'I' for Inactive)
REMARK    1  A    between atoms: C_9  and  C_10 
REMARK       I    between atoms: C_10  and  N_11 
REMARK    2  A    between atoms: N_11  and  C_12 
REMARK    3  A    between atoms: C_12  and  C_13 
REMARK    4  A    between atoms: C_16  and  N_17 
REMARK       I    between atoms: N_17  and  C_18 
REMARK       I    between atoms: C_18  and  N_19 
REMARK    5  A    between atoms: N_19  and  C_20 
ROOT
HETATM    1  C   UNL     1       5.382  26.899  56.173  1.00  0.00     0.161 C 
ENDROOT
BRANCH   1   2
HETATM    2  N   UNL     1       6.084  25.690  56.505  1.00  0.00    -0.351 N 
HETATM    3  C   UNL     1       7.037  25.126  55.692  1.00  0.00     0.273 C 
HETATM    4  O   UNL     1       7.380  25.610  54.618  1.00  0.00    -0.266 OA
HETATM    5  H   UNL     1       5.897  25.197  57.374  1.00  0.00     0.163 HD
BRANCH   3   6
HETATM    6  C   UNL     1       7.592  23.879  56.247  1.00  0.00     0.157 A 
HETATM    7  C   UNL     1       7.859  22.660  55.556  1.00  0.00     0.029 A 
HETATM    8  C   UNL     1       7.731  22.192  54.234  1.00  0.00     0.023 A 
HETATM    9  C   UNL     1       8.361  21.800  56.525  1.00  0.00     0.063 A 
HETATM   10  C   UNL     1       8.109  20.874  53.926  1.00  0.00    -0.061 A 
HETATM   11  C   UNL     1       7.988  20.355  52.523  1.00  0.00     0.048 C 
HETATM   12  C   UNL     1       8.613  20.040  54.934  1.00  0.00     0.009 A 
HETATM   13  C   UNL     1       8.748  20.485  56.253  1.00  0.00     0.032 A 
HETATM   14  N   UNL     1       8.367  22.523  57.683  1.00  0.00    -0.277 N 
HETATM   15  H   UNL     1       8.671  22.212  58.598  1.00  0.00     0.189 HD
HETATM   16  N   UNL     1       7.912  23.781  57.558  1.00  0.00    -0.168 NA
ENDBRANCH   3   6
ENDBRANCH   1   2
BRANCH   1  17
HETATM   17  C   UNL     1       6.015  28.071  56.873  1.00  0.00    -0.040 A 
HETATM   18  C   UNL     1       5.450  29.349  56.790  1.00  0.00     0.011 A 
HETATM   19  C   UNL     1       6.093  30.451  57.364  1.00  0.00     0.030 A 
HETATM   20  C   UNL     1       7.325  30.301  58.005  1.00  0.00     0.036 A 
HETATM   21  C   UNL     1       7.863  29.016  58.133  1.00  0.00     0.030 A 
HETATM   22  C   UNL     1       7.223  27.912  57.562  1.00  0.00     0.011 A 
BRANCH  20  23
HETATM   23  N   UNL     1       8.063  31.358  58.565  1.00  0.00    -0.309 N 
HETATM   24  C   UNL     1       8.120  31.886  59.821  1.00  0.00     0.321 C 
HETATM   25  N   UNL     1       7.138  31.524  60.693  1.00  0.00    -0.339 N 
HETATM   26  O   UNL     1       9.001  32.700  60.082  1.00  0.00    -0.247 OA
HETATM   27  H   UNL     1       6.271  31.288  60.232  1.00  0.00     0.164 HD
HETATM   28  H   UNL     1       8.691  31.852  57.942  1.00  0.00     0.170 HD
BRANCH  25  29
HETATM   29  C   UNL     1       6.991  32.078  62.034  1.00  0.00     0.078 C 
HETATM   30  C   UNL     1       5.560  32.004  62.563  1.00  0.00     0.032 C 
HETATM   31  C   UNL     1       7.986  31.460  63.013  1.00  0.00     0.032 C 
ENDBRANCH  25  29
ENDBRANCH  20  23
ENDBRANCH   1  17
TORSDOF 5
ENDMDL
MODEL 5
REMARK VINA RESULT:      -9.1      6.608      9.877
REMARK  5 active torsions:
REMARK  status: ('A' for Active; 'I' for Inactive)
REMARK    1  A    between atoms: C_9  and  C_10 
REMARK       I    between atoms: C_10  and  N_11 
REMARK    2  A    between atoms: N_11  and  C_12 
REMARK    3  A    between atoms: C_12  and  C_13 
REMARK    4  A    between atoms: C_16  and  N_17 
REMARK       I    between atoms: N_17  and  C_18 
REMARK       I    between atoms: C_18  and  N_19 
REMARK    5  A    between atoms: N_19  and  C_20 
ROOT
HETATM    1  C   UNL     1       6.524  29.817  57.575  1.00  0.00     0.161 C 
ENDROOT
BRANCH   1   2
HETATM    2  N   UNL     1       6.976  30.187  58.888  1.00  0.00    -0.351 N 
HETATM    3  C   UNL     1       7.139  31.492  59.287  1.00  0.00     0.273 C 
HETATM    4  O   UNL     1       6.902  32.453  58.562  1.00  0.00    -0.266 OA
HETATM    5  H   UNL     1       7.197  29.481  59.584  1.00  0.00     0.163 HD
BRANCH   3   6
HETATM    6  C   UNL     1       7.633  31.605  60.670  1.00  0.00     0.157 A 
HETATM    7  C   UNL     1       7.212  32.527  61.673  1.00  0.00     0.029 A 
HETATM    8  C   UNL     1       6.272  33.572  61.763  1.00  0.00     0.023 A 
HETATM    9  C   UNL     1       7.988  32.227  62.786  1.00  0.00     0.063 A 
HETATM   10  C   UNL     1       6.143  34.286  62.967  1.00  0.00    -0.061 A 
HETATM   11  C   UNL     1       5.144  35.400  63.089  1.00  0.00     0.048 C 
HETATM   12  C   UNL     1       6.945  33.949  64.066  1.00  0.00     0.009 A 
HETATM   13  C   UNL     1       7.884  32.915  63.998  1.00  0.00     0.032 A 
HETATM   14  N   UNL     1       8.788  31.190  62.400  1.00  0.00    -0.277 N 
HETATM   15  H   UNL     1       9.485  30.713  62.961  1.00  0.00     0.189 HD
HETATM   16  N   UNL     1       8.604  30.785  61.133  1.00  0.00    -0.168 NA
ENDBRANCH   3   6
ENDBRANCH   1   2
BRANCH   1  17
HETATM   17  C   UNL     1       6.763  28.349  57.343  1.00  0.00    -0.040 A 
HETATM   18  C   UNL     1       5.694  27.472  57.128  1.00  0.00     0.011 A 
HETATM   19  C   UNL     1       5.915  26.095  57.008  1.00  0.00     0.030 A 
HETATM   20  C   UNL     1       7.203  25.569  57.130  1.00  0.00     0.036 A 
HETATM   21  C   UNL     1       8.276  26.450  57.293  1.00  0.00     0.030 A 
HETATM   22  C   UNL     1       8.060  27.826  57.412  1.00  0.00     0.011 A 
BRANCH  20  23
HETATM   23  N   UNL     1       7.510  24.198  57.072  1.00  0.00    -0.309 N 
HETATM   24  C   UNL     1       7.978  23.393  56.075  1.00  0.00     0.321 C 
HETATM   25  N   UNL     1       7.948  23.892  54.809  1.00  0.00    -0.339 N 
HETATM   26  O   UNL     1       8.337  22.252  56.354  1.00  0.00    -0.247 OA
HETATM   27  H   UNL     1       7.213  24.571  54.670  1.00  0.00     0.164 HD
HETATM   28  H   UNL     1       7.367  23.666  57.922  1.00  0.00     0.170 HD
BRANCH  25  29
HETATM   29  C   UNL     1       8.310  23.127  53.621  1.00  0.00     0.078 C 
HETATM   30  C   UNL     1       7.679  21.737  53.582  1.00  0.00     0.032 C 
HETATM   31  C   UNL     1       8.030  23.907  52.339  1.00  0.00     0.032 C 
ENDBRANCH  25  29
ENDBRANCH  20  23
ENDBRANCH   1  17
TORSDOF 5
ENDMDL
MODEL 6
REMARK VINA RESULT:      -9.0      6.022      9.099
REMARK  5 active torsions:
REMARK  status: ('A' for Active; 'I' for Inactive)
REMARK    1  A    between atoms: C_9  and  C_10 
REMARK       I    between atoms: C_10  and  N_11 
REMARK    2  A    between atoms: N_11  and  C_12 
REMARK    3  A    between atoms: C_12  and  C_13 
REMARK    4  A    between atoms: C_16  and  N_17 
REMARK       I    between atoms: N_17  and  C_18 
REMARK       I    between atoms: C_18  and  N_19 
REMARK    5  A    between atoms: N_19  and  C_20 
ROOT
HETATM    1  C   UNL     1       9.710  29.720  57.624  1.00  0.00     0.161 C 
ENDROOT
BRANCH   1   2
HETATM    2  N   UNL     1       9.155  30.273  58.829  1.00  0.00    -0.351 N 
HETATM    3  C   UNL     1       9.408  31.554  59.255  1.00  0.00     0.273 C 
HETATM    4  O   UNL     1      10.119  32.342  58.638  1.00  0.00    -0.266 OA
HETATM    5  H   UNL     1       8.542  29.723  59.424  1.00  0.00     0.163 HD
BRANCH   3   6
HETATM    6  C   UNL     1       8.741  31.872  60.529  1.00  0.00     0.157 A 
HETATM    7  C   UNL     1       7.376  32.232  60.732  1.00  0.00     0.029 A 
HETATM    8  C   UNL     1       6.239  32.406  59.919  1.00  0.00     0.023 A 
HETATM    9  C   UNL     1       7.258  32.437  62.101  1.00  0.00     0.063 A 
HETATM   10  C   UNL     1       5.020  32.785  60.507  1.00  0.00    -0.061 A 
HETATM   11  C   UNL     1       3.792  32.971  59.663  1.00  0.00     0.048 C 
HETATM   12  C   UNL     1       4.945  32.980  61.893  1.00  0.00     0.009 A 
HETATM   13  C   UNL     1       6.061  32.812  62.718  1.00  0.00     0.032 A 
HETATM   14  N   UNL     1       8.502  32.197  62.612  1.00  0.00    -0.277 N 
HETATM   15  H   UNL     1       8.787  32.253  63.583  1.00  0.00     0.189 HD
HETATM   16  N   UNL     1       9.423  31.853  61.697  1.00  0.00    -0.168 NA
ENDBRANCH   3   6
ENDBRANCH   1   2
BRANCH   1  17
HETATM   17  C   UNL     1       8.643  28.988  56.855  1.00  0.00    -0.040 A 
HETATM   18  C   UNL     1       7.669  28.233  57.518  1.00  0.00     0.011 A 
HETATM   19  C   UNL     1       6.738  27.478  56.795  1.00  0.00     0.030 A 
HETATM   20  C   UNL     1       6.782  27.442  55.400  1.00  0.00     0.036 A 
HETATM   21  C   UNL     1       7.723  28.237  54.737  1.00  0.00     0.030 A 
HETATM   22  C   UNL     1       8.654  28.994  55.455  1.00  0.00     0.011 A 
BRANCH  20  23
HETATM   23  N   UNL     1       5.921  26.675  54.597  1.00  0.00    -0.309 N 
HETATM   24  C   UNL     1       5.886  25.350  54.276  1.00  0.00     0.321 C 
HETATM   25  N   UNL     1       6.993  24.612  54.565  1.00  0.00    -0.339 N 
HETATM   26  O   UNL     1       4.901  24.907  53.693  1.00  0.00    -0.247 OA
HETATM   27  H   UNL     1       7.842  25.158  54.561  1.00  0.00     0.164 HD
HETATM   28  H   UNL     1       5.160  27.171  54.148  1.00  0.00     0.170 HD
BRANCH  25  29
HETATM   29  C   UNL     1       7.162  23.211  54.193  1.00  0.00     0.078 C 
HETATM   30  C   UNL     1       7.956  23.021  52.902  1.00  0.00     0.032 C 
HETATM   31  C   UNL     1       7.745  22.389  55.339  1.00  0.00     0.032 C 
ENDBRANCH  25  29
ENDBRANCH  20  23
ENDBRANCH   1  17
TORSDOF 5
ENDMDL
MODEL 7
REMARK VINA RESULT:      -9.0      8.321     11.635
REMARK  5 active torsions:
REMARK  status: ('A' for Active; 'I' for Inactive)
REMARK    1  A    between atoms: C_9  and  C_10 
REMARK       I    between atoms: C_10  and  N_11 
REMARK    2  A    between atoms: N_11  and  C_12 
REMARK    3  A    between atoms: C_12  and  C_13 
REMARK    4  A    between atoms: C_16  and  N_17 
REMARK       I    between atoms: N_17  and  C_18 
REMARK       I    between atoms: C_18  and  N_19 
REMARK    5  A    between atoms: N_19  and  C_20 
ROOT
HETATM    1  C   UNL     1       8.642  31.053  59.992  1.00  0.00     0.161 C 
ENDROOT
BRANCH   1   2
HETATM    2  N   UNL     1       7.758  30.108  59.366  1.00  0.00    -0.351 N 
HETATM    3  C   UNL     1       7.911  29.680  58.070  1.00  0.00     0.273 C 
HETATM    4  O   UNL     1       8.821  30.056  57.338  1.00  0.00    -0.266 OA
HETATM    5  H   UNL     1       6.969  29.714  59.872  1.00  0.00     0.163 HD
BRANCH   3   6
HETATM    6  C   UNL     1       6.863  28.730  57.658  1.00  0.00     0.157 A 
HETATM    7  C   UNL     1       7.016  27.349  57.334  1.00  0.00     0.029 A 
HETATM    8  C   UNL     1       8.081  26.430  57.283  1.00  0.00     0.023 A 
HETATM    9  C   UNL     1       5.738  26.914  57.004  1.00  0.00     0.063 A 
HETATM   10  C   UNL     1       7.830  25.102  56.898  1.00  0.00    -0.061 A 
HETATM   11  C   UNL     1       8.948  24.101  56.841  1.00  0.00     0.048 C 
HETATM   12  C   UNL     1       6.526  24.704  56.574  1.00  0.00     0.009 A 
HETATM   13  C   UNL     1       5.454  25.601  56.619  1.00  0.00     0.032 A 
HETATM   14  N   UNL     1       4.934  28.009  57.146  1.00  0.00    -0.277 N 
HETATM   15  H   UNL     1       3.935  28.060  56.987  1.00  0.00     0.189 HD
HETATM   16  N   UNL     1       5.574  29.123  57.539  1.00  0.00    -0.168 NA
ENDBRANCH   3   6
ENDBRANCH   1   2
BRANCH   1  17
HETATM   17  C   UNL     1       7.952  31.711  61.156  1.00  0.00    -0.040 A 
HETATM   18  C   UNL     1       8.645  31.988  62.340  1.00  0.00     0.011 A 
HETATM   19  C   UNL     1       7.976  32.513  63.451  1.00  0.00     0.030 A 
HETATM   20  C   UNL     1       6.599  32.743  63.408  1.00  0.00     0.036 A 
HETATM   21  C   UNL     1       5.916  32.515  62.209  1.00  0.00     0.030 A 
HETATM   22  C   UNL     1       6.582  31.992  61.096  1.00  0.00     0.011 A 
BRANCH  20  23
HETATM   23  N   UNL     1       5.839  33.221  64.490  1.00  0.00    -0.309 N 
HETATM   24  C   UNL     1       5.127  34.367  64.689  1.00  0.00     0.321 C 
HETATM   25  N   UNL     1       5.333  35.387  63.811  1.00  0.00    -0.339 N 
HETATM   26  O   UNL     1       4.395  34.447  65.672  1.00  0.00    -0.247 OA
HETATM   27  H   UNL     1       6.257  35.375  63.404  1.00  0.00     0.164 HD
HETATM   28  H   UNL     1       5.786  32.622  65.305  1.00  0.00     0.170 HD
BRANCH  25  29
HETATM   29  C   UNL     1       4.735  36.711  63.941  1.00  0.00     0.078 C 
HETATM   30  C   UNL     1       5.732  37.847  63.719  1.00  0.00     0.032 C 
HETATM   31  C   UNL     1       3.502  36.864  63.054  1.00  0.00     0.032 C 
ENDBRANCH  25  29
ENDBRANCH  20  23
ENDBRANCH   1  17
TORSDOF 5
ENDMDL
MODEL 8
REMARK VINA RESULT:      -8.9      6.692      9.725
REMARK  5 active torsions:
REMARK  status: ('A' for Active; 'I' for Inactive)
REMARK    1  A    between atoms: C_9  and  C_10 
REMARK       I    between atoms: C_10  and  N_11 
REMARK    2  A    between atoms: N_11  and  C_12 
REMARK    3  A    between atoms: C_12  and  C_13 
REMARK    4  A    between atoms: C_16  and  N_17 
REMARK       I    between atoms: N_17  and  C_18 
REMARK       I    between atoms: C_18  and  N_19 
REMARK    5  A    between atoms: N_19  and  C_20 
ROOT
HETATM    1  C   UNL     1       6.582  30.076  57.544  1.00  0.00     0.161 C 
ENDROOT
BRANCH   1   2
HETATM    2  N   UNL     1       7.089  30.483  58.825  1.00  0.00    -0.351 N 
HETATM    3  C   UNL     1       6.959  31.760  59.315  1.00  0.00     0.273 C 
HETATM    4  O   UNL     1       6.388  32.660  58.708  1.00  0.00    -0.266 OA
HETATM    5  H   UNL     1       7.575  29.826  59.430  1.00  0.00     0.163 HD
BRANCH   3   6
HETATM    6  C   UNL     1       7.583  31.928  60.639  1.00  0.00     0.157 A 
HETATM    7  C   UNL     1       7.020  32.542  61.797  1.00  0.00     0.029 A 
HETATM    8  C   UNL     1       5.799  33.160  62.127  1.00  0.00     0.023 A 
HETATM    9  C   UNL     1       8.010  32.452  62.768  1.00  0.00     0.063 A 
HETATM   10  C   UNL     1       5.610  33.672  63.422  1.00  0.00    -0.061 A 
HETATM   11  C   UNL     1       4.314  34.329  63.801  1.00  0.00     0.048 C 
HETATM   12  C   UNL     1       6.633  33.558  64.373  1.00  0.00     0.009 A 
HETATM   13  C   UNL     1       7.854  32.948  64.066  1.00  0.00     0.032 A 
HETATM   14  N   UNL     1       9.055  31.816  62.163  1.00  0.00    -0.277 N 
HETATM   15  H   UNL     1       9.950  31.580  62.575  1.00  0.00     0.189 HD
HETATM   16  N   UNL     1       8.837  31.482  60.880  1.00  0.00    -0.168 NA
ENDBRANCH   3   6
ENDBRANCH   1   2
BRANCH   1  17
HETATM   17  C   UNL     1       6.660  28.580  57.411  1.00  0.00    -0.040 A 
HETATM   18  C   UNL     1       7.881  27.908  57.545  1.00  0.00     0.011 A 
HETATM   19  C   UNL     1       7.964  26.528  57.327  1.00  0.00     0.030 A 
HETATM   20  C   UNL     1       6.835  25.801  56.942  1.00  0.00     0.036 A 
HETATM   21  C   UNL     1       5.605  26.463  56.858  1.00  0.00     0.030 A 
HETATM   22  C   UNL     1       5.518  27.841  57.077  1.00  0.00     0.011 A 
BRANCH  20  23
HETATM   23  N   UNL     1       6.836  24.425  56.655  1.00  0.00    -0.309 N 
HETATM   24  C   UNL     1       7.108  23.714  55.523  1.00  0.00     0.321 C 
HETATM   25  N   UNL     1       7.173  24.409  54.354  1.00  0.00    -0.339 N 
HETATM   26  O   UNL     1       7.214  22.493  55.601  1.00  0.00    -0.247 OA
HETATM   27  H   UNL     1       6.603  25.242  54.358  1.00  0.00     0.164 HD
HETATM   28  H   UNL     1       6.590  23.803  57.416  1.00  0.00     0.170 HD
BRANCH  25  29
HETATM   29  C   UNL     1       7.348  23.791  53.044  1.00  0.00     0.078 C 
HETATM   30  C   UNL     1       7.625  24.801  51.932  1.00  0.00     0.032 C 
HETATM   31  C   UNL     1       8.402  22.687  53.076  1.00  0.00     0.032 C 
ENDBRANCH  25  29
ENDBRANCH  20  23
ENDBRANCH   1  17
TORSDOF 5
ENDMDL
MODEL 9
REMARK VINA RESULT:      -8.8      6.045      9.436
REMARK  5 active torsions:
REMARK  status: ('A' for Active; 'I' for Inactive)
REMARK    1  A    between atoms: C_9  and  C_10 
REMARK       I    between atoms: C_10  and  N_11 
REMARK    2  A    between atoms: N_11  and  C_12 
REMARK    3  A    between atoms: C_12  and  C_13 
REMARK    4  A    between atoms: C_16  and  N_17 
REMARK       I    between atoms: N_17  and  C_18 
REMARK       I    between atoms: C_18  and  N_19 
REMARK    5  A    between atoms: N_19  and  C_20 
ROOT
HETATM    1  C   UNL     1       5.083  30.224  56.942  1.00  0.00     0.161 C 
ENDROOT
BRANCH   1   2
HETATM    2  N   UNL     1       5.249  30.896  58.201  1.00  0.00    -0.351 N 
HETATM    3  C   UNL     1       5.460  32.250  58.310  1.00  0.00     0.273 C 
HETATM    4  O   UNL     1       5.513  33.003  57.343  1.00  0.00    -0.266 OA
HETATM    5  H   UNL     1       5.216  30.383  59.078  1.00  0.00     0.163 HD
BRANCH   3   6
HETATM    6  C   UNL     1       5.620  32.690  59.706  1.00  0.00     0.157 A 
HETATM    7  C   UNL     1       6.622  32.286  60.638  1.00  0.00     0.029 A 
HETATM    8  C   UNL     1       7.733  31.421  60.624  1.00  0.00     0.023 A 
HETATM    9  C   UNL     1       6.325  32.977  61.807  1.00  0.00     0.063 A 
HETATM   10  C   UNL     1       8.510  31.274  61.786  1.00  0.00    -0.061 A 
HETATM   11  C   UNL     1       9.703  30.363  61.795  1.00  0.00     0.048 C 
HETATM   12  C   UNL     1       8.177  31.992  62.943  1.00  0.00     0.009 A 
HETATM   13  C   UNL     1       7.078  32.856  62.978  1.00  0.00     0.032 A 
HETATM   14  N   UNL     1       5.217  33.721  61.516  1.00  0.00    -0.277 N 
HETATM   15  H   UNL     1       4.721  34.349  62.138  1.00  0.00     0.189 HD
HETATM   16  N   UNL     1       4.762  33.576  60.261  1.00  0.00    -0.168 NA
ENDBRANCH   3   6
ENDBRANCH   1   2
BRANCH   1  17
HETATM   17  C   UNL     1       5.675  28.843  57.014  1.00  0.00    -0.040 A 
HETATM   18  C   UNL     1       4.904  27.713  56.717  1.00  0.00     0.011 A 
HETATM   19  C   UNL     1       5.431  26.427  56.877  1.00  0.00     0.030 A 
HETATM   20  C   UNL     1       6.727  26.246  57.365  1.00  0.00     0.036 A 
HETATM   21  C   UNL     1       7.515  27.375  57.613  1.00  0.00     0.030 A 
HETATM   22  C   UNL     1       6.992  28.662  57.453  1.00  0.00     0.011 A 
BRANCH  20  23
HETATM   23  N   UNL     1       7.319  24.994  57.603  1.00  0.00    -0.309 N 
HETATM   24  C   UNL     1       7.933  24.088  56.789  1.00  0.00     0.321 C 
HETATM   25  N   UNL     1       7.777  24.253  55.447  1.00  0.00    -0.339 N 
HETATM   26  O   UNL     1       8.532  23.144  57.298  1.00  0.00    -0.247 OA
HETATM   27  H   UNL     1       6.913  24.715  55.205  1.00  0.00     0.164 HD
HETATM   28  H   UNL     1       7.306  24.662  58.560  1.00  0.00     0.170 HD
BRANCH  25  29
HETATM   29  C   UNL     1       8.276  23.318  54.445  1.00  0.00     0.078 C 
HETATM   30  C   UNL     1       7.700  21.911  54.593  1.00  0.00     0.032 C 
HETATM   31  C   UNL     1       8.091  23.855  53.028  1.00  0.00     0.032 C 
ENDBRANCH  25  29
ENDBRANCH  20  23
ENDBRANCH   1  17
TORSDOF 5
ENDMDL
MODEL 10
REMARK VINA RESULT:      -8.7      4.434      8.077
REMARK  5 active torsions:
REMARK  status: ('A' for Active; 'I' for Inactive)
REMARK    1  A    between atoms: C_9  and  C_10 
REMARK       I    between atoms: C_10  and  N_11 
REMARK    2  A    between atoms: N_11  and  C_12 
REMARK    3  A    between atoms: C_12  and  C_13 
REMARK    4  A    between atoms: C_16  and  N_17 
REMARK       I    between atoms: N_17  and  C_18 
REMARK       I    between atoms: C_18  and  N_19 
REMARK    5  A    between atoms: N_19  and  C_20 
ROOT
HETATM    1  C   UNL     1       5.933  28.187  54.054  1.00  0.00     0.161 C 
ENDROOT
BRANCH   1   2
HETATM    2  N   UNL     1       7.031  28.787  54.760  1.00  0.00    -0.351 N 
HETATM    3  C   UNL     1       7.221  28.648  56.114  1.00  0.00     0.273 C 
HETATM    4  O   UNL     1       6.478  27.990  56.835  1.00  0.00    -0.266 OA
HETATM    5  H   UNL     1       7.723  29.349  54.273  1.00  0.00     0.163 HD
BRANCH   3   6
HETATM    6  C   UNL     1       8.405  29.376  56.600  1.00  0.00     0.157 A 
HETATM    7  C   UNL     1       8.506  30.205  57.756  1.00  0.00     0.029 A 
HETATM    8  C   UNL     1       7.641  30.620  58.787  1.00  0.00     0.023 A 
HETATM    9  C   UNL     1       9.819  30.659  57.761  1.00  0.00     0.063 A 
HETATM   10  C   UNL     1       8.121  31.480  59.790  1.00  0.00    -0.061 A 
HETATM   11  C   UNL     1       7.220  31.930  60.903  1.00  0.00     0.048 C 
HETATM   12  C   UNL     1       9.453  31.912  59.757  1.00  0.00     0.009 A 
HETATM   13  C   UNL     1      10.329  31.513  58.743  1.00  0.00     0.032 A 
HETATM   14  N   UNL     1      10.400  30.098  56.659  1.00  0.00    -0.277 N 
HETATM   15  H   UNL     1      11.357  30.212  56.347  1.00  0.00     0.189 HD
HETATM   16  N   UNL     1       9.582  29.318  55.934  1.00  0.00    -0.168 NA
ENDBRANCH   3   6
ENDBRANCH   1   2
BRANCH   1  17
HETATM   17  C   UNL     1       6.292  26.787  53.637  1.00  0.00    -0.040 A 
HETATM   18  C   UNL     1       5.341  25.760  53.670  1.00  0.00     0.011 A 
HETATM   19  C   UNL     1       5.705  24.442  53.372  1.00  0.00     0.030 A 
HETATM   20  C   UNL     1       7.029  24.123  53.063  1.00  0.00     0.036 A 
HETATM   21  C   UNL     1       7.968  25.156  52.980  1.00  0.00     0.030 A 
HETATM   22  C   UNL     1       7.608  26.474  53.276  1.00  0.00     0.011 A 
BRANCH  20  23
HETATM   23  N   UNL     1       7.492  22.822  52.800  1.00  0.00    -0.309 N 
HETATM   24  C   UNL     1       7.752  21.749  53.601  1.00  0.00     0.321 C 
HETATM   25  N   UNL     1       7.818  21.977  54.942  1.00  0.00    -0.339 N 
HETATM   26  O   UNL     1       7.975  20.660  53.080  1.00  0.00    -0.247 OA
HETATM   27  H   UNL     1       8.109  22.917  55.168  1.00  0.00     0.164 HD
HETATM   28  H   UNL     1       7.684  22.597  51.831  1.00  0.00     0.170 HD
BRANCH  25  29
HETATM   29  C   UNL     1       8.190  20.966  55.926  1.00  0.00     0.078 C 
HETATM   30  C   UNL     1       9.575  20.370  55.684  1.00  0.00     0.032 C 
HETATM   31  C   UNL     1       8.041  21.485  57.353  1.00  0.00     0.032 C 
ENDBRANCH  25  29
ENDBRANCH  20  23
ENDBRANCH   1  17
TORSDOF 5
ENDMDL
