MODEL 1
REMARK VINA RESULT:      -9.4      0.000      0.000
REMARK  8 active torsions:
REMARK  status: ('A' for Active; 'I' for Inactive)
REMARK    1  A    between atoms: N_4  and  C_6 
REMARK    2  A    between atoms: C_6  and  C_7 
REMARK       I    between atoms: C_7  and  N_8 
REMARK    3  A    between atoms: N_8  and  C_9 
REMARK    4  A    between atoms: C_15  and  C_16 
REMARK    5  A    between atoms: C_21  and  C_22 
REMARK       I    between atoms: C_22  and  N_23 
REMARK    6  A    between atoms: N_23  and  C_24 
REMARK    7  A    between atoms: C_25  and  O_26 
REMARK    8  A    between atoms: C_29  and  O_30 
ROOT
HETATM    1  C   UNL     1       5.693  25.785  54.071  1.00  0.00     0.093 C 
HETATM    2  S   UNL     1       6.487  25.078  52.750  1.00  0.00    -0.075 SA
HETATM    3  C   UNL     1       7.514  24.195  53.760  1.00  0.00    -0.008 C 
HETATM    4  C   UNL     1       7.342  24.494  55.100  1.00  0.00    -0.026 C 
HETATM    5  C   UNL     1       8.257  23.879  56.121  1.00  0.00     0.041 C 
HETATM    6  C   UNL     1       9.431  23.105  55.510  1.00  0.00     0.010 C 
HETATM    7  C   UNL     1       9.084  22.273  54.254  1.00  0.00    -0.002 C 
HETATM    8  C   UNL     1       8.504  23.229  53.181  1.00  0.00     0.052 C 
HETATM    9  C   UNL     1       6.186  25.361  55.308  1.00  0.00     0.073 C 
ENDROOT
BRANCH   9  10
HETATM   10  C   UNL     1       5.470  25.752  56.546  1.00  0.00     0.259 C 
HETATM   11  N   UNL     1       6.004  26.773  57.282  1.00  0.00    -0.320 N 
HETATM   12  H   UNL     1       6.161  26.542  58.259  1.00  0.00     0.169 HD
HETATM   13  O   UNL     1       4.630  25.000  57.049  1.00  0.00    -0.267 OA
BRANCH  11  14
HETATM   14  C   UNL     1       5.749  28.157  57.146  1.00  0.00     0.068 A 
HETATM   15  C   UNL     1       6.817  29.023  57.460  1.00  0.00     0.097 A 
HETATM   16  C   UNL     1       6.692  30.398  57.244  1.00  0.00     0.075 A 
HETATM   17  C   UNL     1       5.508  30.914  56.716  1.00  0.00     0.070 A 
HETATM   18  C   UNL     1       4.435  30.053  56.457  1.00  0.00     0.039 A 
HETATM   19  C   UNL     1       4.545  28.678  56.681  1.00  0.00     0.035 A 
BRANCH  15  20
HETATM   20  O   UNL     1       7.939  28.410  57.972  1.00  0.00    -0.354 OA
HETATM   21  C   UNL     1       9.155  28.623  57.264  1.00  0.00     0.210 C 
ENDBRANCH  15  20
BRANCH  17  22
HETATM   22  O   UNL     1       5.270  32.227  56.412  1.00  0.00    -0.356 OA
HETATM   23  C   UNL     1       4.312  32.497  55.395  1.00  0.00     0.210 C 
ENDBRANCH  17  22
ENDBRANCH  11  14
ENDBRANCH   9  10
BRANCH   1  24
HETATM   24  N   UNL     1       4.569  26.574  53.844  1.00  0.00    -0.319 N 
HETATM   25  C   UNL     1       4.579  27.831  53.284  1.00  0.00     0.248 C 
HETATM   26  O   UNL     1       5.531  28.607  53.186  1.00  0.00    -0.271 OA
HETATM   27  H   UNL     1       3.714  26.211  54.274  1.00  0.00     0.169 HD
BRANCH  25  28
HETATM   28  C   UNL     1       3.239  28.270  52.686  1.00  0.00     0.337 C 
BRANCH  28  29
HETATM   29  N   UNL     1       3.438  28.672  51.214  1.00  0.00    -0.062 N 
HETATM   30  C   UNL     1       3.931  27.525  50.358  1.00  0.00     0.239 C 
HETATM   31  C   UNL     1       4.352  28.075  48.993  1.00  0.00     0.007 C 
HETATM   32  C   UNL     1       4.863  26.951  48.093  1.00  0.00     0.011 C 
HETATM   33  C   UNL     1       3.189  28.820  48.327  1.00  0.00     0.007 C 
HETATM   34  C   UNL     1       2.634  29.911  49.241  1.00  0.00     0.028 C 
HETATM   35  C   UNL     1       2.258  29.374  50.617  1.00  0.00     0.235 C 
HETATM   36  H   UNL     1       4.234  29.334  51.264  1.00  0.00     0.280 HD
ENDBRANCH  28  29
ENDBRANCH  25  28
ENDBRANCH   1  24
BRANCH   7  37
HETATM   37  C   UNL     1       8.284  20.934  54.499  1.00  0.00    -0.047 C 
HETATM   38  C   UNL     1       7.221  21.000  55.609  1.00  0.00     0.015 C 
HETATM   39  C   UNL     1       7.559  20.520  53.196  1.00  0.00     0.015 C 
HETATM   40  C   UNL     1       9.267  19.793  54.850  1.00  0.00     0.015 C 
ENDBRANCH   7  37
TORSDOF 8
ENDMDL
MODEL 2
REMARK VINA RESULT:      -9.2      1.380      2.486
REMARK  8 active torsions:
REMARK  status: ('A' for Active; 'I' for Inactive)
REMARK    1  A    between atoms: N_4  and  C_6 
REMARK    2  A    between atoms: C_6  and  C_7 
REMARK       I    between atoms: C_7  and  N_8 
REMARK    3  A    between atoms: N_8  and  C_9 
REMARK    4  A    between atoms: C_15  and  C_16 
REMARK    5  A    between atoms: C_21  and  C_22 
REMARK       I    between atoms: C_22  and  N_23 
REMARK    6  A    between atoms: N_23  and  C_24 
REMARK    7  A    between atoms: C_25  and  O_26 
REMARK    8  A    between atoms: C_29  and  O_30 
ROOT
HETATM    1  C   UNL     1       6.140  26.025  53.421  1.00  0.00     0.093 C 
HETATM    2  S   UNL     1       6.858  25.053  52.232  1.00  0.00    -0.075 SA
HETATM    3  C   UNL     1       7.781  24.223  53.378  1.00  0.00    -0.008 C 
HETATM    4  C   UNL     1       7.638  24.732  54.658  1.00  0.00    -0.026 C 
HETATM    5  C   UNL     1       8.478  24.180  55.774  1.00  0.00     0.041 C 
HETATM    6  C   UNL     1       9.564  23.205  55.304  1.00  0.00     0.010 C 
HETATM    7  C   UNL     1       9.135  22.240  54.175  1.00  0.00    -0.002 C 
HETATM    8  C   UNL     1       8.663  23.084  52.964  1.00  0.00     0.052 C 
HETATM    9  C   UNL     1       6.580  25.737  54.715  1.00  0.00     0.073 C 
ENDROOT
BRANCH   9  10
HETATM   10  C   UNL     1       5.907  26.378  55.870  1.00  0.00     0.259 C 
HETATM   11  N   UNL     1       6.678  26.677  56.958  1.00  0.00    -0.320 N 
HETATM   12  H   UNL     1       6.324  26.301  57.833  1.00  0.00     0.169 HD
HETATM   13  O   UNL     1       4.676  26.353  55.972  1.00  0.00    -0.267 OA
BRANCH  11  14
HETATM   14  C   UNL     1       7.402  27.867  57.199  1.00  0.00     0.068 A 
HETATM   15  C   UNL     1       6.648  28.981  57.624  1.00  0.00     0.097 A 
HETATM   16  C   UNL     1       7.293  30.164  57.997  1.00  0.00     0.075 A 
HETATM   17  C   UNL     1       8.685  30.242  57.945  1.00  0.00     0.070 A 
HETATM   18  C   UNL     1       9.421  29.150  57.472  1.00  0.00     0.039 A 
HETATM   19  C   UNL     1       8.786  27.966  57.086  1.00  0.00     0.035 A 
BRANCH  15  20
HETATM   20  O   UNL     1       5.284  28.796  57.640  1.00  0.00    -0.354 OA
HETATM   21  C   UNL     1       4.504  29.768  56.953  1.00  0.00     0.210 C 
ENDBRANCH  15  20
BRANCH  17  22
HETATM   22  O   UNL     1       9.442  31.318  58.324  1.00  0.00    -0.356 OA
HETATM   23  C   UNL     1       9.333  31.748  59.676  1.00  0.00     0.210 C 
ENDBRANCH  17  22
ENDBRANCH  11  14
ENDBRANCH   9  10
BRANCH   1  24
HETATM   24  N   UNL     1       5.107  26.886  53.060  1.00  0.00    -0.319 N 
HETATM   25  C   UNL     1       5.258  28.055  52.348  1.00  0.00     0.248 C 
HETATM   26  O   UNL     1       6.286  28.713  52.185  1.00  0.00    -0.271 OA
HETATM   27  H   UNL     1       4.212  26.668  53.503  1.00  0.00     0.169 HD
BRANCH  25  28
HETATM   28  C   UNL     1       3.982  28.544  51.657  1.00  0.00     0.337 C 
BRANCH  28  29
HETATM   29  N   UNL     1       3.740  27.722  50.379  1.00  0.00    -0.062 N 
HETATM   30  C   UNL     1       2.595  28.258  49.547  1.00  0.00     0.239 C 
HETATM   31  C   UNL     1       2.258  27.240  48.456  1.00  0.00     0.007 C 
HETATM   32  C   UNL     1       1.102  27.737  47.591  1.00  0.00     0.011 C 
HETATM   33  C   UNL     1       3.492  26.939  47.596  1.00  0.00     0.007 C 
HETATM   34  C   UNL     1       4.672  26.493  48.456  1.00  0.00     0.028 C 
HETATM   35  C   UNL     1       4.979  27.484  49.572  1.00  0.00     0.235 C 
HETATM   36  H   UNL     1       3.403  26.815  50.752  1.00  0.00     0.280 HD
ENDBRANCH  28  29
ENDBRANCH  25  28
ENDBRANCH   1  24
BRANCH   7  37
HETATM   37  C   UNL     1       8.195  21.043  54.597  1.00  0.00    -0.047 C 
HETATM   38  C   UNL     1       7.130  21.386  55.652  1.00  0.00     0.015 C 
HETATM   39  C   UNL     1       7.448  20.510  53.351  1.00  0.00     0.015 C 
HETATM   40  C   UNL     1       9.047  19.875  55.146  1.00  0.00     0.015 C 
ENDBRANCH   7  37
TORSDOF 8
ENDMDL
MODEL 3
REMARK VINA RESULT:      -8.9      2.611      7.480
REMARK  8 active torsions:
REMARK  status: ('A' for Active; 'I' for Inactive)
REMARK    1  A    between atoms: N_4  and  C_6 
REMARK    2  A    between atoms: C_6  and  C_7 
REMARK       I    between atoms: C_7  and  N_8 
REMARK    3  A    between atoms: N_8  and  C_9 
REMARK    4  A    between atoms: C_15  and  C_16 
REMARK    5  A    between atoms: C_21  and  C_22 
REMARK       I    between atoms: C_22  and  N_23 
REMARK    6  A    between atoms: N_23  and  C_24 
REMARK    7  A    between atoms: C_25  and  O_26 
REMARK    8  A    between atoms: C_29  and  O_30 
ROOT
HETATM    1  C   UNL     1       5.196  28.180  53.915  1.00  0.00     0.093 C 
HETATM    2  S   UNL     1       4.628  29.151  52.646  1.00  0.00    -0.075 SA
HETATM    3  C   UNL     1       3.891  30.229  53.717  1.00  0.00    -0.008 C 
HETATM    4  C   UNL     1       3.975  29.823  55.037  1.00  0.00    -0.026 C 
HETATM    5  C   UNL     1       3.271  30.612  56.104  1.00  0.00     0.041 C 
HETATM    6  C   UNL     1       2.359  31.715  55.553  1.00  0.00     0.010 C 
HETATM    7  C   UNL     1       2.920  32.483  54.335  1.00  0.00    -0.002 C 
HETATM    8  C   UNL     1       3.209  31.463  53.205  1.00  0.00     0.052 C 
HETATM    9  C   UNL     1       4.845  28.658  55.180  1.00  0.00     0.073 C 
ENDROOT
BRANCH   9  10
HETATM   10  C   UNL     1       5.425  28.018  56.385  1.00  0.00     0.259 C 
HETATM   11  N   UNL     1       6.693  28.387  56.741  1.00  0.00    -0.320 N 
HETATM   12  H   UNL     1       7.335  27.609  56.854  1.00  0.00     0.169 HD
HETATM   13  O   UNL     1       4.927  26.989  56.850  1.00  0.00    -0.267 OA
BRANCH  11  14
HETATM   14  C   UNL     1       7.072  29.456  57.587  1.00  0.00     0.068 A 
HETATM   15  C   UNL     1       8.454  29.608  57.821  1.00  0.00     0.097 A 
HETATM   16  C   UNL     1       8.927  30.703  58.548  1.00  0.00     0.075 A 
HETATM   17  C   UNL     1       8.028  31.648  59.044  1.00  0.00     0.070 A 
HETATM   18  C   UNL     1       6.655  31.461  58.853  1.00  0.00     0.039 A 
HETATM   19  C   UNL     1       6.170  30.362  58.137  1.00  0.00     0.035 A 
BRANCH  15  20
HETATM   20  O   UNL     1       9.252  28.621  57.284  1.00  0.00    -0.354 OA
HETATM   21  C   UNL     1      10.446  29.052  56.642  1.00  0.00     0.210 C 
ENDBRANCH  15  20
BRANCH  17  22
HETATM   22  O   UNL     1       8.357  32.786  59.729  1.00  0.00    -0.356 OA
HETATM   23  C   UNL     1       8.042  32.826  61.116  1.00  0.00     0.210 C 
ENDBRANCH  17  22
ENDBRANCH  11  14
ENDBRANCH   9  10
BRANCH   1  24
HETATM   24  N   UNL     1       6.055  27.123  53.629  1.00  0.00    -0.319 N 
HETATM   25  C   UNL     1       5.666  25.826  53.383  1.00  0.00     0.248 C 
HETATM   26  O   UNL     1       4.596  25.290  53.675  1.00  0.00    -0.271 OA
HETATM   27  H   UNL     1       7.045  27.344  53.766  1.00  0.00     0.169 HD
BRANCH  25  28
HETATM   28  C   UNL     1       6.696  24.989  52.619  1.00  0.00     0.337 C 
BRANCH  28  29
HETATM   29  N   UNL     1       7.201  23.847  53.517  1.00  0.00    -0.062 N 
HETATM   30  C   UNL     1       7.808  22.707  52.727  1.00  0.00     0.239 C 
HETATM   31  C   UNL     1       8.032  21.520  53.666  1.00  0.00     0.007 C 
HETATM   32  C   UNL     1       8.640  20.340  52.910  1.00  0.00     0.011 C 
HETATM   33  C   UNL     1       8.920  21.926  54.849  1.00  0.00     0.007 C 
HETATM   34  C   UNL     1       8.350  23.139  55.579  1.00  0.00     0.028 C 
HETATM   35  C   UNL     1       8.082  24.306  54.637  1.00  0.00     0.235 C 
HETATM   36  H   UNL     1       6.323  23.464  53.915  1.00  0.00     0.280 HD
ENDBRANCH  28  29
ENDBRANCH  25  28
ENDBRANCH   1  24
BRANCH   7  37
HETATM   37  C   UNL     1       4.062  33.531  54.634  1.00  0.00    -0.047 C 
HETATM   38  C   UNL     1       4.979  33.181  55.819  1.00  0.00     0.015 C 
HETATM   39  C   UNL     1       4.967  33.679  53.386  1.00  0.00     0.015 C 
HETATM   40  C   UNL     1       3.442  34.920  54.909  1.00  0.00     0.015 C 
ENDBRANCH   7  37
TORSDOF 8
ENDMDL
MODEL 4
REMARK VINA RESULT:      -8.9      2.113      7.838
REMARK  8 active torsions:
REMARK  status: ('A' for Active; 'I' for Inactive)
REMARK    1  A    between atoms: N_4  and  C_6 
REMARK    2  A    between atoms: C_6  and  C_7 
REMARK       I    between atoms: C_7  and  N_8 
REMARK    3  A    between atoms: N_8  and  C_9 
REMARK    4  A    between atoms: C_15  and  C_16 
REMARK    5  A    between atoms: C_21  and  C_22 
REMARK       I    between atoms: C_22  and  N_23 
REMARK    6  A    between atoms: N_23  and  C_24 
REMARK    7  A    between atoms: C_25  and  O_26 
REMARK    8  A    between atoms: C_29  and  O_30 
ROOT
HETATM    1  C   UNL     1       5.375  28.962  52.033  1.00  0.00     0.093 C 
HETATM    2  S   UNL     1       5.541  29.894  50.627  1.00  0.00    -0.075 SA
HETATM    3  C   UNL     1       4.953  28.645  49.653  1.00  0.00    -0.008 C 
HETATM    4  C   UNL     1       4.718  27.477  50.356  1.00  0.00    -0.026 C 
HETATM    5  C   UNL     1       4.302  26.237  49.618  1.00  0.00     0.041 C 
HETATM    6  C   UNL     1       4.365  26.377  48.093  1.00  0.00     0.010 C 
HETATM    7  C   UNL     1       3.894  27.742  47.540  1.00  0.00    -0.002 C 
HETATM    8  C   UNL     1       4.762  28.854  48.181  1.00  0.00     0.052 C 
HETATM    9  C   UNL     1       4.863  27.684  51.795  1.00  0.00     0.073 C 
ENDROOT
BRANCH   9  10
HETATM   10  C   UNL     1       4.492  26.825  52.945  1.00  0.00     0.259 C 
HETATM   11  N   UNL     1       4.789  25.493  52.854  1.00  0.00    -0.320 N 
HETATM   12  H   UNL     1       3.996  24.880  53.016  1.00  0.00     0.169 HD
HETATM   13  O   UNL     1       3.685  27.222  53.791  1.00  0.00    -0.267 OA
BRANCH  11  14
HETATM   14  C   UNL     1       5.987  24.850  53.242  1.00  0.00     0.068 A 
HETATM   15  C   UNL     1       6.121  24.553  54.614  1.00  0.00     0.097 A 
HETATM   16  C   UNL     1       7.218  23.816  55.069  1.00  0.00     0.075 A 
HETATM   17  C   UNL     1       8.183  23.375  54.162  1.00  0.00     0.070 A 
HETATM   18  C   UNL     1       8.070  23.721  52.811  1.00  0.00     0.039 A 
HETATM   19  C   UNL     1       6.982  24.467  52.347  1.00  0.00     0.035 A 
BRANCH  15  20
HETATM   20  O   UNL     1       5.112  25.032  55.420  1.00  0.00    -0.354 OA
HETATM   21  C   UNL     1       5.370  25.044  56.819  1.00  0.00     0.210 C 
ENDBRANCH  15  20
BRANCH  17  22
HETATM   22  O   UNL     1       9.276  22.610  54.464  1.00  0.00    -0.356 OA
HETATM   23  C   UNL     1       9.079  21.513  55.350  1.00  0.00     0.210 C 
ENDBRANCH  17  22
ENDBRANCH  11  14
ENDBRANCH   9  10
BRANCH   1  24
HETATM   24  N   UNL     1       5.601  29.555  53.272  1.00  0.00    -0.319 N 
HETATM   25  C   UNL     1       4.647  30.187  54.037  1.00  0.00     0.248 C 
HETATM   26  O   UNL     1       3.557  30.630  53.671  1.00  0.00    -0.271 OA
HETATM   27  H   UNL     1       6.590  29.628  53.523  1.00  0.00     0.169 HD
BRANCH  25  28
HETATM   28  C   UNL     1       5.000  30.301  55.523  1.00  0.00     0.337 C 
BRANCH  28  29
HETATM   29  N   UNL     1       6.378  29.667  55.776  1.00  0.00    -0.062 N 
HETATM   30  C   UNL     1       7.060  30.222  57.008  1.00  0.00     0.239 C 
HETATM   31  C   UNL     1       8.512  29.740  57.028  1.00  0.00     0.007 C 
HETATM   32  C   UNL     1       9.243  30.282  58.255  1.00  0.00     0.011 C 
HETATM   33  C   UNL     1       8.574  28.208  56.989  1.00  0.00     0.007 C 
HETATM   34  C   UNL     1       7.799  27.653  55.796  1.00  0.00     0.028 C 
HETATM   35  C   UNL     1       6.367  28.170  55.748  1.00  0.00     0.235 C 
HETATM   36  H   UNL     1       6.940  30.013  54.976  1.00  0.00     0.280 HD
ENDBRANCH  28  29
ENDBRANCH  25  28
ENDBRANCH   1  24
BRANCH   7  37
HETATM   37  C   UNL     1       2.335  27.994  47.533  1.00  0.00    -0.047 C 
HETATM   38  C   UNL     1       1.698  28.202  48.917  1.00  0.00     0.015 C 
HETATM   39  C   UNL     1       2.020  29.255  46.692  1.00  0.00     0.015 C 
HETATM   40  C   UNL     1       1.615  26.808  46.852  1.00  0.00     0.015 C 
ENDBRANCH   7  37
TORSDOF 8
ENDMDL
MODEL 5
REMARK VINA RESULT:      -8.7      3.535      7.354
REMARK  8 active torsions:
REMARK  status: ('A' for Active; 'I' for Inactive)
REMARK    1  A    between atoms: N_4  and  C_6 
REMARK    2  A    between atoms: C_6  and  C_7 
REMARK       I    between atoms: C_7  and  N_8 
REMARK    3  A    between atoms: N_8  and  C_9 
REMARK    4  A    between atoms: C_15  and  C_16 
REMARK    5  A    between atoms: C_21  and  C_22 
REMARK       I    between atoms: C_22  and  N_23 
REMARK    6  A    between atoms: N_23  and  C_24 
REMARK    7  A    between atoms: C_25  and  O_26 
REMARK    8  A    between atoms: C_29  and  O_30 
ROOT
HETATM    1  C   UNL     1       4.850  29.229  52.842  1.00  0.00     0.093 C 
HETATM    2  S   UNL     1       4.771  28.309  54.264  1.00  0.00    -0.075 SA
HETATM    3  C   UNL     1       5.014  26.866  53.419  1.00  0.00    -0.008 C 
HETATM    4  C   UNL     1       5.058  27.044  52.047  1.00  0.00    -0.026 C 
HETATM    5  C   UNL     1       5.153  25.847  51.146  1.00  0.00     0.041 C 
HETATM    6  C   UNL     1       5.003  24.509  51.880  1.00  0.00     0.010 C 
HETATM    7  C   UNL     1       5.699  24.436  53.258  1.00  0.00    -0.002 C 
HETATM    8  C   UNL     1       5.128  25.564  54.154  1.00  0.00     0.052 C 
HETATM    9  C   UNL     1       5.070  28.462  51.695  1.00  0.00     0.073 C 
ENDROOT
BRANCH   9  10
HETATM   10  C   UNL     1       5.345  29.144  50.408  1.00  0.00     0.259 C 
HETATM   11  N   UNL     1       4.943  28.510  49.265  1.00  0.00    -0.320 N 
HETATM   12  H   UNL     1       5.680  28.390  48.576  1.00  0.00     0.169 HD
HETATM   13  O   UNL     1       6.164  30.066  50.349  1.00  0.00    -0.267 OA
BRANCH  11  14
HETATM   14  C   UNL     1       3.688  28.612  48.621  1.00  0.00     0.068 A 
HETATM   15  C   UNL     1       3.623  29.484  47.513  1.00  0.00     0.097 A 
HETATM   16  C   UNL     1       2.457  29.559  46.747  1.00  0.00     0.075 A 
HETATM   17  C   UNL     1       1.355  28.770  47.080  1.00  0.00     0.070 A 
HETATM   18  C   UNL     1       1.410  27.949  48.211  1.00  0.00     0.039 A 
HETATM   19  C   UNL     1       2.567  27.874  48.991  1.00  0.00     0.035 A 
BRANCH  15  20
HETATM   20  O   UNL     1       4.767  30.213  47.272  1.00  0.00    -0.354 OA
HETATM   21  C   UNL     1       4.652  31.626  47.383  1.00  0.00     0.210 C 
ENDBRANCH  15  20
BRANCH  17  22
HETATM   22  O   UNL     1       0.174  28.712  46.390  1.00  0.00    -0.356 OA
HETATM   23  C   UNL     1      -0.151  27.478  45.759  1.00  0.00     0.210 C 
ENDBRANCH  17  22
ENDBRANCH  11  14
ENDBRANCH   9  10
BRANCH   1  24
HETATM   24  N   UNL     1       4.847  30.618  52.931  1.00  0.00    -0.319 N 
HETATM   25  C   UNL     1       3.753  31.426  52.719  1.00  0.00     0.248 C 
HETATM   26  O   UNL     1       2.712  31.147  52.121  1.00  0.00    -0.271 OA
HETATM   27  H   UNL     1       5.779  31.030  53.020  1.00  0.00     0.169 HD
BRANCH  25  28
HETATM   28  C   UNL     1       3.860  32.817  53.352  1.00  0.00     0.337 C 
BRANCH  28  29
HETATM   29  N   UNL     1       5.066  33.563  52.755  1.00  0.00    -0.062 N 
HETATM   30  C   UNL     1       4.854  33.952  51.307  1.00  0.00     0.239 C 
HETATM   31  C   UNL     1       6.184  34.439  50.727  1.00  0.00     0.007 C 
HETATM   32  C   UNL     1       6.020  34.839  49.262  1.00  0.00     0.011 C 
HETATM   33  C   UNL     1       6.739  35.606  51.553  1.00  0.00     0.007 C 
HETATM   34  C   UNL     1       6.855  35.235  53.029  1.00  0.00     0.028 C 
HETATM   35  C   UNL     1       5.544  34.706  53.596  1.00  0.00     0.235 C 
HETATM   36  H   UNL     1       5.800  32.831  52.734  1.00  0.00     0.280 HD
ENDBRANCH  28  29
ENDBRANCH  25  28
ENDBRANCH   1  24
BRANCH   7  37
HETATM   37  C   UNL     1       7.270  24.288  53.241  1.00  0.00    -0.047 C 
HETATM   38  C   UNL     1       8.000  25.158  52.204  1.00  0.00     0.015 C 
HETATM   39  C   UNL     1       7.839  24.664  54.631  1.00  0.00     0.015 C 
HETATM   40  C   UNL     1       7.656  22.814  52.980  1.00  0.00     0.015 C 
ENDBRANCH   7  37
TORSDOF 8
ENDMDL
MODEL 6
REMARK VINA RESULT:      -8.6      1.622      2.358
REMARK  8 active torsions:
REMARK  status: ('A' for Active; 'I' for Inactive)
REMARK    1  A    between atoms: N_4  and  C_6 
REMARK    2  A    between atoms: C_6  and  C_7 
REMARK       I    between atoms: C_7  and  N_8 
REMARK    3  A    between atoms: N_8  and  C_9 
REMARK    4  A    between atoms: C_15  and  C_16 
REMARK    5  A    between atoms: C_21  and  C_22 
REMARK       I    between atoms: C_22  and  N_23 
REMARK    6  A    between atoms: N_23  and  C_24 
REMARK    7  A    between atoms: C_25  and  O_26 
REMARK    8  A    between atoms: C_29  and  O_30 
ROOT
HETATM    1  C   UNL     1       6.711  25.428  52.335  1.00  0.00     0.093 C 
HETATM    2  S   UNL     1       8.190  24.687  51.964  1.00  0.00    -0.075 SA
HETATM    3  C   UNL     1       8.269  23.943  53.478  1.00  0.00    -0.008 C 
HETATM    4  C   UNL     1       7.238  24.320  54.320  1.00  0.00    -0.026 C 
HETATM    5  C   UNL     1       7.226  23.837  55.742  1.00  0.00     0.041 C 
HETATM    6  C   UNL     1       8.507  23.101  56.154  1.00  0.00     0.010 C 
HETATM    7  C   UNL     1       9.101  22.166  55.076  1.00  0.00    -0.002 C 
HETATM    8  C   UNL     1       9.393  23.007  53.807  1.00  0.00     0.052 C 
HETATM    9  C   UNL     1       6.242  25.121  53.615  1.00  0.00     0.073 C 
ENDROOT
BRANCH   9  10
HETATM   10  C   UNL     1       4.877  25.547  54.008  1.00  0.00     0.259 C 
HETATM   11  N   UNL     1       4.732  26.124  55.239  1.00  0.00    -0.320 N 
HETATM   12  H   UNL     1       4.024  25.686  55.822  1.00  0.00     0.169 HD
HETATM   13  O   UNL     1       3.888  25.122  53.404  1.00  0.00    -0.267 OA
BRANCH  11  14
HETATM   14  C   UNL     1       4.848  27.495  55.566  1.00  0.00     0.068 A 
HETATM   15  C   UNL     1       5.780  27.822  56.573  1.00  0.00     0.097 A 
HETATM   16  C   UNL     1       6.044  29.160  56.878  1.00  0.00     0.075 A 
HETATM   17  C   UNL     1       5.382  30.174  56.185  1.00  0.00     0.070 A 
HETATM   18  C   UNL     1       4.420  29.841  55.226  1.00  0.00     0.039 A 
HETATM   19  C   UNL     1       4.140  28.505  54.920  1.00  0.00     0.035 A 
BRANCH  15  20
HETATM   20  O   UNL     1       6.378  26.746  57.190  1.00  0.00    -0.354 OA
HETATM   21  C   UNL     1       7.713  26.936  57.644  1.00  0.00     0.210 C 
ENDBRANCH  15  20
BRANCH  17  22
HETATM   22  O   UNL     1       5.579  31.518  56.350  1.00  0.00    -0.356 OA
HETATM   23  C   UNL     1       5.684  32.002  57.685  1.00  0.00     0.210 C 
ENDBRANCH  17  22
ENDBRANCH  11  14
ENDBRANCH   9  10
BRANCH   1  24
HETATM   24  N   UNL     1       6.031  26.124  51.339  1.00  0.00    -0.319 N 
HETATM   25  C   UNL     1       5.866  27.490  51.295  1.00  0.00     0.248 C 
HETATM   26  O   UNL     1       5.975  28.295  52.222  1.00  0.00    -0.271 OA
HETATM   27  H   UNL     1       5.512  25.524  50.694  1.00  0.00     0.169 HD
BRANCH  25  28
HETATM   28  C   UNL     1       5.548  28.046  49.904  1.00  0.00     0.337 C 
BRANCH  28  29
HETATM   29  N   UNL     1       4.271  27.379  49.363  1.00  0.00    -0.062 N 
HETATM   30  C   UNL     1       3.280  28.379  48.807  1.00  0.00     0.239 C 
HETATM   31  C   UNL     1       1.953  27.665  48.544  1.00  0.00     0.007 C 
HETATM   32  C   UNL     1       0.917  28.639  47.986  1.00  0.00     0.011 C 
HETATM   33  C   UNL     1       2.155  26.480  47.593  1.00  0.00     0.007 C 
HETATM   34  C   UNL     1       3.229  25.527  48.114  1.00  0.00     0.028 C 
HETATM   35  C   UNL     1       4.537  26.245  48.421  1.00  0.00     0.235 C 
HETATM   36  H   UNL     1       3.827  27.005  50.221  1.00  0.00     0.280 HD
ENDBRANCH  28  29
ENDBRANCH  25  28
ENDBRANCH   1  24
BRANCH   7  37
HETATM   37  C   UNL     1       8.349  20.797  54.845  1.00  0.00    -0.047 C 
HETATM   38  C   UNL     1       7.680  20.640  53.469  1.00  0.00     0.015 C 
HETATM   39  C   UNL     1       9.348  19.626  55.003  1.00  0.00     0.015 C 
HETATM   40  C   UNL     1       7.260  20.608  55.926  1.00  0.00     0.015 C 
ENDBRANCH   7  37
TORSDOF 8
ENDMDL
MODEL 7
REMARK VINA RESULT:      -8.6      2.982      7.839
REMARK  8 active torsions:
REMARK  status: ('A' for Active; 'I' for Inactive)
REMARK    1  A    between atoms: N_4  and  C_6 
REMARK    2  A    between atoms: C_6  and  C_7 
REMARK       I    between atoms: C_7  and  N_8 
REMARK    3  A    between atoms: N_8  and  C_9 
REMARK    4  A    between atoms: C_15  and  C_16 
REMARK    5  A    between atoms: C_21  and  C_22 
REMARK       I    between atoms: C_22  and  N_23 
REMARK    6  A    between atoms: N_23  and  C_24 
REMARK    7  A    between atoms: C_25  and  O_26 
REMARK    8  A    between atoms: C_29  and  O_30 
ROOT
HETATM    1  C   UNL     1       5.356  29.202  55.658  1.00  0.00     0.093 C 
HETATM    2  S   UNL     1       6.150  27.910  56.417  1.00  0.00    -0.075 SA
HETATM    3  C   UNL     1       5.709  26.835  55.191  1.00  0.00    -0.008 C 
HETATM    4  C   UNL     1       4.876  27.407  54.246  1.00  0.00    -0.026 C 
HETATM    5  C   UNL     1       4.300  26.554  53.151  1.00  0.00     0.041 C 
HETATM    6  C   UNL     1       4.574  25.056  53.328  1.00  0.00     0.010 C 
HETATM    7  C   UNL     1       5.985  24.705  53.854  1.00  0.00    -0.002 C 
HETATM    8  C   UNL     1       6.189  25.415  55.216  1.00  0.00     0.052 C 
HETATM    9  C   UNL     1       4.745  28.846  54.453  1.00  0.00     0.073 C 
ENDROOT
BRANCH   9  10
HETATM   10  C   UNL     1       4.172  29.907  53.590  1.00  0.00     0.259 C 
HETATM   11  N   UNL     1       4.815  30.171  52.412  1.00  0.00    -0.320 N 
HETATM   12  H   UNL     1       5.060  31.149  52.284  1.00  0.00     0.169 HD
HETATM   13  O   UNL     1       3.359  30.717  54.046  1.00  0.00    -0.267 OA
BRANCH  11  14
HETATM   14  C   UNL     1       4.600  29.556  51.157  1.00  0.00     0.068 A 
HETATM   15  C   UNL     1       5.460  29.951  50.111  1.00  0.00     0.097 A 
HETATM   16  C   UNL     1       5.395  29.312  48.870  1.00  0.00     0.075 A 
HETATM   17  C   UNL     1       4.476  28.282  48.666  1.00  0.00     0.070 A 
HETATM   18  C   UNL     1       3.591  27.933  49.692  1.00  0.00     0.039 A 
HETATM   19  C   UNL     1       3.639  28.573  50.934  1.00  0.00     0.035 A 
BRANCH  15  20
HETATM   20  O   UNL     1       6.329  30.974  50.421  1.00  0.00    -0.354 OA
HETATM   21  C   UNL     1       6.161  32.188  49.698  1.00  0.00     0.210 C 
ENDBRANCH  15  20
BRANCH  17  22
HETATM   22  O   UNL     1       4.340  27.545  47.521  1.00  0.00    -0.356 OA
HETATM   23  C   UNL     1       3.345  26.527  47.517  1.00  0.00     0.210 C 
ENDBRANCH  17  22
ENDBRANCH  11  14
ENDBRANCH   9  10
BRANCH   1  24
HETATM   24  N   UNL     1       5.494  30.485  56.180  1.00  0.00    -0.319 N 
HETATM   25  C   UNL     1       4.984  30.913  57.384  1.00  0.00     0.248 C 
HETATM   26  O   UNL     1       4.081  30.400  58.047  1.00  0.00    -0.271 OA
HETATM   27  H   UNL     1       5.885  31.161  55.519  1.00  0.00     0.169 HD
BRANCH  25  28
HETATM   28  C   UNL     1       5.672  32.155  57.959  1.00  0.00     0.337 C 
BRANCH  28  29
HETATM   29  N   UNL     1       6.069  31.893  59.422  1.00  0.00    -0.062 N 
HETATM   30  C   UNL     1       7.568  31.892  59.629  1.00  0.00     0.239 C 
HETATM   31  C   UNL     1       7.872  31.365  61.033  1.00  0.00     0.007 C 
HETATM   32  C   UNL     1       9.378  31.340  61.287  1.00  0.00     0.011 C 
HETATM   33  C   UNL     1       7.154  32.208  62.095  1.00  0.00     0.007 C 
HETATM   34  C   UNL     1       5.654  32.285  61.820  1.00  0.00     0.028 C 
HETATM   35  C   UNL     1       5.351  32.764  60.406  1.00  0.00     0.235 C 
HETATM   36  H   UNL     1       5.774  30.909  59.567  1.00  0.00     0.280 HD
ENDBRANCH  28  29
ENDBRANCH  25  28
ENDBRANCH   1  24
BRANCH   7  37
HETATM   37  C   UNL     1       7.169  24.834  52.818  1.00  0.00    -0.047 C 
HETATM   38  C   UNL     1       6.750  25.197  51.383  1.00  0.00     0.015 C 
HETATM   39  C   UNL     1       8.156  25.928  53.295  1.00  0.00     0.015 C 
HETATM   40  C   UNL     1       7.962  23.508  52.759  1.00  0.00     0.015 C 
ENDBRANCH   7  37
TORSDOF 8
ENDMDL
MODEL 8
REMARK VINA RESULT:      -8.6      3.842      7.514
REMARK  8 active torsions:
REMARK  status: ('A' for Active; 'I' for Inactive)
REMARK    1  A    between atoms: N_4  and  C_6 
REMARK    2  A    between atoms: C_6  and  C_7 
REMARK       I    between atoms: C_7  and  N_8 
REMARK    3  A    between atoms: N_8  and  C_9 
REMARK    4  A    between atoms: C_15  and  C_16 
REMARK    5  A    between atoms: C_21  and  C_22 
REMARK       I    between atoms: C_22  and  N_23 
REMARK    6  A    between atoms: N_23  and  C_24 
REMARK    7  A    between atoms: C_25  and  O_26 
REMARK    8  A    between atoms: C_29  and  O_30 
ROOT
HETATM    1  C   UNL     1       4.904  29.369  52.079  1.00  0.00     0.093 C 
HETATM    2  S   UNL     1       4.778  28.671  53.619  1.00  0.00    -0.075 SA
HETATM    3  C   UNL     1       4.978  27.112  52.998  1.00  0.00    -0.008 C 
HETATM    4  C   UNL     1       5.042  27.085  51.616  1.00  0.00    -0.026 C 
HETATM    5  C   UNL     1       5.103  25.766  50.901  1.00  0.00     0.041 C 
HETATM    6  C   UNL     1       4.898  24.557  51.821  1.00  0.00     0.010 C 
HETATM    7  C   UNL     1       5.577  24.663  53.206  1.00  0.00    -0.002 C 
HETATM    8  C   UNL     1       5.038  25.930  53.917  1.00  0.00     0.052 C 
HETATM    9  C   UNL     1       5.108  28.434  51.060  1.00  0.00     0.073 C 
ENDROOT
BRANCH   9  10
HETATM   10  C   UNL     1       5.420  28.910  49.691  1.00  0.00     0.259 C 
HETATM   11  N   UNL     1       4.894  28.201  48.647  1.00  0.00    -0.320 N 
HETATM   12  H   UNL     1       5.581  27.900  47.962  1.00  0.00     0.169 HD
HETATM   13  O   UNL     1       6.350  29.699  49.497  1.00  0.00    -0.267 OA
BRANCH  11  14
HETATM   14  C   UNL     1       3.640  28.393  48.023  1.00  0.00     0.068 A 
HETATM   15  C   UNL     1       3.052  27.251  47.438  1.00  0.00     0.097 A 
HETATM   16  C   UNL     1       1.763  27.322  46.902  1.00  0.00     0.075 A 
HETATM   17  C   UNL     1       1.058  28.525  46.945  1.00  0.00     0.070 A 
HETATM   18  C   UNL     1       1.669  29.665  47.478  1.00  0.00     0.039 A 
HETATM   19  C   UNL     1       2.962  29.609  48.007  1.00  0.00     0.035 A 
BRANCH  15  20
HETATM   20  O   UNL     1       3.832  26.117  47.452  1.00  0.00    -0.354 OA
HETATM   21  C   UNL     1       3.172  24.897  47.768  1.00  0.00     0.210 C 
ENDBRANCH  15  20
BRANCH  17  22
HETATM   22  O   UNL     1      -0.222  28.721  46.501  1.00  0.00    -0.356 OA
HETATM   23  C   UNL     1      -0.661  27.924  45.407  1.00  0.00     0.210 C 
ENDBRANCH  17  22
ENDBRANCH  11  14
ENDBRANCH   9  10
BRANCH   1  24
HETATM   24  N   UNL     1       4.950  30.755  51.963  1.00  0.00    -0.319 N 
HETATM   25  C   UNL     1       3.864  31.570  51.738  1.00  0.00     0.248 C 
HETATM   26  O   UNL     1       2.763  31.254  51.285  1.00  0.00    -0.271 OA
HETATM   27  H   UNL     1       5.897  31.136  51.904  1.00  0.00     0.169 HD
BRANCH  25  28
HETATM   28  C   UNL     1       4.072  33.032  52.146  1.00  0.00     0.337 C 
BRANCH  28  29
HETATM   29  N   UNL     1       5.214  33.642  51.314  1.00  0.00    -0.062 N 
HETATM   30  C   UNL     1       5.038  33.416  49.828  1.00  0.00     0.239 C 
HETATM   31  C   UNL     1       6.332  33.812  49.113  1.00  0.00     0.007 C 
HETATM   32  C   UNL     1       6.203  33.596  47.606  1.00  0.00     0.011 C 
HETATM   33  C   UNL     1       6.699  35.268  49.425  1.00  0.00     0.007 C 
HETATM   34  C   UNL     1       6.777  35.508  50.931  1.00  0.00     0.028 C 
HETATM   35  C   UNL     1       5.507  35.071  51.651  1.00  0.00     0.235 C 
HETATM   36  H   UNL     1       6.029  33.059  51.583  1.00  0.00     0.280 HD
ENDBRANCH  28  29
ENDBRANCH  25  28
ENDBRANCH   1  24
BRANCH   7  37
HETATM   37  C   UNL     1       7.142  24.461  53.234  1.00  0.00    -0.047 C 
HETATM   38  C   UNL     1       7.921  25.218  52.145  1.00  0.00     0.015 C 
HETATM   39  C   UNL     1       7.698  24.930  54.601  1.00  0.00     0.015 C 
HETATM   40  C   UNL     1       7.480  22.958  53.102  1.00  0.00     0.015 C 
ENDBRANCH   7  37
TORSDOF 8
ENDMDL
MODEL 9
REMARK VINA RESULT:      -8.4      2.126      7.473
REMARK  8 active torsions:
REMARK  status: ('A' for Active; 'I' for Inactive)
REMARK    1  A    between atoms: N_4  and  C_6 
REMARK    2  A    between atoms: C_6  and  C_7 
REMARK       I    between atoms: C_7  and  N_8 
REMARK    3  A    between atoms: N_8  and  C_9 
REMARK    4  A    between atoms: C_15  and  C_16 
REMARK    5  A    between atoms: C_21  and  C_22 
REMARK       I    between atoms: C_22  and  N_23 
REMARK    6  A    between atoms: N_23  and  C_24 
REMARK    7  A    between atoms: C_25  and  O_26 
REMARK    8  A    between atoms: C_29  and  O_30 
ROOT
HETATM    1  C   UNL     1       5.752  26.866  53.084  1.00  0.00     0.093 C 
HETATM    2  S   UNL     1       5.929  26.379  51.470  1.00  0.00    -0.075 SA
HETATM    3  C   UNL     1       4.715  27.433  50.952  1.00  0.00    -0.008 C 
HETATM    4  C   UNL     1       4.090  28.093  51.997  1.00  0.00    -0.026 C 
HETATM    5  C   UNL     1       2.912  28.980  51.716  1.00  0.00     0.041 C 
HETATM    6  C   UNL     1       2.412  28.901  50.269  1.00  0.00     0.010 C 
HETATM    7  C   UNL     1       3.522  28.810  49.196  1.00  0.00    -0.002 C 
HETATM    8  C   UNL     1       4.387  27.559  49.495  1.00  0.00     0.052 C 
HETATM    9  C   UNL     1       4.772  27.845  53.264  1.00  0.00     0.073 C 
ENDROOT
BRANCH   9  10
HETATM   10  C   UNL     1       4.634  28.498  54.588  1.00  0.00     0.259 C 
HETATM   11  N   UNL     1       4.939  29.828  54.666  1.00  0.00    -0.320 N 
HETATM   12  H   UNL     1       5.619  30.056  55.386  1.00  0.00     0.169 HD
HETATM   13  O   UNL     1       4.557  27.820  55.618  1.00  0.00    -0.267 OA
BRANCH  11  14
HETATM   14  C   UNL     1       4.071  30.924  54.454  1.00  0.00     0.068 A 
HETATM   15  C   UNL     1       3.223  31.267  55.528  1.00  0.00     0.097 A 
HETATM   16  C   UNL     1       2.417  32.405  55.450  1.00  0.00     0.075 A 
HETATM   17  C   UNL     1       2.450  33.203  54.306  1.00  0.00     0.070 A 
HETATM   18  C   UNL     1       3.254  32.826  53.225  1.00  0.00     0.039 A 
HETATM   19  C   UNL     1       4.057  31.683  53.287  1.00  0.00     0.035 A 
BRANCH  15  20
HETATM   20  O   UNL     1       3.270  30.414  56.609  1.00  0.00    -0.354 OA
HETATM   21  C   UNL     1       3.675  30.983  57.848  1.00  0.00     0.210 C 
ENDBRANCH  15  20
BRANCH  17  22
HETATM   22  O   UNL     1       1.751  34.365  54.117  1.00  0.00    -0.356 OA
HETATM   23  C   UNL     1       2.491  35.580  54.133  1.00  0.00     0.210 C 
ENDBRANCH  17  22
ENDBRANCH  11  14
ENDBRANCH   9  10
BRANCH   1  24
HETATM   24  N   UNL     1       6.651  26.397  54.037  1.00  0.00    -0.319 N 
HETATM   25  C   UNL     1       6.504  25.239  54.767  1.00  0.00     0.248 C 
HETATM   26  O   UNL     1       5.471  24.599  54.969  1.00  0.00    -0.271 OA
HETATM   27  H   UNL     1       7.385  27.067  54.281  1.00  0.00     0.169 HD
BRANCH  25  28
HETATM   28  C   UNL     1       7.809  24.688  55.351  1.00  0.00     0.337 C 
BRANCH  28  29
HETATM   29  N   UNL     1       7.758  23.150  55.365  1.00  0.00    -0.062 N 
HETATM   30  C   UNL     1       8.246  22.538  54.070  1.00  0.00     0.239 C 
HETATM   31  C   UNL     1       7.912  21.045  54.074  1.00  0.00     0.007 C 
HETATM   32  C   UNL     1       8.382  20.383  52.780  1.00  0.00     0.011 C 
HETATM   33  C   UNL     1       8.530  20.354  55.295  1.00  0.00     0.007 C 
HETATM   34  C   UNL     1       8.110  21.042  56.592  1.00  0.00     0.028 C 
HETATM   35  C   UNL     1       8.399  22.538  56.572  1.00  0.00     0.235 C 
HETATM   36  H   UNL     1       6.740  22.956  55.391  1.00  0.00     0.280 HD
ENDBRANCH  28  29
ENDBRANCH  25  28
ENDBRANCH   1  24
BRANCH   7  37
HETATM   37  C   UNL     1       4.309  30.143  48.887  1.00  0.00    -0.047 C 
HETATM   38  C   UNL     1       5.653  30.295  49.619  1.00  0.00     0.015 C 
HETATM   39  C   UNL     1       4.603  30.229  47.370  1.00  0.00     0.015 C 
HETATM   40  C   UNL     1       3.432  31.365  49.246  1.00  0.00     0.015 C 
ENDBRANCH   7  37
TORSDOF 8
ENDMDL
MODEL 10
REMARK VINA RESULT:      -8.2      2.914      7.294
REMARK  8 active torsions:
REMARK  status: ('A' for Active; 'I' for Inactive)
REMARK    1  A    between atoms: N_4  and  C_6 
REMARK    2  A    between atoms: C_6  and  C_7 
REMARK       I    between atoms: C_7  and  N_8 
REMARK    3  A    between atoms: N_8  and  C_9 
REMARK    4  A    between atoms: C_15  and  C_16 
REMARK    5  A    between atoms: C_21  and  C_22 
REMARK       I    between atoms: C_22  and  N_23 
REMARK    6  A    between atoms: N_23  and  C_24 
REMARK    7  A    between atoms: C_25  and  O_26 
REMARK    8  A    between atoms: C_29  and  O_30 
ROOT
HETATM    1  C   UNL     1       7.424  28.175  57.573  1.00  0.00     0.093 C 
HETATM    2  S   UNL     1       8.367  26.783  57.355  1.00  0.00    -0.075 SA
HETATM    3  C   UNL     1       7.239  26.109  56.293  1.00  0.00    -0.008 C 
HETATM    4  C   UNL     1       6.093  26.875  56.165  1.00  0.00    -0.026 C 
HETATM    5  C   UNL     1       4.944  26.359  55.347  1.00  0.00     0.041 C 
HETATM    6  C   UNL     1       5.120  24.909  54.882  1.00  0.00     0.010 C 
HETATM    7  C   UNL     1       6.552  24.531  54.439  1.00  0.00    -0.002 C 
HETATM    8  C   UNL     1       7.515  24.797  55.623  1.00  0.00     0.052 C 
HETATM    9  C   UNL     1       6.236  28.162  56.839  1.00  0.00     0.073 C 
ENDROOT
BRANCH   9  10
HETATM   10  C   UNL     1       5.402  29.387  56.786  1.00  0.00     0.259 C 
HETATM   11  N   UNL     1       5.522  30.180  55.679  1.00  0.00    -0.320 N 
HETATM   12  H   UNL     1       5.729  31.153  55.885  1.00  0.00     0.169 HD
HETATM   13  O   UNL     1       4.874  29.831  57.810  1.00  0.00    -0.267 OA
BRANCH  11  14
HETATM   14  C   UNL     1       4.794  30.085  54.470  1.00  0.00     0.068 A 
HETATM   15  C   UNL     1       3.869  31.119  54.214  1.00  0.00     0.097 A 
HETATM   16  C   UNL     1       3.191  31.168  52.993  1.00  0.00     0.075 A 
HETATM   17  C   UNL     1       3.429  30.191  52.026  1.00  0.00     0.070 A 
HETATM   18  C   UNL     1       4.308  29.140  52.309  1.00  0.00     0.039 A 
HETATM   19  C   UNL     1       4.983  29.074  53.532  1.00  0.00     0.035 A 
BRANCH  15  20
HETATM   20  O   UNL     1       3.712  32.031  55.234  1.00  0.00    -0.354 OA
HETATM   21  C   UNL     1       4.173  33.353  54.978  1.00  0.00     0.210 C 
ENDBRANCH  15  20
BRANCH  17  22
HETATM   22  O   UNL     1       2.872  30.147  50.777  1.00  0.00    -0.356 OA
HETATM   23  C   UNL     1       1.969  29.081  50.505  1.00  0.00     0.210 C 
ENDBRANCH  17  22
ENDBRANCH  11  14
ENDBRANCH   9  10
BRANCH   1  24
HETATM   24  N   UNL     1       7.944  29.240  58.304  1.00  0.00    -0.319 N 
HETATM   25  C   UNL     1       9.099  29.924  58.001  1.00  0.00     0.248 C 
HETATM   26  O   UNL     1      10.026  29.558  57.277  1.00  0.00    -0.271 OA
HETATM   27  H   UNL     1       7.479  29.393  59.202  1.00  0.00     0.169 HD
BRANCH  25  28
HETATM   28  C   UNL     1       9.190  31.322  58.622  1.00  0.00     0.337 C 
BRANCH  28  29
HETATM   29  N   UNL     1       8.085  31.488  59.680  1.00  0.00    -0.062 N 
HETATM   30  C   UNL     1       8.613  32.016  60.997  1.00  0.00     0.239 C 
HETATM   31  C   UNL     1       7.512  31.896  62.053  1.00  0.00     0.007 C 
HETATM   32  C   UNL     1       8.002  32.413  63.404  1.00  0.00     0.011 C 
HETATM   33  C   UNL     1       6.250  32.644  61.607  1.00  0.00     0.007 C 
HETATM   34  C   UNL     1       5.783  32.172  60.232  1.00  0.00     0.028 C 
HETATM   35  C   UNL     1       6.891  32.247  59.189  1.00  0.00     0.235 C 
HETATM   36  H   UNL     1       7.805  30.509  59.873  1.00  0.00     0.280 HD
ENDBRANCH  28  29
ENDBRANCH  25  28
ENDBRANCH   1  24
BRANCH   7  37
HETATM   37  C   UNL     1       7.014  25.074  53.030  1.00  0.00    -0.047 C 
HETATM   38  C   UNL     1       5.878  25.366  52.035  1.00  0.00     0.015 C 
HETATM   39  C   UNL     1       7.805  26.391  53.219  1.00  0.00     0.015 C 
HETATM   40  C   UNL     1       7.976  24.061  52.368  1.00  0.00     0.015 C 
ENDBRANCH   7  37
TORSDOF 8
ENDMDL
