MODEL 1
REMARK VINA RESULT:      -7.7      0.000      0.000
REMARK  3 active torsions:
REMARK  status: ('A' for Active; 'I' for Inactive)
REMARK    1  A    between atoms: C_2  and  C_3 
REMARK    2  A    between atoms: C_9  and  C_10 
REMARK    3  A    between atoms: C_21  and  N_22 
ROOT
HETATM    1  C   UNL     1       7.642  23.750  54.866  1.00  0.00     0.066 A 
HETATM    2  N   UNL     1       8.449  22.991  54.104  1.00  0.00    -0.177 NA
HETATM    3  N   UNL     1       8.336  23.519  52.867  1.00  0.00    -0.256 N 
HETATM    4  H   UNL     1       8.852  23.094  52.105  1.00  0.00     0.191 HD
HETATM    5  C   UNL     1       7.481  24.572  52.825  1.00  0.00     0.175 A 
HETATM    6  C   UNL     1       7.029  24.772  54.104  1.00  0.00     0.035 A 
HETATM    7  C   UNL     1       6.050  25.857  54.384  1.00  0.00     0.104 A 
HETATM    8  C   UNL     1       5.583  26.490  53.076  1.00  0.00     0.067 A 
HETATM    9  C   UNL     1       4.384  27.419  53.172  1.00  0.00     0.020 C 
HETATM   10  N   UNL     1       3.389  28.190  53.252  1.00  0.00    -0.096 N 
HETATM   11  C   UNL     1       6.112  26.182  51.861  1.00  0.00     0.139 A 
HETATM   12  O   UNL     1       7.147  25.236  51.724  1.00  0.00    -0.279 OA
ENDROOT
BRANCH   7  13
HETATM   13  C   UNL     1       6.769  26.846  55.294  1.00  0.00    -0.043 A 
HETATM   14  C   UNL     1       7.836  27.646  54.837  1.00  0.00     0.033 A 
HETATM   15  C   UNL     1       8.483  28.546  55.692  1.00  0.00     0.056 A 
HETATM   16 CL   UNL     1       9.789  29.473  55.041  1.00  0.00    -0.083 Cl
HETATM   17  C   UNL     1       8.064  28.669  57.018  1.00  0.00     0.055 A 
HETATM   18 CL   UNL     1       8.814  29.754  58.133  1.00  0.00    -0.083 Cl
HETATM   19  C   UNL     1       6.999  27.891  57.483  1.00  0.00     0.026 A 
HETATM   20  C   UNL     1       6.355  26.991  56.628  1.00  0.00     0.010 A 
ENDBRANCH   7  13
BRANCH  11  21
HETATM   21  N   UNL     1       5.712  26.716  50.658  1.00  0.00    -0.282 NA
HETATM   22  H   UNL     1       4.955  27.393  50.702  1.00  0.00     0.126 HD
HETATM   23  H   UNL     1       6.499  27.034  50.096  1.00  0.00     0.126 HD
ENDBRANCH  11  21
BRANCH   1  24
HETATM   24  C   UNL     1       7.480  23.441  56.317  1.00  0.00     0.057 C 
HETATM   25  C   UNL     1       8.578  24.052  57.173  1.00  0.00     0.011 C 
ENDBRANCH   1  24
TORSDOF 3
ENDMDL
MODEL 2
REMARK VINA RESULT:      -7.5      3.793      5.462
REMARK  3 active torsions:
REMARK  status: ('A' for Active; 'I' for Inactive)
REMARK    1  A    between atoms: C_2  and  C_3 
REMARK    2  A    between atoms: C_9  and  C_10 
REMARK    3  A    between atoms: C_21  and  N_22 
ROOT
HETATM    1  C   UNL     1       8.629  29.558  56.988  1.00  0.00     0.066 A 
HETATM    2  N   UNL     1       8.729  29.989  58.258  1.00  0.00    -0.177 NA
HETATM    3  N   UNL     1       7.451  30.083  58.681  1.00  0.00    -0.256 N 
HETATM    4  H   UNL     1       7.271  30.410  59.624  1.00  0.00     0.191 HD
HETATM    5  C   UNL     1       6.556  29.738  57.721  1.00  0.00     0.175 A 
HETATM    6  C   UNL     1       7.278  29.366  56.616  1.00  0.00     0.035 A 
HETATM    7  C   UNL     1       6.573  28.946  55.375  1.00  0.00     0.104 A 
HETATM    8  C   UNL     1       5.071  29.171  55.526  1.00  0.00     0.067 A 
HETATM    9  C   UNL     1       4.244  29.054  54.256  1.00  0.00     0.020 C 
HETATM   10  N   UNL     1       3.559  28.957  53.202  1.00  0.00    -0.096 N 
HETATM   11  C   UNL     1       4.483  29.563  56.688  1.00  0.00     0.139 A 
HETATM   12  O   UNL     1       5.236  29.795  57.857  1.00  0.00    -0.279 OA
ENDROOT
BRANCH   7  13
HETATM   13  C   UNL     1       6.931  27.480  55.165  1.00  0.00    -0.043 A 
HETATM   14  C   UNL     1       7.339  26.980  53.912  1.00  0.00     0.033 A 
HETATM   15  C   UNL     1       7.661  25.629  53.741  1.00  0.00     0.056 A 
HETATM   16 CL   UNL     1       8.138  25.110  52.163  1.00  0.00    -0.083 Cl
HETATM   17  C   UNL     1       7.591  24.755  54.829  1.00  0.00     0.055 A 
HETATM   18 CL   UNL     1       7.970  23.075  54.697  1.00  0.00    -0.083 Cl
HETATM   19  C   UNL     1       7.200  25.238  56.081  1.00  0.00     0.026 A 
HETATM   20  C   UNL     1       6.877  26.589  56.248  1.00  0.00     0.010 A 
ENDBRANCH   7  13
BRANCH  11  21
HETATM   21  N   UNL     1       3.138  29.792  56.865  1.00  0.00    -0.282 NA
HETATM   22  H   UNL     1       2.624  29.066  57.357  1.00  0.00     0.126 HD
HETATM   23  H   UNL     1       2.950  30.726  57.223  1.00  0.00     0.126 HD
ENDBRANCH  11  21
BRANCH   1  24
HETATM   24  C   UNL     1       9.861  29.364  56.168  1.00  0.00     0.057 C 
HETATM   25  C   UNL     1      11.133  29.698  56.933  1.00  0.00     0.011 C 
ENDBRANCH   1  24
TORSDOF 3
ENDMDL
MODEL 3
REMARK VINA RESULT:      -7.4      1.988      2.909
REMARK  3 active torsions:
REMARK  status: ('A' for Active; 'I' for Inactive)
REMARK    1  A    between atoms: C_2  and  C_3 
REMARK    2  A    between atoms: C_9  and  C_10 
REMARK    3  A    between atoms: C_21  and  N_22 
ROOT
HETATM    1  C   UNL     1       6.417  25.208  55.728  1.00  0.00     0.066 A 
HETATM    2  N   UNL     1       6.479  24.350  54.694  1.00  0.00    -0.177 NA
HETATM    3  N   UNL     1       5.859  24.997  53.684  1.00  0.00    -0.256 N 
HETATM    4  H   UNL     1       5.768  24.531  52.788  1.00  0.00     0.191 HD
HETATM    5  C   UNL     1       5.403  26.221  54.050  1.00  0.00     0.175 A 
HETATM    6  C   UNL     1       5.766  26.409  55.359  1.00  0.00     0.035 A 
HETATM    7  C   UNL     1       5.389  27.665  56.062  1.00  0.00     0.104 A 
HETATM    8  C   UNL     1       4.472  28.504  55.176  1.00  0.00     0.067 A 
HETATM    9  C   UNL     1       3.779  29.677  55.850  1.00  0.00     0.020 C 
HETATM   10  N   UNL     1       3.205  30.651  56.409  1.00  0.00    -0.096 N 
HETATM   11  C   UNL     1       4.178  28.188  53.886  1.00  0.00     0.139 A 
HETATM   12  O   UNL     1       4.711  27.040  53.266  1.00  0.00    -0.279 OA
ENDROOT
BRANCH   7  13
HETATM   13  C   UNL     1       6.699  28.371  56.389  1.00  0.00    -0.043 A 
HETATM   14  C   UNL     1       6.985  28.860  57.680  1.00  0.00     0.033 A 
HETATM   15  C   UNL     1       8.195  29.508  57.957  1.00  0.00     0.056 A 
HETATM   16 CL   UNL     1       8.446  30.083  59.568  1.00  0.00    -0.083 Cl
HETATM   17  C   UNL     1       9.145  29.667  56.947  1.00  0.00     0.055 A 
HETATM   18 CL   UNL     1      10.658  30.458  57.211  1.00  0.00    -0.083 Cl
HETATM   19  C   UNL     1       8.881  29.177  55.665  1.00  0.00     0.026 A 
HETATM   20  C   UNL     1       7.672  28.532  55.389  1.00  0.00     0.010 A 
ENDBRANCH   7  13
BRANCH  11  21
HETATM   21  N   UNL     1       3.346  28.905  53.058  1.00  0.00    -0.282 NA
HETATM   22  H   UNL     1       3.591  28.903  52.072  1.00  0.00     0.126 HD
HETATM   23  H   UNL     1       2.363  28.697  53.225  1.00  0.00     0.126 HD
ENDBRANCH  11  21
BRANCH   1  24
HETATM   24  C   UNL     1       6.981  24.818  57.053  1.00  0.00     0.057 C 
HETATM   25  C   UNL     1       8.429  25.248  57.224  1.00  0.00     0.011 C 
ENDBRANCH   1  24
TORSDOF 3
ENDMDL
MODEL 4
REMARK VINA RESULT:      -7.3      3.207      4.868
REMARK  3 active torsions:
REMARK  status: ('A' for Active; 'I' for Inactive)
REMARK    1  A    between atoms: C_2  and  C_3 
REMARK    2  A    between atoms: C_9  and  C_10 
REMARK    3  A    between atoms: C_21  and  N_22 
ROOT
HETATM    1  C   UNL     1       7.390  28.160  56.779  1.00  0.00     0.066 A 
HETATM    2  N   UNL     1       6.694  28.884  57.673  1.00  0.00    -0.177 NA
HETATM    3  N   UNL     1       5.447  28.941  57.160  1.00  0.00    -0.256 N 
HETATM    4  H   UNL     1       4.734  29.458  57.663  1.00  0.00     0.191 HD
HETATM    5  C   UNL     1       5.339  28.289  55.975  1.00  0.00     0.175 A 
HETATM    6  C   UNL     1       6.569  27.746  55.704  1.00  0.00     0.035 A 
HETATM    7  C   UNL     1       6.780  26.976  54.448  1.00  0.00     0.104 A 
HETATM    8  C   UNL     1       5.541  27.072  53.562  1.00  0.00     0.067 A 
HETATM    9  C   UNL     1       5.699  26.575  52.134  1.00  0.00     0.020 C 
HETATM   10  N   UNL     1       5.830  26.163  50.949  1.00  0.00    -0.096 N 
HETATM   11  C   UNL     1       4.380  27.661  53.955  1.00  0.00     0.139 A 
HETATM   12  O   UNL     1       4.239  28.237  55.233  1.00  0.00    -0.279 OA
ENDROOT
BRANCH   7  13
HETATM   13  C   UNL     1       7.088  25.547  54.879  1.00  0.00    -0.043 A 
HETATM   14  C   UNL     1       7.778  24.645  54.045  1.00  0.00     0.033 A 
HETATM   15  C   UNL     1       8.047  23.336  54.461  1.00  0.00     0.056 A 
HETATM   16 CL   UNL     1       8.887  22.301  53.361  1.00  0.00    -0.083 Cl
HETATM   17  C   UNL     1       7.639  22.911  55.728  1.00  0.00     0.055 A 
HETATM   18 CL   UNL     1       7.933  21.312  56.311  1.00  0.00    -0.083 Cl
HETATM   19  C   UNL     1       6.966  23.799  56.571  1.00  0.00     0.026 A 
HETATM   20  C   UNL     1       6.696  25.106  56.153  1.00  0.00     0.010 A 
ENDBRANCH   7  13
BRANCH  11  21
HETATM   21  N   UNL     1       3.247  27.783  53.185  1.00  0.00    -0.282 NA
HETATM   22  H   UNL     1       3.355  27.570  52.197  1.00  0.00     0.126 HD
HETATM   23  H   UNL     1       2.442  27.323  53.606  1.00  0.00     0.126 HD
ENDBRANCH  11  21
BRANCH   1  24
HETATM   24  C   UNL     1       8.845  27.910  56.994  1.00  0.00     0.057 C 
HETATM   25  C   UNL     1       9.669  29.187  56.970  1.00  0.00     0.011 C 
ENDBRANCH   1  24
TORSDOF 3
ENDMDL
MODEL 5
REMARK VINA RESULT:      -7.2      3.621      5.807
REMARK  3 active torsions:
REMARK  status: ('A' for Active; 'I' for Inactive)
REMARK    1  A    between atoms: C_2  and  C_3 
REMARK    2  A    between atoms: C_9  and  C_10 
REMARK    3  A    between atoms: C_21  and  N_22 
ROOT
HETATM    1  C   UNL     1       5.393  26.743  53.155  1.00  0.00     0.066 A 
HETATM    2  N   UNL     1       5.515  27.815  52.352  1.00  0.00    -0.177 NA
HETATM    3  N   UNL     1       6.522  28.529  52.897  1.00  0.00    -0.256 N 
HETATM    4  H   UNL     1       6.790  29.406  52.464  1.00  0.00     0.191 HD
HETATM    5  C   UNL     1       7.026  27.951  54.016  1.00  0.00     0.175 A 
HETATM    6  C   UNL     1       6.340  26.779  54.204  1.00  0.00     0.035 A 
HETATM    7  C   UNL     1       6.653  25.915  55.374  1.00  0.00     0.104 A 
HETATM    8  C   UNL     1       7.644  26.622  56.296  1.00  0.00     0.067 A 
HETATM    9  C   UNL     1       7.851  25.995  57.665  1.00  0.00     0.020 C 
HETATM   10  N   UNL     1       8.022  25.474  58.801  1.00  0.00    -0.096 N 
HETATM   11  C   UNL     1       8.243  27.804  55.990  1.00  0.00     0.139 A 
HETATM   12  O   UNL     1       7.982  28.472  54.777  1.00  0.00    -0.279 OA
ENDROOT
BRANCH   7  13
HETATM   13  C   UNL     1       7.206  24.615  54.801  1.00  0.00    -0.043 A 
HETATM   14  C   UNL     1       7.113  23.391  55.492  1.00  0.00     0.033 A 
HETATM   15  C   UNL     1       7.630  22.210  54.946  1.00  0.00     0.056 A 
HETATM   16 CL   UNL     1       7.478  20.762  55.878  1.00  0.00    -0.083 Cl
HETATM   17  C   UNL     1       8.240  22.234  53.690  1.00  0.00     0.055 A 
HETATM   18 CL   UNL     1       8.903  20.820  52.953  1.00  0.00    -0.083 Cl
HETATM   19  C   UNL     1       8.328  23.438  52.987  1.00  0.00     0.026 A 
HETATM   20  C   UNL     1       7.813  24.617  53.535  1.00  0.00     0.010 A 
ENDBRANCH   7  13
BRANCH  11  21
HETATM   21  N   UNL     1       9.127  28.483  56.795  1.00  0.00    -0.282 NA
HETATM   22  H   UNL     1       9.059  28.292  57.791  1.00  0.00     0.126 HD
HETATM   23  H   UNL     1      10.082  28.435  56.445  1.00  0.00     0.126 HD
ENDBRANCH  11  21
BRANCH   1  24
HETATM   24  C   UNL     1       4.337  25.724  52.881  1.00  0.00     0.057 C 
HETATM   25  C   UNL     1       4.743  24.736  51.799  1.00  0.00     0.011 C 
ENDBRANCH   1  24
TORSDOF 3
ENDMDL
MODEL 6
REMARK VINA RESULT:      -7.1      4.338      5.956
REMARK  3 active torsions:
REMARK  status: ('A' for Active; 'I' for Inactive)
REMARK    1  A    between atoms: C_2  and  C_3 
REMARK    2  A    between atoms: C_9  and  C_10 
REMARK    3  A    between atoms: C_21  and  N_22 
ROOT
HETATM    1  C   UNL     1       4.469  26.512  48.575  1.00  0.00     0.066 A 
HETATM    2  N   UNL     1       5.082  26.722  47.396  1.00  0.00    -0.177 NA
HETATM    3  N   UNL     1       5.736  27.890  47.561  1.00  0.00    -0.256 N 
HETATM    4  H   UNL     1       6.268  28.268  46.785  1.00  0.00     0.191 HD
HETATM    5  C   UNL     1       5.547  28.425  48.794  1.00  0.00     0.175 A 
HETATM    6  C   UNL     1       4.754  27.551  49.492  1.00  0.00     0.035 A 
HETATM    7  C   UNL     1       4.349  27.868  50.888  1.00  0.00     0.104 A 
HETATM    8  C   UNL     1       4.799  29.279  51.255  1.00  0.00     0.067 A 
HETATM    9  C   UNL     1       4.225  29.853  52.540  1.00  0.00     0.020 C 
HETATM   10  N   UNL     1       3.747  30.329  53.606  1.00  0.00    -0.096 N 
HETATM   11  C   UNL     1       5.579  30.052  50.452  1.00  0.00     0.139 A 
HETATM   12  O   UNL     1       6.032  29.594  49.199  1.00  0.00    -0.279 OA
ENDROOT
BRANCH   7  13
HETATM   13  C   UNL     1       4.991  26.798  51.764  1.00  0.00    -0.043 A 
HETATM   14  C   UNL     1       6.289  26.306  51.517  1.00  0.00     0.033 A 
HETATM   15  C   UNL     1       6.857  25.322  52.335  1.00  0.00     0.056 A 
HETATM   16 CL   UNL     1       8.448  24.774  51.942  1.00  0.00    -0.083 Cl
HETATM   17  C   UNL     1       6.138  24.821  53.422  1.00  0.00     0.055 A 
HETATM   18 CL   UNL     1       6.770  23.605  54.473  1.00  0.00    -0.083 Cl
HETATM   19  C   UNL     1       4.855  25.309  53.687  1.00  0.00     0.026 A 
HETATM   20  C   UNL     1       4.288  26.291  52.868  1.00  0.00     0.010 A 
ENDBRANCH   7  13
BRANCH  11  21
HETATM   21  N   UNL     1       5.994  31.332  50.734  1.00  0.00    -0.282 NA
HETATM   22  H   UNL     1       6.354  31.486  51.673  1.00  0.00     0.126 HD
HETATM   23  H   UNL     1       6.598  31.711  50.008  1.00  0.00     0.126 HD
ENDBRANCH  11  21
BRANCH   1  24
HETATM   24  C   UNL     1       3.607  25.309  48.762  1.00  0.00     0.057 C 
HETATM   25  C   UNL     1       2.892  24.895  47.486  1.00  0.00     0.011 C 
ENDBRANCH   1  24
TORSDOF 3
ENDMDL
MODEL 7
REMARK VINA RESULT:      -6.9     10.191     12.633
REMARK  3 active torsions:
REMARK  status: ('A' for Active; 'I' for Inactive)
REMARK    1  A    between atoms: C_2  and  C_3 
REMARK    2  A    between atoms: C_9  and  C_10 
REMARK    3  A    between atoms: C_21  and  N_22 
ROOT
HETATM    1  C   UNL     1       4.951  34.116  65.270  1.00  0.00     0.066 A 
HETATM    2  N   UNL     1       5.672  34.087  66.405  1.00  0.00    -0.177 NA
HETATM    3  N   UNL     1       6.892  33.661  66.016  1.00  0.00    -0.256 N 
HETATM    4  H   UNL     1       7.616  33.545  66.716  1.00  0.00     0.191 HD
HETATM    5  C   UNL     1       6.959  33.413  64.683  1.00  0.00     0.175 A 
HETATM    6  C   UNL     1       5.730  33.719  64.158  1.00  0.00     0.035 A 
HETATM    7  C   UNL     1       5.476  33.533  62.703  1.00  0.00     0.104 A 
HETATM    8  C   UNL     1       6.670  32.841  62.050  1.00  0.00     0.067 A 
HETATM    9  C   UNL     1       6.457  32.333  60.633  1.00  0.00     0.020 C 
HETATM   10  N   UNL     1       6.279  31.910  59.459  1.00  0.00    -0.096 N 
HETATM   11  C   UNL     1       7.835  32.579  62.700  1.00  0.00     0.139 A 
HETATM   12  O   UNL     1       8.024  32.933  64.051  1.00  0.00    -0.279 OA
ENDROOT
BRANCH   7  13
HETATM   13  C   UNL     1       5.221  34.926  62.140  1.00  0.00    -0.043 A 
HETATM   14  C   UNL     1       5.940  36.056  62.579  1.00  0.00     0.033 A 
HETATM   15  C   UNL     1       5.687  37.326  62.048  1.00  0.00     0.056 A 
HETATM   16 CL   UNL     1       6.613  38.650  62.661  1.00  0.00    -0.083 Cl
HETATM   17  C   UNL     1       4.714  37.484  61.059  1.00  0.00     0.055 A 
HETATM   18 CL   UNL     1       4.343  39.019  60.358  1.00  0.00    -0.083 Cl
HETATM   19  C   UNL     1       4.001  36.371  60.604  1.00  0.00     0.026 A 
HETATM   20  C   UNL     1       4.255  35.103  61.137  1.00  0.00     0.010 A 
ENDBRANCH   7  13
BRANCH  11  21
HETATM   21  N   UNL     1       8.928  31.946  62.156  1.00  0.00    -0.282 NA
HETATM   22  H   UNL     1       9.776  31.960  62.718  1.00  0.00     0.126 HD
HETATM   23  H   UNL     1       8.700  31.019  61.801  1.00  0.00     0.126 HD
ENDBRANCH  11  21
BRANCH   1  24
HETATM   24  C   UNL     1       3.513  34.513  65.312  1.00  0.00     0.057 C 
HETATM   25  C   UNL     1       3.183  35.397  66.504  1.00  0.00     0.011 C 
ENDBRANCH   1  24
TORSDOF 3
ENDMDL
MODEL 8
REMARK VINA RESULT:      -6.9     10.180     12.937
REMARK  3 active torsions:
REMARK  status: ('A' for Active; 'I' for Inactive)
REMARK    1  A    between atoms: C_2  and  C_3 
REMARK    2  A    between atoms: C_9  and  C_10 
REMARK    3  A    between atoms: C_21  and  N_22 
ROOT
HETATM    1  C   UNL     1       5.243  36.884  62.042  1.00  0.00     0.066 A 
HETATM    2  N   UNL     1       4.211  37.387  61.341  1.00  0.00    -0.177 NA
HETATM    3  N   UNL     1       3.614  36.305  60.799  1.00  0.00    -0.256 N 
HETATM    4  H   UNL     1       2.804  36.439  60.205  1.00  0.00     0.191 HD
HETATM    5  C   UNL     1       4.239  35.146  61.125  1.00  0.00     0.175 A 
HETATM    6  C   UNL     1       5.285  35.473  61.950  1.00  0.00     0.035 A 
HETATM    7  C   UNL     1       6.184  34.407  62.468  1.00  0.00     0.104 A 
HETATM    8  C   UNL     1       5.841  33.071  61.815  1.00  0.00     0.067 A 
HETATM    9  C   UNL     1       6.839  31.945  62.028  1.00  0.00     0.020 C 
HETATM   10  N   UNL     1       7.669  31.011  62.204  1.00  0.00    -0.096 N 
HETATM   11  C   UNL     1       4.772  32.889  60.993  1.00  0.00     0.139 A 
HETATM   12  O   UNL     1       3.892  33.943  60.681  1.00  0.00    -0.279 OA
ENDROOT
BRANCH   7  13
HETATM   13  C   UNL     1       5.988  34.392  63.980  1.00  0.00    -0.043 A 
HETATM   14  C   UNL     1       4.761  34.741  64.581  1.00  0.00     0.033 A 
HETATM   15  C   UNL     1       4.605  34.722  65.971  1.00  0.00     0.056 A 
HETATM   16 CL   UNL     1       3.067  35.181  66.612  1.00  0.00    -0.083 Cl
HETATM   17  C   UNL     1       5.673  34.339  66.785  1.00  0.00     0.055 A 
HETATM   18 CL   UNL     1       5.559  34.293  68.508  1.00  0.00    -0.083 Cl
HETATM   19  C   UNL     1       6.892  33.977  66.204  1.00  0.00     0.026 A 
HETATM   20  C   UNL     1       7.046  33.999  64.814  1.00  0.00     0.010 A 
ENDBRANCH   7  13
BRANCH  11  21
HETATM   21  N   UNL     1       4.436  31.709  60.372  1.00  0.00    -0.282 NA
HETATM   22  H   UNL     1       3.620  31.229  60.742  1.00  0.00     0.126 HD
HETATM   23  H   UNL     1       4.420  31.798  59.358  1.00  0.00     0.126 HD
ENDBRANCH  11  21
BRANCH   1  24
HETATM   24  C   UNL     1       6.170  37.803  62.765  1.00  0.00     0.057 C 
HETATM   25  C   UNL     1       5.607  38.274  64.097  1.00  0.00     0.011 C 
ENDBRANCH   1  24
TORSDOF 3
ENDMDL
MODEL 9
REMARK VINA RESULT:      -6.7     10.932     12.693
REMARK  3 active torsions:
REMARK  status: ('A' for Active; 'I' for Inactive)
REMARK    1  A    between atoms: C_2  and  C_3 
REMARK    2  A    between atoms: C_9  and  C_10 
REMARK    3  A    between atoms: C_21  and  N_22 
ROOT
HETATM    1  C   UNL     1       3.229  35.097  60.283  1.00  0.00     0.066 A 
HETATM    2  N   UNL     1       1.999  34.595  60.075  1.00  0.00    -0.177 NA
HETATM    3  N   UNL     1       1.975  33.457  60.799  1.00  0.00    -0.256 N 
HETATM    4  H   UNL     1       1.137  32.886  60.785  1.00  0.00     0.191 HD
HETATM    5  C   UNL     1       3.146  33.222  61.442  1.00  0.00     0.175 A 
HETATM    6  C   UNL     1       3.978  34.274  61.156  1.00  0.00     0.035 A 
HETATM    7  C   UNL     1       5.359  34.300  61.707  1.00  0.00     0.104 A 
HETATM    8  C   UNL     1       5.665  32.982  62.414  1.00  0.00     0.067 A 
HETATM    9  C   UNL     1       7.119  32.743  62.787  1.00  0.00     0.020 C 
HETATM   10  N   UNL     1       8.325  32.545  63.096  1.00  0.00    -0.096 N 
HETATM   11  C   UNL     1       4.740  32.006  62.616  1.00  0.00     0.139 A 
HETATM   12  O   UNL     1       3.408  32.147  62.177  1.00  0.00    -0.279 OA
ENDROOT
BRANCH   7  13
HETATM   13  C   UNL     1       5.413  35.499  62.648  1.00  0.00    -0.043 A 
HETATM   14  C   UNL     1       4.911  35.443  63.963  1.00  0.00     0.033 A 
HETATM   15  C   UNL     1       4.970  36.557  64.808  1.00  0.00     0.056 A 
HETATM   16 CL   UNL     1       4.314  36.393  66.399  1.00  0.00    -0.083 Cl
HETATM   17  C   UNL     1       5.544  37.745  64.353  1.00  0.00     0.055 A 
HETATM   18 CL   UNL     1       5.651  39.162  65.335  1.00  0.00    -0.083 Cl
HETATM   19  C   UNL     1       6.059  37.812  63.055  1.00  0.00     0.026 A 
HETATM   20  C   UNL     1       5.998  36.698  62.211  1.00  0.00     0.010 A 
ENDBRANCH   7  13
BRANCH  11  21
HETATM   21  N   UNL     1       4.975  30.799  63.232  1.00  0.00    -0.282 NA
HETATM   22  H   UNL     1       4.632  30.712  64.185  1.00  0.00     0.126 HD
HETATM   23  H   UNL     1       4.719  30.009  62.643  1.00  0.00     0.126 HD
ENDBRANCH  11  21
BRANCH   1  24
HETATM   24  C   UNL     1       3.642  36.360  59.604  1.00  0.00     0.057 C 
HETATM   25  C   UNL     1       3.013  37.595  60.229  1.00  0.00     0.011 C 
ENDBRANCH   1  24
TORSDOF 3
ENDMDL
MODEL 10
REMARK VINA RESULT:      -6.5      5.411      7.805
REMARK  3 active torsions:
REMARK  status: ('A' for Active; 'I' for Inactive)
REMARK    1  A    between atoms: C_2  and  C_3 
REMARK    2  A    between atoms: C_9  and  C_10 
REMARK    3  A    between atoms: C_21  and  N_22 
ROOT
HETATM    1  C   UNL     1       4.683  31.374  58.105  1.00  0.00     0.066 A 
HETATM    2  N   UNL     1       3.701  30.495  57.840  1.00  0.00    -0.177 NA
HETATM    3  N   UNL     1       4.341  29.319  57.669  1.00  0.00    -0.256 N 
HETATM    4  H   UNL     1       3.797  28.495  57.440  1.00  0.00     0.191 HD
HETATM    5  C   UNL     1       5.686  29.432  57.805  1.00  0.00     0.175 A 
HETATM    6  C   UNL     1       5.948  30.742  58.114  1.00  0.00     0.035 A 
HETATM    7  C   UNL     1       7.353  31.192  58.309  1.00  0.00     0.104 A 
HETATM    8  C   UNL     1       8.317  30.063  57.954  1.00  0.00     0.067 A 
HETATM    9  C   UNL     1       9.783  30.447  57.835  1.00  0.00     0.020 C 
HETATM   10  N   UNL     1      11.000  30.766  57.736  1.00  0.00    -0.096 N 
HETATM   11  C   UNL     1       7.916  28.801  57.646  1.00  0.00     0.139 A 
HETATM   12  O   UNL     1       6.554  28.441  57.632  1.00  0.00    -0.279 OA
ENDROOT
BRANCH   7  13
HETATM   13  C   UNL     1       7.458  31.618  59.769  1.00  0.00    -0.043 A 
HETATM   14  C   UNL     1       6.805  32.765  60.263  1.00  0.00     0.033 A 
HETATM   15  C   UNL     1       6.917  33.139  61.608  1.00  0.00     0.056 A 
HETATM   16 CL   UNL     1       6.089  34.569  62.114  1.00  0.00    -0.083 Cl
HETATM   17  C   UNL     1       7.677  32.362  62.484  1.00  0.00     0.055 A 
HETATM   18 CL   UNL     1       7.865  32.759  64.154  1.00  0.00    -0.083 Cl
HETATM   19  C   UNL     1       8.320  31.214  62.011  1.00  0.00     0.026 A 
HETATM   20  C   UNL     1       8.209  30.843  60.667  1.00  0.00     0.010 A 
ENDBRANCH   7  13
BRANCH  11  21
HETATM   21  N   UNL     1       8.747  27.759  57.305  1.00  0.00    -0.282 NA
HETATM   22  H   UNL     1       9.744  27.953  57.351  1.00  0.00     0.126 HD
HETATM   23  H   UNL     1       8.488  26.891  57.768  1.00  0.00     0.126 HD
ENDBRANCH  11  21
BRANCH   1  24
HETATM   24  C   UNL     1       4.355  32.814  58.323  1.00  0.00     0.057 C 
HETATM   25  C   UNL     1       4.759  33.691  57.148  1.00  0.00     0.011 C 
ENDBRANCH   1  24
TORSDOF 3
ENDMDL
