MODEL 1
REMARK VINA RESULT:      -7.9      0.000      0.000
REMARK  9 active torsions:
REMARK  status: ('A' for Active; 'I' for Inactive)
REMARK    1  A    between atoms: C_2  and  O_3 
REMARK    2  A    between atoms: O_3  and  C_4 
REMARK    3  A    between atoms: C_4  and  C_5 
REMARK    4  A    between atoms: C_11  and  O_12 
REMARK    5  A    between atoms: C_13  and  C_14 
REMARK    6  A    between atoms: C_14  and  N_15 
REMARK    7  A    between atoms: N_22  and  C_23 
REMARK    8  A    between atoms: C_29  and  C_30 
REMARK    9  A    between atoms: C_30  and  N_31 
ROOT
HETATM    1  C   UNL     1       4.867  27.507  53.107  1.00  0.00     0.077 C 
HETATM    2  C   UNL     1       4.612  28.332  54.272  1.00  0.00     0.020 A 
HETATM    3  C   UNL     1       4.308  29.612  53.784  1.00  0.00     0.053 A 
HETATM    4  C   UNL     1       4.042  30.697  54.644  1.00  0.00     0.053 A 
HETATM    5  C   UNL     1       4.158  30.507  56.013  1.00  0.00     0.047 A 
HETATM    6 BR   UNL     1       3.879  31.987  57.163  1.00  0.00    -0.048 Br
HETATM    7  C   UNL     1       4.445  29.248  56.527  1.00  0.00     0.092 A 
HETATM    8  C   UNL     1       4.608  28.110  55.698  1.00  0.00     0.016 A 
HETATM    9  N   UNL     1       4.243  29.544  52.394  1.00  0.00    -0.312 N 
HETATM   10  C   UNL     1       4.700  28.305  51.966  1.00  0.00     0.060 C 
ENDROOT
BRANCH   8  11
HETATM   11  C   UNL     1       4.832  26.745  56.333  1.00  0.00     0.277 C 
BRANCH  11  12
HETATM   12  N   UNL     1       6.248  26.222  56.317  1.00  0.00    -0.063 N 
HETATM   13  H   UNL     1       6.617  26.496  55.389  1.00  0.00     0.280 HD
HETATM   14  C   UNL     1       7.147  26.860  57.364  1.00  0.00     0.261 C 
HETATM   15  C   UNL     1       8.565  26.294  57.233  1.00  0.00     0.195 C 
HETATM   16  O   UNL     1       8.554  24.869  57.367  1.00  0.00    -0.388 OA
HETATM   17  C   UNL     1       7.771  24.247  56.342  1.00  0.00     0.195 C 
HETATM   18  C   UNL     1       6.311  24.707  56.412  1.00  0.00     0.261 C 
ENDBRANCH  11  12
ENDBRANCH   8  11
BRANCH   7  19
HETATM   19  O   UNL     1       4.558  29.080  57.892  1.00  0.00    -0.359 OA
HETATM   20  H   UNL     1       4.538  28.109  58.062  1.00  0.00     0.218 HD
ENDBRANCH   7  19
BRANCH   1  21
HETATM   21  C   UNL     1       5.292  26.103  53.098  1.00  0.00     0.296 C 
HETATM   22  O   UNL     1       4.500  25.180  52.971  1.00  0.00    -0.259 OA
BRANCH  21  23
HETATM   23  O   UNL     1       6.639  25.964  53.216  1.00  0.00    -0.318 OA
BRANCH  23  24
HETATM   24  C   UNL     1       7.301  25.269  52.141  1.00  0.00     0.174 C 
HETATM   25  C   UNL     1       7.818  23.929  52.627  1.00  0.00     0.034 C 
ENDBRANCH  23  24
ENDBRANCH  21  23
ENDBRANCH   1  21
BRANCH  10  26
HETATM   26  C   UNL     1       4.970  27.960  50.523  1.00  0.00     0.293 C 
BRANCH  26  27
HETATM   27  N   UNL     1       3.854  27.265  49.771  1.00  0.00    -0.066 N 
HETATM   28  H   UNL     1       3.232  26.827  50.462  1.00  0.00     0.280 HD
HETATM   29  C   UNL     1       3.011  28.195  48.931  1.00  0.00     0.235 C 
HETATM   30  C   UNL     1       1.845  27.418  48.335  1.00  0.00     0.028 C 
HETATM   31  C   UNL     1       2.318  26.218  47.524  1.00  0.00     0.003 C 
HETATM   32  C   UNL     1       3.241  25.326  48.346  1.00  0.00     0.028 C 
HETATM   33  C   UNL     1       4.398  26.113  48.944  1.00  0.00     0.235 C 
ENDBRANCH  26  27
ENDBRANCH  10  26
BRANCH   9  34
HETATM   34  C   UNL     1       3.844  30.607  51.541  1.00  0.00     0.040 A 
HETATM   35  C   UNL     1       4.811  31.435  50.961  1.00  0.00     0.030 A 
HETATM   36  C   UNL     1       4.416  32.422  50.058  1.00  0.00     0.002 A 
HETATM   37  C   UNL     1       3.067  32.583  49.742  1.00  0.00     0.000 A 
HETATM   38  C   UNL     1       2.104  31.763  50.331  1.00  0.00     0.002 A 
HETATM   39  C   UNL     1       2.487  30.771  51.231  1.00  0.00     0.030 A 
ENDBRANCH   9  34
TORSDOF 9
ENDMDL
MODEL 2
REMARK VINA RESULT:      -7.8      2.673      5.423
REMARK  9 active torsions:
REMARK  status: ('A' for Active; 'I' for Inactive)
REMARK    1  A    between atoms: C_2  and  O_3 
REMARK    2  A    between atoms: O_3  and  C_4 
REMARK    3  A    between atoms: C_4  and  C_5 
REMARK    4  A    between atoms: C_11  and  O_12 
REMARK    5  A    between atoms: C_13  and  C_14 
REMARK    6  A    between atoms: C_14  and  N_15 
REMARK    7  A    between atoms: N_22  and  C_23 
REMARK    8  A    between atoms: C_29  and  C_30 
REMARK    9  A    between atoms: C_30  and  N_31 
ROOT
HETATM    1  C   UNL     1       5.975  28.683  55.449  1.00  0.00     0.077 C 
HETATM    2  C   UNL     1       4.884  29.630  55.318  1.00  0.00     0.020 A 
HETATM    3  C   UNL     1       4.637  29.751  53.942  1.00  0.00     0.053 A 
HETATM    4  C   UNL     1       3.658  30.628  53.433  1.00  0.00     0.053 A 
HETATM    5  C   UNL     1       2.971  31.448  54.317  1.00  0.00     0.047 A 
HETATM    6 BR   UNL     1       1.713  32.682  53.623  1.00  0.00    -0.048 Br
HETATM    7  C   UNL     1       3.185  31.341  55.686  1.00  0.00     0.092 A 
HETATM    8  C   UNL     1       4.080  30.393  56.242  1.00  0.00     0.016 A 
HETATM    9  N   UNL     1       5.437  28.828  53.272  1.00  0.00    -0.312 N 
HETATM   10  C   UNL     1       6.339  28.262  54.162  1.00  0.00     0.060 C 
ENDROOT
BRANCH   8  11
HETATM   11  C   UNL     1       4.198  30.269  57.755  1.00  0.00     0.277 C 
BRANCH  11  12
HETATM   12  N   UNL     1       4.743  31.473  58.485  1.00  0.00    -0.063 N 
HETATM   13  H   UNL     1       4.729  32.232  57.782  1.00  0.00     0.280 HD
HETATM   14  C   UNL     1       3.878  31.924  59.650  1.00  0.00     0.261 C 
HETATM   15  C   UNL     1       4.494  33.172  60.291  1.00  0.00     0.195 C 
HETATM   16  O   UNL     1       5.835  32.910  60.720  1.00  0.00    -0.388 OA
HETATM   17  C   UNL     1       6.682  32.555  59.621  1.00  0.00     0.195 C 
HETATM   18  C   UNL     1       6.182  31.280  58.932  1.00  0.00     0.261 C 
ENDBRANCH  11  12
ENDBRANCH   8  11
BRANCH   7  19
HETATM   19  O   UNL     1       2.493  32.166  56.550  1.00  0.00    -0.359 OA
HETATM   20  H   UNL     1       2.825  33.081  56.396  1.00  0.00     0.218 HD
ENDBRANCH   7  19
BRANCH   1  21
HETATM   21  C   UNL     1       6.643  28.274  56.689  1.00  0.00     0.296 C 
HETATM   22  O   UNL     1       6.240  27.344  57.375  1.00  0.00    -0.259 OA
BRANCH  21  23
HETATM   23  O   UNL     1       7.748  29.018  56.959  1.00  0.00    -0.318 OA
BRANCH  23  24
HETATM   24  C   UNL     1       8.992  28.296  57.048  1.00  0.00     0.174 C 
HETATM   25  C   UNL     1      10.160  29.263  57.011  1.00  0.00     0.034 C 
ENDBRANCH  23  24
ENDBRANCH  21  23
ENDBRANCH   1  21
BRANCH  10  26
HETATM   26  C   UNL     1       7.494  27.384  53.745  1.00  0.00     0.293 C 
BRANCH  26  27
HETATM   27  N   UNL     1       7.222  25.896  53.666  1.00  0.00    -0.066 N 
HETATM   28  H   UNL     1       6.209  25.767  53.545  1.00  0.00     0.280 HD
HETATM   29  C   UNL     1       7.905  25.212  52.507  1.00  0.00     0.235 C 
HETATM   30  C   UNL     1       7.454  23.759  52.443  1.00  0.00     0.028 C 
HETATM   31  C   UNL     1       7.718  23.024  53.752  1.00  0.00     0.003 C 
HETATM   32  C   UNL     1       7.102  23.765  54.933  1.00  0.00     0.028 C 
HETATM   33  C   UNL     1       7.552  25.217  54.983  1.00  0.00     0.235 C 
ENDBRANCH  26  27
ENDBRANCH  10  26
BRANCH   9  34
HETATM   34  C   UNL     1       5.387  28.563  51.879  1.00  0.00     0.040 A 
HETATM   35  C   UNL     1       4.917  27.327  51.421  1.00  0.00     0.030 A 
HETATM   36  C   UNL     1       4.791  27.107  50.049  1.00  0.00     0.002 A 
HETATM   37  C   UNL     1       5.138  28.110  49.144  1.00  0.00     0.000 A 
HETATM   38  C   UNL     1       5.618  29.336  49.603  1.00  0.00     0.002 A 
HETATM   39  C   UNL     1       5.744  29.570  50.971  1.00  0.00     0.030 A 
ENDBRANCH   9  34
TORSDOF 9
ENDMDL
MODEL 3
REMARK VINA RESULT:      -7.7      2.497      4.428
REMARK  9 active torsions:
REMARK  status: ('A' for Active; 'I' for Inactive)
REMARK    1  A    between atoms: C_2  and  O_3 
REMARK    2  A    between atoms: O_3  and  C_4 
REMARK    3  A    between atoms: C_4  and  C_5 
REMARK    4  A    between atoms: C_11  and  O_12 
REMARK    5  A    between atoms: C_13  and  C_14 
REMARK    6  A    between atoms: C_14  and  N_15 
REMARK    7  A    between atoms: N_22  and  C_23 
REMARK    8  A    between atoms: C_29  and  C_30 
REMARK    9  A    between atoms: C_30  and  N_31 
ROOT
HETATM    1  C   UNL     1       4.802  28.405  55.068  1.00  0.00     0.077 C 
HETATM    2  C   UNL     1       4.718  29.852  55.099  1.00  0.00     0.020 A 
HETATM    3  C   UNL     1       4.364  30.249  53.801  1.00  0.00     0.053 A 
HETATM    4  C   UNL     1       4.229  31.607  53.445  1.00  0.00     0.053 A 
HETATM    5  C   UNL     1       4.529  32.578  54.390  1.00  0.00     0.047 A 
HETATM    6 BR   UNL     1       4.425  34.401  53.886  1.00  0.00    -0.048 Br
HETATM    7  C   UNL     1       4.869  32.215  55.688  1.00  0.00     0.092 A 
HETATM    8  C   UNL     1       4.906  30.863  56.112  1.00  0.00     0.016 A 
HETATM    9  N   UNL     1       4.109  29.105  53.049  1.00  0.00    -0.312 N 
HETATM   10  C   UNL     1       4.490  27.981  53.768  1.00  0.00     0.060 C 
ENDROOT
BRANCH   8  11
HETATM   11  C   UNL     1       5.198  30.542  57.571  1.00  0.00     0.277 C 
BRANCH  11  12
HETATM   12  N   UNL     1       6.565  30.932  58.082  1.00  0.00    -0.063 N 
HETATM   13  H   UNL     1       6.952  31.549  57.346  1.00  0.00     0.280 HD
HETATM   14  C   UNL     1       6.528  31.738  59.370  1.00  0.00     0.261 C 
HETATM   15  C   UNL     1       7.956  32.117  59.776  1.00  0.00     0.195 C 
HETATM   16  O   UNL     1       8.767  30.947  59.926  1.00  0.00    -0.388 OA
HETATM   17  C   UNL     1       8.873  30.216  58.699  1.00  0.00     0.195 C 
HETATM   18  C   UNL     1       7.496  29.740  58.224  1.00  0.00     0.261 C 
ENDBRANCH  11  12
ENDBRANCH   8  11
BRANCH   7  19
HETATM   19  O   UNL     1       5.165  33.195  56.613  1.00  0.00    -0.359 OA
HETATM   20  H   UNL     1       5.774  32.788  57.273  1.00  0.00     0.218 HD
ENDBRANCH   7  19
BRANCH   1  21
HETATM   21  C   UNL     1       5.207  27.522  56.167  1.00  0.00     0.296 C 
HETATM   22  O   UNL     1       4.416  27.120  57.010  1.00  0.00    -0.259 OA
BRANCH  21  23
HETATM   23  O   UNL     1       6.525  27.194  56.117  1.00  0.00    -0.318 OA
BRANCH  23  24
HETATM   24  C   UNL     1       6.983  26.256  57.111  1.00  0.00     0.174 C 
HETATM   25  C   UNL     1       8.498  26.189  57.105  1.00  0.00     0.034 C 
ENDBRANCH  23  24
ENDBRANCH  21  23
ENDBRANCH   1  21
BRANCH  10  26
HETATM   26  C   UNL     1       4.557  26.591  53.185  1.00  0.00     0.293 C 
BRANCH  26  27
HETATM   27  N   UNL     1       5.882  25.867  53.307  1.00  0.00    -0.066 N 
HETATM   28  H   UNL     1       6.516  26.460  53.857  1.00  0.00     0.280 HD
HETATM   29  C   UNL     1       5.787  24.534  54.011  1.00  0.00     0.235 C 
HETATM   30  C   UNL     1       7.186  23.964  54.200  1.00  0.00     0.028 C 
HETATM   31  C   UNL     1       7.931  23.837  52.875  1.00  0.00     0.003 C 
HETATM   32  C   UNL     1       7.948  25.163  52.125  1.00  0.00     0.028 C 
HETATM   33  C   UNL     1       6.547  25.729  51.949  1.00  0.00     0.235 C 
ENDBRANCH  26  27
ENDBRANCH  10  26
BRANCH   9  34
HETATM   34  C   UNL     1       3.609  29.094  51.720  1.00  0.00     0.040 A 
HETATM   35  C   UNL     1       4.498  29.013  50.642  1.00  0.00     0.030 A 
HETATM   36  C   UNL     1       3.995  28.916  49.345  1.00  0.00     0.002 A 
HETATM   37  C   UNL     1       2.617  28.907  49.127  1.00  0.00     0.000 A 
HETATM   38  C   UNL     1       1.734  29.001  50.202  1.00  0.00     0.002 A 
HETATM   39  C   UNL     1       2.225  29.093  51.503  1.00  0.00     0.030 A 
ENDBRANCH   9  34
TORSDOF 9
ENDMDL
MODEL 4
REMARK VINA RESULT:      -7.6      3.496      7.991
REMARK  9 active torsions:
REMARK  status: ('A' for Active; 'I' for Inactive)
REMARK    1  A    between atoms: C_2  and  O_3 
REMARK    2  A    between atoms: O_3  and  C_4 
REMARK    3  A    between atoms: C_4  and  C_5 
REMARK    4  A    between atoms: C_11  and  O_12 
REMARK    5  A    between atoms: C_13  and  C_14 
REMARK    6  A    between atoms: C_14  and  N_15 
REMARK    7  A    between atoms: N_22  and  C_23 
REMARK    8  A    between atoms: C_29  and  C_30 
REMARK    9  A    between atoms: C_30  and  N_31 
ROOT
HETATM    1  C   UNL     1       5.122  29.438  56.077  1.00  0.00     0.077 C 
HETATM    2  C   UNL     1       4.484  29.626  54.789  1.00  0.00     0.020 A 
HETATM    3  C   UNL     1       4.990  28.619  53.953  1.00  0.00     0.053 A 
HETATM    4  C   UNL     1       4.619  28.516  52.598  1.00  0.00     0.053 A 
HETATM    5  C   UNL     1       3.784  29.484  52.058  1.00  0.00     0.047 A 
HETATM    6 BR   UNL     1       3.350  29.388  50.216  1.00  0.00    -0.048 Br
HETATM    7  C   UNL     1       3.256  30.485  52.864  1.00  0.00     0.092 A 
HETATM    8  C   UNL     1       3.518  30.555  54.255  1.00  0.00     0.016 A 
HETATM    9  N   UNL     1       5.790  27.776  54.721  1.00  0.00    -0.312 N 
HETATM   10  C   UNL     1       5.977  28.330  55.980  1.00  0.00     0.060 C 
ENDROOT
BRANCH   8  11
HETATM   11  C   UNL     1       2.834  31.626  55.094  1.00  0.00     0.277 C 
BRANCH  11  12
HETATM   12  N   UNL     1       3.334  33.039  54.915  1.00  0.00    -0.063 N 
HETATM   13  H   UNL     1       2.836  33.387  54.076  1.00  0.00     0.280 HD
HETATM   14  C   UNL     1       2.976  33.965  56.065  1.00  0.00     0.261 C 
HETATM   15  C   UNL     1       3.490  35.377  55.764  1.00  0.00     0.195 C 
HETATM   16  O   UNL     1       4.903  35.364  55.537  1.00  0.00    -0.388 OA
HETATM   17  C   UNL     1       5.251  34.554  54.408  1.00  0.00     0.195 C 
HETATM   18  C   UNL     1       4.825  33.098  54.626  1.00  0.00     0.261 C 
ENDBRANCH  11  12
ENDBRANCH   8  11
BRANCH   7  19
HETATM   19  O   UNL     1       2.428  31.440  52.309  1.00  0.00    -0.359 OA
HETATM   20  H   UNL     1       1.514  31.074  52.335  1.00  0.00     0.218 HD
ENDBRANCH   7  19
BRANCH   1  21
HETATM   21  C   UNL     1       4.972  30.283  57.267  1.00  0.00     0.296 C 
HETATM   22  O   UNL     1       4.086  30.103  58.091  1.00  0.00    -0.259 OA
BRANCH  21  23
HETATM   23  O   UNL     1       5.929  31.246  57.350  1.00  0.00    -0.318 OA
BRANCH  23  24
HETATM   24  C   UNL     1       5.626  32.369  58.200  1.00  0.00     0.174 C 
HETATM   25  C   UNL     1       6.482  32.321  59.451  1.00  0.00     0.034 C 
ENDBRANCH  23  24
ENDBRANCH  21  23
ENDBRANCH   1  21
BRANCH  10  26
HETATM   26  C   UNL     1       6.957  27.800  56.996  1.00  0.00     0.293 C 
BRANCH  26  27
HETATM   27  N   UNL     1       8.319  28.463  57.037  1.00  0.00    -0.066 N 
HETATM   28  H   UNL     1       9.020  27.732  57.212  1.00  0.00     0.280 HD
HETATM   29  C   UNL     1       8.700  29.154  55.749  1.00  0.00     0.235 C 
HETATM   30  C   UNL     1      10.132  29.660  55.854  1.00  0.00     0.028 C 
HETATM   31  C   UNL     1      10.321  30.582  57.053  1.00  0.00     0.003 C 
HETATM   32  C   UNL     1       9.853  29.914  58.340  1.00  0.00     0.028 C 
HETATM   33  C   UNL     1       8.425  29.404  58.222  1.00  0.00     0.235 C 
ENDBRANCH  26  27
ENDBRANCH  10  26
BRANCH   9  34
HETATM   34  C   UNL     1       6.386  26.572  54.262  1.00  0.00     0.040 A 
HETATM   35  C   UNL     1       5.858  25.338  54.658  1.00  0.00     0.030 A 
HETATM   36  C   UNL     1       6.395  24.162  54.135  1.00  0.00     0.002 A 
HETATM   37  C   UNL     1       7.454  24.219  53.229  1.00  0.00     0.000 A 
HETATM   38  C   UNL     1       7.987  25.450  52.845  1.00  0.00     0.002 A 
HETATM   39  C   UNL     1       7.455  26.631  53.358  1.00  0.00     0.030 A 
ENDBRANCH   9  34
TORSDOF 9
ENDMDL
MODEL 5
REMARK VINA RESULT:      -7.5      3.612      8.523
REMARK  9 active torsions:
REMARK  status: ('A' for Active; 'I' for Inactive)
REMARK    1  A    between atoms: C_2  and  O_3 
REMARK    2  A    between atoms: O_3  and  C_4 
REMARK    3  A    between atoms: C_4  and  C_5 
REMARK    4  A    between atoms: C_11  and  O_12 
REMARK    5  A    between atoms: C_13  and  C_14 
REMARK    6  A    between atoms: C_14  and  N_15 
REMARK    7  A    between atoms: N_22  and  C_23 
REMARK    8  A    between atoms: C_29  and  C_30 
REMARK    9  A    between atoms: C_30  and  N_31 
ROOT
HETATM    1  C   UNL     1       4.891  29.107  51.533  1.00  0.00     0.077 C 
HETATM    2  C   UNL     1       4.257  28.327  50.487  1.00  0.00     0.020 A 
HETATM    3  C   UNL     1       4.748  27.020  50.625  1.00  0.00     0.053 A 
HETATM    4  C   UNL     1       4.377  25.985  49.743  1.00  0.00     0.053 A 
HETATM    5  C   UNL     1       3.559  26.289  48.664  1.00  0.00     0.047 A 
HETATM    6 BR   UNL     1       3.127  24.914  47.434  1.00  0.00    -0.048 Br
HETATM    7  C   UNL     1       3.047  27.571  48.508  1.00  0.00     0.092 A 
HETATM    8  C   UNL     1       3.308  28.609  49.438  1.00  0.00     0.016 A 
HETATM    9  N   UNL     1       5.532  26.967  51.775  1.00  0.00    -0.312 N 
HETATM   10  C   UNL     1       5.727  28.251  52.265  1.00  0.00     0.060 C 
ENDROOT
BRANCH   8  11
HETATM   11  C   UNL     1       2.641  29.966  49.255  1.00  0.00     0.277 C 
BRANCH  11  12
HETATM   12  N   UNL     1       2.933  30.687  47.961  1.00  0.00    -0.063 N 
HETATM   13  H   UNL     1       2.539  30.073  47.226  1.00  0.00     0.280 HD
HETATM   14  C   UNL     1       2.238  32.033  47.841  1.00  0.00     0.261 C 
HETATM   15  C   UNL     1       2.565  32.658  46.481  1.00  0.00     0.195 C 
HETATM   16  O   UNL     1       3.980  32.794  46.313  1.00  0.00    -0.388 OA
HETATM   17  C   UNL     1       4.642  31.525  46.349  1.00  0.00     0.195 C 
HETATM   18  C   UNL     1       4.423  30.829  47.696  1.00  0.00     0.261 C 
ENDBRANCH  11  12
ENDBRANCH   8  11
BRANCH   7  19
HETATM   19  O   UNL     1       2.236  27.855  47.428  1.00  0.00    -0.359 OA
HETATM   20  H   UNL     1       1.608  28.556  47.720  1.00  0.00     0.218 HD
ENDBRANCH   7  19
BRANCH   1  21
HETATM   21  C   UNL     1       4.753  30.549  51.763  1.00  0.00     0.296 C 
HETATM   22  O   UNL     1       5.241  31.382  51.012  1.00  0.00    -0.259 OA
BRANCH  21  23
HETATM   23  O   UNL     1       4.013  30.834  52.868  1.00  0.00    -0.318 OA
BRANCH  23  24
HETATM   24  C   UNL     1       3.981  32.218  53.269  1.00  0.00     0.174 C 
HETATM   25  C   UNL     1       4.456  32.356  54.703  1.00  0.00     0.034 C 
ENDBRANCH  23  24
ENDBRANCH  21  23
ENDBRANCH   1  21
BRANCH  10  26
HETATM   26  C   UNL     1       6.697  28.593  53.369  1.00  0.00     0.293 C 
BRANCH  26  27
HETATM   27  N   UNL     1       6.100  29.108  54.662  1.00  0.00    -0.066 N 
HETATM   28  H   UNL     1       5.822  30.087  54.513  1.00  0.00     0.280 HD
HETATM   29  C   UNL     1       4.870  28.354  55.110  1.00  0.00     0.235 C 
HETATM   30  C   UNL     1       4.277  29.040  56.334  1.00  0.00     0.028 C 
HETATM   31  C   UNL     1       5.294  29.162  57.464  1.00  0.00     0.003 C 
HETATM   32  C   UNL     1       6.569  29.845  56.986  1.00  0.00     0.028 C 
HETATM   33  C   UNL     1       7.149  29.158  55.758  1.00  0.00     0.235 C 
ENDBRANCH  26  27
ENDBRANCH  10  26
BRANCH   9  34
HETATM   34  C   UNL     1       6.109  25.789  52.318  1.00  0.00     0.040 A 
HETATM   35  C   UNL     1       7.302  25.287  51.785  1.00  0.00     0.030 A 
HETATM   36  C   UNL     1       7.906  24.180  52.380  1.00  0.00     0.002 A 
HETATM   37  C   UNL     1       7.321  23.576  53.493  1.00  0.00     0.000 A 
HETATM   38  C   UNL     1       6.125  24.071  54.015  1.00  0.00     0.002 A 
HETATM   39  C   UNL     1       5.515  25.180  53.432  1.00  0.00     0.030 A 
ENDBRANCH   9  34
TORSDOF 9
ENDMDL
MODEL 6
REMARK VINA RESULT:      -7.4      2.781      5.671
REMARK  9 active torsions:
REMARK  status: ('A' for Active; 'I' for Inactive)
REMARK    1  A    between atoms: C_2  and  O_3 
REMARK    2  A    between atoms: O_3  and  C_4 
REMARK    3  A    between atoms: C_4  and  C_5 
REMARK    4  A    between atoms: C_11  and  O_12 
REMARK    5  A    between atoms: C_13  and  C_14 
REMARK    6  A    between atoms: C_14  and  N_15 
REMARK    7  A    between atoms: N_22  and  C_23 
REMARK    8  A    between atoms: C_29  and  C_30 
REMARK    9  A    between atoms: C_30  and  N_31 
ROOT
HETATM    1  C   UNL     1       5.431  28.831  54.549  1.00  0.00     0.077 C 
HETATM    2  C   UNL     1       6.199  27.603  54.617  1.00  0.00     0.020 A 
HETATM    3  C   UNL     1       6.140  27.036  53.335  1.00  0.00     0.053 A 
HETATM    4  C   UNL     1       6.748  25.800  53.037  1.00  0.00     0.053 A 
HETATM    5  C   UNL     1       7.359  25.091  54.061  1.00  0.00     0.047 A 
HETATM    6 BR   UNL     1       8.104  23.392  53.674  1.00  0.00    -0.048 Br
HETATM    7  C   UNL     1       7.443  25.632  55.338  1.00  0.00     0.092 A 
HETATM    8  C   UNL     1       6.942  26.921  55.649  1.00  0.00     0.016 A 
HETATM    9  N   UNL     1       5.490  27.932  52.490  1.00  0.00    -0.312 N 
HETATM   10  C   UNL     1       4.948  28.968  53.239  1.00  0.00     0.060 C 
ENDROOT
BRANCH   8  11
HETATM   11  C   UNL     1       7.149  27.490  57.046  1.00  0.00     0.277 C 
BRANCH  11  12
HETATM   12  N   UNL     1       8.004  28.731  57.144  1.00  0.00    -0.063 N 
HETATM   13  H   UNL     1       7.630  29.364  56.415  1.00  0.00     0.280 HD
HETATM   14  C   UNL     1       7.878  29.456  58.474  1.00  0.00     0.261 C 
HETATM   15  C   UNL     1       8.748  30.717  58.453  1.00  0.00     0.195 C 
HETATM   16  O   UNL     1      10.113  30.386  58.176  1.00  0.00    -0.388 OA
HETATM   17  C   UNL     1      10.258  29.769  56.893  1.00  0.00     0.195 C 
HETATM   18  C   UNL     1       9.464  28.460  56.819  1.00  0.00     0.261 C 
ENDBRANCH  11  12
ENDBRANCH   8  11
BRANCH   7  19
HETATM   19  O   UNL     1       8.053  24.911  56.345  1.00  0.00    -0.359 OA
HETATM   20  H   UNL     1       8.237  24.014  55.981  1.00  0.00     0.218 HD
ENDBRANCH   7  19
BRANCH   1  21
HETATM   21  C   UNL     1       5.137  29.750  55.654  1.00  0.00     0.296 C 
HETATM   22  O   UNL     1       5.870  30.687  55.939  1.00  0.00    -0.259 OA
BRANCH  21  23
HETATM   23  O   UNL     1       3.971  29.454  56.286  1.00  0.00    -0.318 OA
BRANCH  23  24
HETATM   24  C   UNL     1       3.214  30.576  56.779  1.00  0.00     0.174 C 
HETATM   25  C   UNL     1       3.492  30.783  58.256  1.00  0.00     0.034 C 
ENDBRANCH  23  24
ENDBRANCH  21  23
ENDBRANCH   1  21
BRANCH  10  26
HETATM   26  C   UNL     1       3.998  30.000  52.684  1.00  0.00     0.293 C 
BRANCH  26  27
HETATM   27  N   UNL     1       4.538  31.406  52.528  1.00  0.00    -0.066 N 
HETATM   28  H   UNL     1       5.524  31.400  52.821  1.00  0.00     0.280 HD
HETATM   29  C   UNL     1       4.494  31.923  51.110  1.00  0.00     0.235 C 
HETATM   30  C   UNL     1       5.185  33.279  51.046  1.00  0.00     0.028 C 
HETATM   31  C   UNL     1       4.566  34.277  52.019  1.00  0.00     0.003 C 
HETATM   32  C   UNL     1       4.531  33.717  53.435  1.00  0.00     0.028 C 
HETATM   33  C   UNL     1       3.847  32.359  53.487  1.00  0.00     0.235 C 
ENDBRANCH  26  27
ENDBRANCH  10  26
BRANCH   9  34
HETATM   34  C   UNL     1       5.339  27.772  51.088  1.00  0.00     0.040 A 
HETATM   35  C   UNL     1       4.657  26.659  50.584  1.00  0.00     0.030 A 
HETATM   36  C   UNL     1       4.439  26.553  49.210  1.00  0.00     0.002 A 
HETATM   37  C   UNL     1       4.903  27.547  48.348  1.00  0.00     0.000 A 
HETATM   38  C   UNL     1       5.593  28.650  48.853  1.00  0.00     0.002 A 
HETATM   39  C   UNL     1       5.813  28.769  50.224  1.00  0.00     0.030 A 
ENDBRANCH   9  34
TORSDOF 9
ENDMDL
MODEL 7
REMARK VINA RESULT:      -7.4      2.060      6.781
REMARK  9 active torsions:
REMARK  status: ('A' for Active; 'I' for Inactive)
REMARK    1  A    between atoms: C_2  and  O_3 
REMARK    2  A    between atoms: O_3  and  C_4 
REMARK    3  A    between atoms: C_4  and  C_5 
REMARK    4  A    between atoms: C_11  and  O_12 
REMARK    5  A    between atoms: C_13  and  C_14 
REMARK    6  A    between atoms: C_14  and  N_15 
REMARK    7  A    between atoms: N_22  and  C_23 
REMARK    8  A    between atoms: C_29  and  C_30 
REMARK    9  A    between atoms: C_30  and  N_31 
ROOT
HETATM    1  C   UNL     1       5.047  27.720  53.457  1.00  0.00     0.077 C 
HETATM    2  C   UNL     1       4.716  28.943  52.752  1.00  0.00     0.020 A 
HETATM    3  C   UNL     1       4.439  29.899  53.741  1.00  0.00     0.053 A 
HETATM    4  C   UNL     1       4.037  31.211  53.420  1.00  0.00     0.053 A 
HETATM    5  C   UNL     1       3.839  31.542  52.087  1.00  0.00     0.047 A 
HETATM    6 BR   UNL     1       3.221  33.282  51.664  1.00  0.00    -0.048 Br
HETATM    7  C   UNL     1       4.118  30.621  51.085  1.00  0.00     0.092 A 
HETATM    8  C   UNL     1       4.631  29.329  51.364  1.00  0.00     0.016 A 
HETATM    9  N   UNL     1       4.718  29.335  54.984  1.00  0.00    -0.312 N 
HETATM   10  C   UNL     1       4.969  27.978  54.833  1.00  0.00     0.060 C 
ENDROOT
BRANCH   8  11
HETATM   11  C   UNL     1       4.999  28.403  50.213  1.00  0.00     0.277 C 
BRANCH  11  12
HETATM   12  N   UNL     1       3.892  27.528  49.677  1.00  0.00    -0.063 N 
HETATM   13  H   UNL     1       3.417  27.162  50.521  1.00  0.00     0.280 HD
HETATM   14  C   UNL     1       2.851  28.285  48.869  1.00  0.00     0.261 C 
HETATM   15  C   UNL     1       1.756  27.317  48.410  1.00  0.00     0.195 C 
HETATM   16  O   UNL     1       2.317  26.244  47.646  1.00  0.00    -0.388 OA
HETATM   17  C   UNL     1       3.246  25.474  48.418  1.00  0.00     0.195 C 
HETATM   18  C   UNL     1       4.419  26.340  48.889  1.00  0.00     0.261 C 
ENDBRANCH  11  12
ENDBRANCH   8  11
BRANCH   7  19
HETATM   19  O   UNL     1       3.913  30.968  49.765  1.00  0.00    -0.359 OA
HETATM   20  H   UNL     1       4.666  30.591  49.252  1.00  0.00     0.218 HD
ENDBRANCH   7  19
BRANCH   1  21
HETATM   21  C   UNL     1       5.347  26.413  52.861  1.00  0.00     0.296 C 
HETATM   22  O   UNL     1       4.485  25.716  52.344  1.00  0.00    -0.259 OA
BRANCH  21  23
HETATM   23  O   UNL     1       6.667  26.097  52.929  1.00  0.00    -0.318 OA
BRANCH  23  24
HETATM   24  C   UNL     1       7.162  25.214  51.903  1.00  0.00     0.174 C 
HETATM   25  C   UNL     1       7.869  24.029  52.532  1.00  0.00     0.034 C 
ENDBRANCH  23  24
ENDBRANCH  21  23
ENDBRANCH   1  21
BRANCH  10  26
HETATM   26  C   UNL     1       5.096  27.012  55.985  1.00  0.00     0.293 C 
BRANCH  26  27
HETATM   27  N   UNL     1       6.427  26.305  56.135  1.00  0.00    -0.066 N 
HETATM   28  H   UNL     1       6.971  26.472  55.279  1.00  0.00     0.280 HD
HETATM   29  C   UNL     1       7.254  26.800  57.298  1.00  0.00     0.235 C 
HETATM   30  C   UNL     1       8.618  26.124  57.270  1.00  0.00     0.028 C 
HETATM   31  C   UNL     1       8.497  24.604  57.284  1.00  0.00     0.003 C 
HETATM   32  C   UNL     1       7.591  24.113  56.163  1.00  0.00     0.028 C 
HETATM   33  C   UNL     1       6.234  24.801  56.194  1.00  0.00     0.235 C 
ENDBRANCH  26  27
ENDBRANCH  10  26
BRANCH   9  34
HETATM   34  C   UNL     1       4.676  30.025  56.223  1.00  0.00     0.040 A 
HETATM   35  C   UNL     1       5.850  30.569  56.758  1.00  0.00     0.030 A 
HETATM   36  C   UNL     1       5.785  31.319  57.932  1.00  0.00     0.002 A 
HETATM   37  C   UNL     1       4.560  31.519  58.569  1.00  0.00     0.000 A 
HETATM   38  C   UNL     1       3.394  30.966  58.040  1.00  0.00     0.002 A 
HETATM   39  C   UNL     1       3.445  30.219  56.865  1.00  0.00     0.030 A 
ENDBRANCH   9  34
TORSDOF 9
ENDMDL
MODEL 8
REMARK VINA RESULT:      -7.3      6.434     10.445
REMARK  9 active torsions:
REMARK  status: ('A' for Active; 'I' for Inactive)
REMARK    1  A    between atoms: C_2  and  O_3 
REMARK    2  A    between atoms: O_3  and  C_4 
REMARK    3  A    between atoms: C_4  and  C_5 
REMARK    4  A    between atoms: C_11  and  O_12 
REMARK    5  A    between atoms: C_13  and  C_14 
REMARK    6  A    between atoms: C_14  and  N_15 
REMARK    7  A    between atoms: N_22  and  C_23 
REMARK    8  A    between atoms: C_29  and  C_30 
REMARK    9  A    between atoms: C_30  and  N_31 
ROOT
HETATM    1  C   UNL     1       4.909  33.314  58.927  1.00  0.00     0.077 C 
HETATM    2  C   UNL     1       5.954  32.433  59.412  1.00  0.00     0.020 A 
HETATM    3  C   UNL     1       6.169  32.786  60.753  1.00  0.00     0.053 A 
HETATM    4  C   UNL     1       7.155  32.160  61.542  1.00  0.00     0.053 A 
HETATM    5  C   UNL     1       7.985  31.218  60.951  1.00  0.00     0.047 A 
HETATM    6 BR   UNL     1       9.361  30.436  61.993  1.00  0.00    -0.048 Br
HETATM    7  C   UNL     1       7.788  30.838  59.629  1.00  0.00     0.092 A 
HETATM    8  C   UNL     1       6.736  31.365  58.838  1.00  0.00     0.016 A 
HETATM    9  N   UNL     1       5.215  33.735  61.113  1.00  0.00    -0.312 N 
HETATM   10  C   UNL     1       4.525  34.153  59.983  1.00  0.00     0.060 C 
ENDROOT
BRANCH   8  11
HETATM   11  C   UNL     1       6.523  30.838  57.426  1.00  0.00     0.277 C 
BRANCH  11  12
HETATM   12  N   UNL     1       6.566  29.338  57.257  1.00  0.00    -0.063 N 
HETATM   13  H   UNL     1       6.980  28.988  58.138  1.00  0.00     0.280 HD
HETATM   14  C   UNL     1       5.193  28.699  57.122  1.00  0.00     0.261 C 
HETATM   15  C   UNL     1       5.347  27.179  57.000  1.00  0.00     0.195 C 
HETATM   16  O   UNL     1       6.181  26.843  55.886  1.00  0.00    -0.388 OA
HETATM   17  C   UNL     1       7.502  27.376  56.033  1.00  0.00     0.195 C 
HETATM   18  C   UNL     1       7.471  28.906  56.115  1.00  0.00     0.261 C 
ENDBRANCH  11  12
ENDBRANCH   8  11
BRANCH   7  19
HETATM   19  O   UNL     1       8.625  29.901  59.058  1.00  0.00    -0.359 OA
HETATM   20  H   UNL     1       8.673  30.112  58.096  1.00  0.00     0.218 HD
ENDBRANCH   7  19
BRANCH   1  21
HETATM   21  C   UNL     1       4.378  33.382  57.562  1.00  0.00     0.296 C 
HETATM   22  O   UNL     1       3.326  32.847  57.240  1.00  0.00    -0.259 OA
BRANCH  21  23
HETATM   23  O   UNL     1       5.164  34.116  56.730  1.00  0.00    -0.318 OA
BRANCH  23  24
HETATM   24  C   UNL     1       4.548  34.564  55.507  1.00  0.00     0.174 C 
HETATM   25  C   UNL     1       5.000  33.698  54.347  1.00  0.00     0.034 C 
ENDBRANCH  23  24
ENDBRANCH  21  23
ENDBRANCH   1  21
BRANCH  10  26
HETATM   26  C   UNL     1       3.572  35.322  59.963  1.00  0.00     0.293 C 
BRANCH  26  27
HETATM   27  N   UNL     1       4.191  36.702  59.872  1.00  0.00    -0.066 N 
HETATM   28  H   UNL     1       5.173  36.627  60.169  1.00  0.00     0.280 HD
HETATM   29  C   UNL     1       4.186  37.282  58.478  1.00  0.00     0.235 C 
HETATM   30  C   UNL     1       4.951  38.598  58.477  1.00  0.00     0.028 C 
HETATM   31  C   UNL     1       4.382  39.586  59.489  1.00  0.00     0.003 C 
HETATM   32  C   UNL     1       4.306  38.967  60.880  1.00  0.00     0.028 C 
HETATM   33  C   UNL     1       3.547  37.649  60.868  1.00  0.00     0.235 C 
ENDBRANCH  26  27
ENDBRANCH  10  26
BRANCH   9  34
HETATM   34  C   UNL     1       5.029  34.253  62.421  1.00  0.00     0.040 A 
HETATM   35  C   UNL     1       5.788  35.347  62.852  1.00  0.00     0.030 A 
HETATM   36  C   UNL     1       5.539  35.903  64.107  1.00  0.00     0.002 A 
HETATM   37  C   UNL     1       4.545  35.366  64.926  1.00  0.00     0.000 A 
HETATM   38  C   UNL     1       3.799  34.268  64.499  1.00  0.00     0.002 A 
HETATM   39  C   UNL     1       4.035  33.707  63.245  1.00  0.00     0.030 A 
ENDBRANCH   9  34
TORSDOF 9
ENDMDL
MODEL 9
REMARK VINA RESULT:      -7.2      3.050      8.298
REMARK  9 active torsions:
REMARK  status: ('A' for Active; 'I' for Inactive)
REMARK    1  A    between atoms: C_2  and  O_3 
REMARK    2  A    between atoms: O_3  and  C_4 
REMARK    3  A    between atoms: C_4  and  C_5 
REMARK    4  A    between atoms: C_11  and  O_12 
REMARK    5  A    between atoms: C_13  and  C_14 
REMARK    6  A    between atoms: C_14  and  N_15 
REMARK    7  A    between atoms: N_22  and  C_23 
REMARK    8  A    between atoms: C_29  and  C_30 
REMARK    9  A    between atoms: C_30  and  N_31 
ROOT
HETATM    1  C   UNL     1       5.181  28.561  54.419  1.00  0.00     0.077 C 
HETATM    2  C   UNL     1       4.781  28.329  53.044  1.00  0.00     0.020 A 
HETATM    3  C   UNL     1       5.416  27.141  52.650  1.00  0.00     0.053 A 
HETATM    4  C   UNL     1       5.288  26.623  51.345  1.00  0.00     0.053 A 
HETATM    5  C   UNL     1       4.571  27.350  50.405  1.00  0.00     0.047 A 
HETATM    6 BR   UNL     1       4.468  26.692  48.632  1.00  0.00    -0.048 Br
HETATM    7  C   UNL     1       3.921  28.523  50.770  1.00  0.00     0.092 A 
HETATM    8  C   UNL     1       3.935  29.015  52.099  1.00  0.00     0.016 A 
HETATM    9  N   UNL     1       6.059  26.600  53.761  1.00  0.00    -0.312 N 
HETATM   10  C   UNL     1       6.027  27.511  54.807  1.00  0.00     0.060 C 
ENDROOT
BRANCH   8  11
HETATM   11  C   UNL     1       3.126  30.257  52.448  1.00  0.00     0.277 C 
BRANCH  11  12
HETATM   12  N   UNL     1       3.511  31.530  51.732  1.00  0.00    -0.063 N 
HETATM   13  H   UNL     1       4.066  31.214  50.918  1.00  0.00     0.280 HD
HETATM   14  C   UNL     1       2.324  32.309  51.190  1.00  0.00     0.261 C 
HETATM   15  C   UNL     1       2.824  33.553  50.449  1.00  0.00     0.195 C 
HETATM   16  O   UNL     1       3.622  34.370  51.313  1.00  0.00    -0.388 OA
HETATM   17  C   UNL     1       4.785  33.674  51.774  1.00  0.00     0.195 C 
HETATM   18  C   UNL     1       4.398  32.428  52.578  1.00  0.00     0.261 C 
ENDBRANCH  11  12
ENDBRANCH   8  11
BRANCH   7  19
HETATM   19  O   UNL     1       3.215  29.233  49.820  1.00  0.00    -0.359 OA
HETATM   20  H   UNL     1       2.367  28.752  49.677  1.00  0.00     0.218 HD
ENDBRANCH   7  19
BRANCH   1  21
HETATM   21  C   UNL     1       4.833  29.714  55.255  1.00  0.00     0.296 C 
HETATM   22  O   UNL     1       5.610  30.638  55.454  1.00  0.00    -0.259 OA
BRANCH  21  23
HETATM   23  O   UNL     1       3.567  29.643  55.744  1.00  0.00    -0.318 OA
BRANCH  23  24
HETATM   24  C   UNL     1       3.114  30.783  56.501  1.00  0.00     0.174 C 
HETATM   25  C   UNL     1       2.315  31.716  55.611  1.00  0.00     0.034 C 
ENDBRANCH  23  24
ENDBRANCH  21  23
ENDBRANCH   1  21
BRANCH  10  26
HETATM   26  C   UNL     1       6.808  27.350  56.088  1.00  0.00     0.293 C 
BRANCH  26  27
HETATM   27  N   UNL     1       7.622  28.544  56.542  1.00  0.00    -0.066 N 
HETATM   28  H   UNL     1       7.250  29.378  56.070  1.00  0.00     0.280 HD
HETATM   29  C   UNL     1       7.554  28.800  58.029  1.00  0.00     0.235 C 
HETATM   30  C   UNL     1       8.289  30.094  58.351  1.00  0.00     0.028 C 
HETATM   31  C   UNL     1       9.732  30.064  57.861  1.00  0.00     0.003 C 
HETATM   32  C   UNL     1       9.803  29.718  56.379  1.00  0.00     0.028 C 
HETATM   33  C   UNL     1       9.059  28.429  56.065  1.00  0.00     0.235 C 
ENDBRANCH  26  27
ENDBRANCH  10  26
BRANCH   9  34
HETATM   34  C   UNL     1       6.713  25.341  53.794  1.00  0.00     0.040 A 
HETATM   35  C   UNL     1       7.679  25.032  52.830  1.00  0.00     0.030 A 
HETATM   36  C   UNL     1       8.378  23.828  52.920  1.00  0.00     0.002 A 
HETATM   37  C   UNL     1       8.110  22.939  53.961  1.00  0.00     0.000 A 
HETATM   38  C   UNL     1       7.138  23.244  54.913  1.00  0.00     0.002 A 
HETATM   39  C   UNL     1       6.436  24.445  54.836  1.00  0.00     0.030 A 
ENDBRANCH   9  34
TORSDOF 9
ENDMDL
MODEL 10
REMARK VINA RESULT:      -6.9      2.910      6.089
REMARK  9 active torsions:
REMARK  status: ('A' for Active; 'I' for Inactive)
REMARK    1  A    between atoms: C_2  and  O_3 
REMARK    2  A    between atoms: O_3  and  C_4 
REMARK    3  A    between atoms: C_4  and  C_5 
REMARK    4  A    between atoms: C_11  and  O_12 
REMARK    5  A    between atoms: C_13  and  C_14 
REMARK    6  A    between atoms: C_14  and  N_15 
REMARK    7  A    between atoms: N_22  and  C_23 
REMARK    8  A    between atoms: C_29  and  C_30 
REMARK    9  A    between atoms: C_30  and  N_31 
ROOT
HETATM    1  C   UNL     1       4.300  28.935  53.419  1.00  0.00     0.077 C 
HETATM    2  C   UNL     1       4.287  30.255  52.818  1.00  0.00     0.020 A 
HETATM    3  C   UNL     1       4.246  30.051  51.431  1.00  0.00     0.053 A 
HETATM    4  C   UNL     1       4.263  31.124  50.517  1.00  0.00     0.053 A 
HETATM    5  C   UNL     1       4.400  32.416  51.005  1.00  0.00     0.047 A 
HETATM    6 BR   UNL     1       4.505  33.849  49.771  1.00  0.00    -0.048 Br
HETATM    7  C   UNL     1       4.431  32.650  52.375  1.00  0.00     0.092 A 
HETATM    8  C   UNL     1       4.303  31.606  53.325  1.00  0.00     0.016 A 
HETATM    9  N   UNL     1       4.101  28.686  51.194  1.00  0.00    -0.312 N 
HETATM   10  C   UNL     1       4.256  27.989  52.385  1.00  0.00     0.060 C 
ENDROOT
BRANCH   8  11
HETATM   11  C   UNL     1       4.254  31.944  54.809  1.00  0.00     0.277 C 
BRANCH  11  12
HETATM   12  N   UNL     1       3.342  33.079  55.208  1.00  0.00    -0.063 N 
HETATM   13  H   UNL     1       3.623  33.867  54.597  1.00  0.00     0.280 HD
HETATM   14  C   UNL     1       1.871  32.806  54.938  1.00  0.00     0.261 C 
HETATM   15  C   UNL     1       1.042  34.031  55.337  1.00  0.00     0.195 C 
HETATM   16  O   UNL     1       1.258  34.362  56.713  1.00  0.00    -0.388 OA
HETATM   17  C   UNL     1       2.627  34.696  56.968  1.00  0.00     0.195 C 
HETATM   18  C   UNL     1       3.549  33.514  56.649  1.00  0.00     0.261 C 
ENDBRANCH  11  12
ENDBRANCH   8  11
BRANCH   7  19
HETATM   19  O   UNL     1       4.569  33.941  52.842  1.00  0.00    -0.359 OA
HETATM   20  H   UNL     1       4.253  33.941  53.775  1.00  0.00     0.218 HD
ENDBRANCH   7  19
BRANCH   1  21
HETATM   21  C   UNL     1       4.409  28.618  54.847  1.00  0.00     0.296 C 
HETATM   22  O   UNL     1       3.518  28.874  55.645  1.00  0.00    -0.259 OA
BRANCH  21  23
HETATM   23  O   UNL     1       5.578  27.997  55.157  1.00  0.00    -0.318 OA
BRANCH  23  24
HETATM   24  C   UNL     1       6.742  28.841  55.239  1.00  0.00     0.174 C 
HETATM   25  C   UNL     1       7.871  28.255  54.414  1.00  0.00     0.034 C 
ENDBRANCH  23  24
ENDBRANCH  21  23
ENDBRANCH   1  21
BRANCH  10  26
HETATM   26  C   UNL     1       4.376  26.487  52.471  1.00  0.00     0.293 C 
BRANCH  26  27
HETATM   27  N   UNL     1       5.714  25.937  52.918  1.00  0.00    -0.066 N 
HETATM   28  H   UNL     1       6.242  26.706  53.352  1.00  0.00     0.280 HD
HETATM   29  C   UNL     1       5.609  24.830  53.940  1.00  0.00     0.235 C 
HETATM   30  C   UNL     1       7.005  24.452  54.418  1.00  0.00     0.028 C 
HETATM   31  C   UNL     1       7.912  24.051  53.260  1.00  0.00     0.003 C 
HETATM   32  C   UNL     1       7.947  25.133  52.188  1.00  0.00     0.028 C 
HETATM   33  C   UNL     1       6.548  25.510  51.723  1.00  0.00     0.235 C 
ENDBRANCH  26  27
ENDBRANCH  10  26
BRANCH   9  34
HETATM   34  C   UNL     1       3.902  28.093  49.920  1.00  0.00     0.040 A 
HETATM   35  C   UNL     1       4.999  27.610  49.198  1.00  0.00     0.030 A 
HETATM   36  C   UNL     1       4.787  26.952  47.987  1.00  0.00     0.002 A 
HETATM   37  C   UNL     1       3.491  26.784  47.499  1.00  0.00     0.000 A 
HETATM   38  C   UNL     1       2.400  27.277  48.215  1.00  0.00     0.002 A 
HETATM   39  C   UNL     1       2.600  27.932  49.429  1.00  0.00     0.030 A 
ENDBRANCH   9  34
TORSDOF 9
ENDMDL
