MODEL 1
REMARK VINA RESULT:     -10.6      0.000      0.000
REMARK  9 active torsions:
REMARK  status: ('A' for Active; 'I' for Inactive)
REMARK    1  A    between atoms: C_2  and  C_3 
REMARK    2  A    between atoms: C_3  and  C_4 
REMARK    3  A    between atoms: C_4  and  O_5 
REMARK    4  A    between atoms: O_5  and  C_6 
REMARK    5  A    between atoms: C_8  and  C_9 
REMARK       I    between atoms: C_9  and  N_10 
REMARK    6  A    between atoms: N_10  and  C_11 
REMARK    7  A    between atoms: N_12  and  C_13 
REMARK    8  A    between atoms: C_15  and  C_16 
REMARK    9  A    between atoms: C_25  and  O_26 
ROOT
HETATM    1  C   UNL     1       4.936  29.565  56.101  1.00  0.00     0.179 C 
HETATM    2  N   UNL     1       4.436  29.023  54.969  1.00  0.00    -0.333 N 
HETATM    3  S   UNL     1       3.859  30.078  57.280  1.00  0.00    -0.040 SA
HETATM    4  H   UNL     1       3.454  29.241  54.833  1.00  0.00     0.168 HD
ENDROOT
BRANCH   2   5
HETATM    5  C   UNL     1       4.962  28.093  54.049  1.00  0.00     0.035 A 
HETATM    6  C   UNL     1       5.432  26.827  54.398  1.00  0.00     0.048 A 
HETATM    7  C   UNL     1       5.998  25.965  53.442  1.00  0.00     0.053 A 
HETATM    8  C   UNL     1       5.990  26.363  52.094  1.00  0.00     0.086 A 
HETATM    9  C   UNL     1       5.457  27.600  51.707  1.00  0.00    -0.026 A 
HETATM   10  C   UNL     1       5.392  28.004  50.262  1.00  0.00     0.051 C 
HETATM   11  C   UNL     1       4.946  28.454  52.695  1.00  0.00     0.039 A 
BRANCH   7  12
HETATM   12  C   UNL     1       6.611  24.705  53.849  1.00  0.00     0.183 A 
HETATM   13  O   UNL     1       6.972  23.830  52.855  1.00  0.00    -0.289 OA
HETATM   14  C   UNL     1       7.421  22.734  53.528  1.00  0.00     0.106 A 
HETATM   15  C   UNL     1       7.324  22.999  54.885  1.00  0.00     0.093 A 
HETATM   16  C   UNL     1       7.889  21.544  52.984  1.00  0.00     0.040 A 
HETATM   17  N   UNL     1       6.825  24.263  55.080  1.00  0.00    -0.221 NA
HETATM   18  C   UNL     1       7.710  22.010  55.797  1.00  0.00     0.034 A 
HETATM   19  C   UNL     1       8.184  20.790  55.289  1.00  0.00     0.002 A 
HETATM   20  C   UNL     1       8.273  20.566  53.909  1.00  0.00     0.003 A 
ENDBRANCH   7  12
BRANCH   8  21
HETATM   21  O   UNL     1       6.496  25.561  51.098  1.00  0.00    -0.359 OA
HETATM   22  H   UNL     1       5.806  25.439  50.413  1.00  0.00     0.218 HD
ENDBRANCH   8  21
ENDBRANCH   2   5
BRANCH   1  23
HETATM   23  N   UNL     1       6.265  29.721  56.348  1.00  0.00    -0.299 N 
HETATM   24  C   UNL     1       7.119  28.988  57.167  1.00  0.00     0.257 C 
HETATM   25  O   UNL     1       6.882  27.868  57.602  1.00  0.00    -0.267 OA
HETATM   26  H   UNL     1       6.728  30.271  55.636  1.00  0.00     0.171 HD
BRANCH  24  27
HETATM   27  C   UNL     1       8.440  29.634  57.433  1.00  0.00     0.035 A 
HETATM   28  C   UNL     1       8.496  30.741  58.289  1.00  0.00     0.053 A 
HETATM   29  C   UNL     1       9.709  31.392  58.534  1.00  0.00     0.069 A 
HETATM   30  C   UNL     1      10.875  30.928  57.921  1.00  0.00     0.037 A 
HETATM   31  C   UNL     1      10.826  29.834  57.054  1.00  0.00     0.004 A 
HETATM   32  C   UNL     1       9.613  29.193  56.803  1.00  0.00     0.017 A 
BRANCH  29  33
HETATM   33  O   UNL     1       9.628  32.461  59.386  1.00  0.00    -0.351 OA
BRANCH  33  34
HETATM   34  C   UNL     1       8.579  32.442  60.353  1.00  0.00     0.175 C 
BRANCH  34  35
HETATM   35  C   UNL     1       9.154  32.063  61.717  1.00  0.00     0.026 C 
BRANCH  35  36
HETATM   36  C   UNL     1       8.064  31.717  62.732  1.00  0.00    -0.002 C 
HETATM   37  C   UNL     1       7.943  32.791  63.801  1.00  0.00     0.005 C 
ENDBRANCH  35  36
ENDBRANCH  34  35
ENDBRANCH  33  34
ENDBRANCH  29  33
ENDBRANCH  24  27
ENDBRANCH   1  23
TORSDOF 9
ENDMDL
MODEL 2
REMARK VINA RESULT:     -10.2      3.046      4.815
REMARK  9 active torsions:
REMARK  status: ('A' for Active; 'I' for Inactive)
REMARK    1  A    between atoms: C_2  and  C_3 
REMARK    2  A    between atoms: C_3  and  C_4 
REMARK    3  A    between atoms: C_4  and  O_5 
REMARK    4  A    between atoms: O_5  and  C_6 
REMARK    5  A    between atoms: C_8  and  C_9 
REMARK       I    between atoms: C_9  and  N_10 
REMARK    6  A    between atoms: N_10  and  C_11 
REMARK    7  A    between atoms: N_12  and  C_13 
REMARK    8  A    between atoms: C_15  and  C_16 
REMARK    9  A    between atoms: C_25  and  O_26 
ROOT
HETATM    1  C   UNL     1       8.150  30.690  59.237  1.00  0.00     0.179 C 
HETATM    2  N   UNL     1       8.297  29.527  58.566  1.00  0.00    -0.333 N 
HETATM    3  S   UNL     1       9.515  31.625  59.514  1.00  0.00    -0.040 SA
HETATM    4  H   UNL     1       9.260  29.207  58.547  1.00  0.00     0.168 HD
ENDROOT
BRANCH   2   5
HETATM    5  C   UNL     1       7.414  28.777  57.762  1.00  0.00     0.035 A 
HETATM    6  C   UNL     1       7.670  27.480  57.318  1.00  0.00     0.048 A 
HETATM    7  C   UNL     1       6.775  26.804  56.470  1.00  0.00     0.053 A 
HETATM    8  C   UNL     1       5.553  27.424  56.155  1.00  0.00     0.086 A 
HETATM    9  C   UNL     1       5.241  28.698  56.648  1.00  0.00    -0.026 A 
HETATM   10  C   UNL     1       3.913  29.340  56.364  1.00  0.00     0.051 C 
HETATM   11  C   UNL     1       6.180  29.361  57.451  1.00  0.00     0.039 A 
BRANCH   7  12
HETATM   12  C   UNL     1       7.125  25.505  55.904  1.00  0.00     0.183 A 
HETATM   13  O   UNL     1       7.305  25.439  54.544  1.00  0.00    -0.289 OA
HETATM   14  C   UNL     1       7.527  24.115  54.306  1.00  0.00     0.106 A 
HETATM   15  C   UNL     1       7.483  23.451  55.522  1.00  0.00     0.093 A 
HETATM   16  C   UNL     1       7.749  23.506  53.078  1.00  0.00     0.040 A 
HETATM   17  N   UNL     1       7.246  24.347  56.536  1.00  0.00    -0.221 NA
HETATM   18  C   UNL     1       7.664  22.064  55.542  1.00  0.00     0.034 A 
HETATM   19  C   UNL     1       7.886  21.407  54.321  1.00  0.00     0.002 A 
HETATM   20  C   UNL     1       7.930  22.119  53.114  1.00  0.00     0.003 A 
ENDBRANCH   7  12
BRANCH   8  21
HETATM   21  O   UNL     1       4.614  26.814  55.359  1.00  0.00    -0.359 OA
HETATM   22  H   UNL     1       4.618  27.247  54.480  1.00  0.00     0.218 HD
ENDBRANCH   8  21
ENDBRANCH   2   5
BRANCH   1  23
HETATM   23  N   UNL     1       6.961  31.155  59.704  1.00  0.00    -0.299 N 
HETATM   24  C   UNL     1       6.174  32.216  59.262  1.00  0.00     0.257 C 
HETATM   25  O   UNL     1       6.277  32.755  58.167  1.00  0.00    -0.267 OA
HETATM   26  H   UNL     1       6.472  30.470  60.266  1.00  0.00     0.171 HD
BRANCH  24  27
HETATM   27  C   UNL     1       5.090  32.628  60.204  1.00  0.00     0.035 A 
HETATM   28  C   UNL     1       5.288  32.468  61.581  1.00  0.00     0.053 A 
HETATM   29  C   UNL     1       4.283  32.810  62.491  1.00  0.00     0.069 A 
HETATM   30  C   UNL     1       3.072  33.320  62.018  1.00  0.00     0.037 A 
HETATM   31  C   UNL     1       2.860  33.469  60.645  1.00  0.00     0.004 A 
HETATM   32  C   UNL     1       3.860  33.116  59.739  1.00  0.00     0.017 A 
BRANCH  29  33
HETATM   33  O   UNL     1       4.600  32.604  63.807  1.00  0.00    -0.351 OA
BRANCH  33  34
HETATM   34  C   UNL     1       4.628  33.751  64.655  1.00  0.00     0.175 C 
BRANCH  34  35
HETATM   35  C   UNL     1       6.012  34.396  64.587  1.00  0.00     0.026 C 
BRANCH  35  36
HETATM   36  C   UNL     1       7.116  33.458  65.078  1.00  0.00    -0.002 C 
HETATM   37  C   UNL     1       7.974  32.964  63.924  1.00  0.00     0.005 C 
ENDBRANCH  35  36
ENDBRANCH  34  35
ENDBRANCH  33  34
ENDBRANCH  29  33
ENDBRANCH  24  27
ENDBRANCH   1  23
TORSDOF 9
ENDMDL
MODEL 3
REMARK VINA RESULT:     -10.1      2.047      9.774
REMARK  9 active torsions:
REMARK  status: ('A' for Active; 'I' for Inactive)
REMARK    1  A    between atoms: C_2  and  C_3 
REMARK    2  A    between atoms: C_3  and  C_4 
REMARK    3  A    between atoms: C_4  and  O_5 
REMARK    4  A    between atoms: O_5  and  C_6 
REMARK    5  A    between atoms: C_8  and  C_9 
REMARK       I    between atoms: C_9  and  N_10 
REMARK    6  A    between atoms: N_10  and  C_11 
REMARK    7  A    between atoms: N_12  and  C_13 
REMARK    8  A    between atoms: C_15  and  C_16 
REMARK    9  A    between atoms: C_25  and  O_26 
ROOT
HETATM    1  C   UNL     1       5.270  28.917  55.045  1.00  0.00     0.179 C 
HETATM    2  N   UNL     1       5.449  29.880  55.976  1.00  0.00    -0.333 N 
HETATM    3  S   UNL     1       4.294  29.262  53.725  1.00  0.00    -0.040 SA
HETATM    4  H   UNL     1       4.748  30.612  55.920  1.00  0.00     0.168 HD
ENDROOT
BRANCH   2   5
HETATM    5  C   UNL     1       6.499  30.141  56.881  1.00  0.00     0.035 A 
HETATM    6  C   UNL     1       6.333  30.785  58.107  1.00  0.00     0.048 A 
HETATM    7  C   UNL     1       7.428  31.068  58.942  1.00  0.00     0.053 A 
HETATM    8  C   UNL     1       8.697  30.594  58.564  1.00  0.00     0.086 A 
HETATM    9  C   UNL     1       8.878  29.880  57.373  1.00  0.00    -0.026 A 
HETATM   10  C   UNL     1      10.220  29.321  56.994  1.00  0.00     0.051 C 
HETATM   11  C   UNL     1       7.770  29.661  56.541  1.00  0.00     0.039 A 
BRANCH   7  12
HETATM   12  C   UNL     1       7.254  31.865  60.152  1.00  0.00     0.183 A 
HETATM   13  O   UNL     1       8.042  31.552  61.231  1.00  0.00    -0.289 OA
HETATM   14  C   UNL     1       7.600  32.386  62.214  1.00  0.00     0.106 A 
HETATM   15  C   UNL     1       6.583  33.165  61.685  1.00  0.00     0.093 A 
HETATM   16  C   UNL     1       8.055  32.461  63.524  1.00  0.00     0.040 A 
HETATM   17  N   UNL     1       6.383  32.841  60.366  1.00  0.00    -0.221 NA
HETATM   18  C   UNL     1       5.945  34.098  62.511  1.00  0.00     0.034 A 
HETATM   19  C   UNL     1       6.372  34.202  63.844  1.00  0.00     0.002 A 
HETATM   20  C   UNL     1       7.409  33.399  64.337  1.00  0.00     0.003 A 
ENDBRANCH   7  12
BRANCH   8  21
HETATM   21  O   UNL     1       9.810  30.803  59.344  1.00  0.00    -0.359 OA
HETATM   22  H   UNL     1       9.522  31.140  60.218  1.00  0.00     0.218 HD
ENDBRANCH   8  21
ENDBRANCH   2   5
BRANCH   1  23
HETATM   23  N   UNL     1       5.833  27.681  55.108  1.00  0.00    -0.299 N 
HETATM   24  C   UNL     1       5.758  26.710  56.103  1.00  0.00     0.257 C 
HETATM   25  O   UNL     1       4.917  26.683  56.993  1.00  0.00    -0.267 OA
HETATM   26  H   UNL     1       6.112  27.336  54.199  1.00  0.00     0.171 HD
BRANCH  24  27
HETATM   27  C   UNL     1       6.752  25.602  55.974  1.00  0.00     0.035 A 
HETATM   28  C   UNL     1       6.593  24.660  54.950  1.00  0.00     0.053 A 
HETATM   29  C   UNL     1       7.483  23.590  54.819  1.00  0.00     0.069 A 
HETATM   30  C   UNL     1       8.543  23.465  55.720  1.00  0.00     0.037 A 
HETATM   31  C   UNL     1       8.701  24.390  56.754  1.00  0.00     0.004 A 
HETATM   32  C   UNL     1       7.805  25.451  56.888  1.00  0.00     0.017 A 
BRANCH  29  33
HETATM   33  O   UNL     1       7.216  22.740  53.780  1.00  0.00    -0.351 OA
BRANCH  33  34
HETATM   34  C   UNL     1       8.319  22.024  53.227  1.00  0.00     0.175 C 
BRANCH  34  35
HETATM   35  C   UNL     1       8.104  20.525  53.436  1.00  0.00     0.026 C 
BRANCH  35  36
HETATM   36  C   UNL     1       8.836  19.999  54.672  1.00  0.00    -0.002 C 
HETATM   37  C   UNL     1       7.943  20.041  55.902  1.00  0.00     0.005 C 
ENDBRANCH  35  36
ENDBRANCH  34  35
ENDBRANCH  33  34
ENDBRANCH  29  33
ENDBRANCH  24  27
ENDBRANCH   1  23
TORSDOF 9
ENDMDL
MODEL 4
REMARK VINA RESULT:      -9.7      3.117      4.934
REMARK  9 active torsions:
REMARK  status: ('A' for Active; 'I' for Inactive)
REMARK    1  A    between atoms: C_2  and  C_3 
REMARK    2  A    between atoms: C_3  and  C_4 
REMARK    3  A    between atoms: C_4  and  O_5 
REMARK    4  A    between atoms: O_5  and  C_6 
REMARK    5  A    between atoms: C_8  and  C_9 
REMARK       I    between atoms: C_9  and  N_10 
REMARK    6  A    between atoms: N_10  and  C_11 
REMARK    7  A    between atoms: N_12  and  C_13 
REMARK    8  A    between atoms: C_15  and  C_16 
REMARK    9  A    between atoms: C_25  and  O_26 
ROOT
HETATM    1  C   UNL     1       8.185  30.530  59.172  1.00  0.00     0.179 C 
HETATM    2  N   UNL     1       8.252  29.420  58.405  1.00  0.00    -0.333 N 
HETATM    3  S   UNL     1       9.603  31.369  59.481  1.00  0.00    -0.040 SA
HETATM    4  H   UNL     1       9.196  29.055  58.329  1.00  0.00     0.168 HD
ENDROOT
BRANCH   2   5
HETATM    5  C   UNL     1       7.309  28.785  57.571  1.00  0.00     0.035 A 
HETATM    6  C   UNL     1       7.493  27.526  56.999  1.00  0.00     0.048 A 
HETATM    7  C   UNL     1       6.539  26.969  56.129  1.00  0.00     0.053 A 
HETATM    8  C   UNL     1       5.335  27.664  55.922  1.00  0.00     0.086 A 
HETATM    9  C   UNL     1       5.095  28.896  56.543  1.00  0.00    -0.026 A 
HETATM   10  C   UNL     1       3.786  29.614  56.373  1.00  0.00     0.051 C 
HETATM   11  C   UNL     1       6.090  29.444  57.365  1.00  0.00     0.039 A 
BRANCH   7  12
HETATM   12  C   UNL     1       6.813  25.716  55.431  1.00  0.00     0.183 A 
HETATM   13  O   UNL     1       6.991  24.593  56.199  1.00  0.00    -0.289 OA
HETATM   14  C   UNL     1       7.312  23.625  55.295  1.00  0.00     0.106 A 
HETATM   15  C   UNL     1       7.301  24.199  54.034  1.00  0.00     0.093 A 
HETATM   16  C   UNL     1       7.613  22.294  55.558  1.00  0.00     0.040 A 
HETATM   17  N   UNL     1       6.962  25.527  54.128  1.00  0.00    -0.221 NA
HETATM   18  C   UNL     1       7.620  23.406  52.926  1.00  0.00     0.034 A 
HETATM   19  C   UNL     1       7.936  22.056  53.148  1.00  0.00     0.002 A 
HETATM   20  C   UNL     1       7.929  21.513  54.440  1.00  0.00     0.003 A 
ENDBRANCH   7  12
BRANCH   8  21
HETATM   21  O   UNL     1       4.342  27.168  55.111  1.00  0.00    -0.359 OA
HETATM   22  H   UNL     1       4.745  26.553  54.463  1.00  0.00     0.218 HD
ENDBRANCH   8  21
ENDBRANCH   2   5
BRANCH   1  23
HETATM   23  N   UNL     1       7.034  31.014  59.713  1.00  0.00    -0.299 N 
HETATM   24  C   UNL     1       6.284  32.137  59.373  1.00  0.00     0.257 C 
HETATM   25  O   UNL     1       6.375  32.745  58.315  1.00  0.00    -0.267 OA
HETATM   26  H   UNL     1       6.533  30.314  60.245  1.00  0.00     0.171 HD
BRANCH  24  27
HETATM   27  C   UNL     1       5.252  32.530  60.380  1.00  0.00     0.035 A 
HETATM   28  C   UNL     1       5.520  32.335  61.741  1.00  0.00     0.053 A 
HETATM   29  C   UNL     1       4.566  32.659  62.710  1.00  0.00     0.069 A 
HETATM   30  C   UNL     1       3.335  33.186  62.313  1.00  0.00     0.037 A 
HETATM   31  C   UNL     1       3.053  33.370  60.957  1.00  0.00     0.004 A 
HETATM   32  C   UNL     1       4.003  33.036  59.992  1.00  0.00     0.017 A 
BRANCH  29  33
HETATM   33  O   UNL     1       4.950  32.418  64.001  1.00  0.00    -0.351 OA
BRANCH  33  34
HETATM   34  C   UNL     1       4.879  33.512  64.914  1.00  0.00     0.175 C 
BRANCH  34  35
HETATM   35  C   UNL     1       5.996  34.508  64.597  1.00  0.00     0.026 C 
BRANCH  35  36
HETATM   36  C   UNL     1       5.454  35.857  64.122  1.00  0.00    -0.002 C 
HETATM   37  C   UNL     1       5.745  36.080  62.647  1.00  0.00     0.005 C 
ENDBRANCH  35  36
ENDBRANCH  34  35
ENDBRANCH  33  34
ENDBRANCH  29  33
ENDBRANCH  24  27
ENDBRANCH   1  23
TORSDOF 9
ENDMDL
MODEL 5
REMARK VINA RESULT:      -9.7      2.773      4.280
REMARK  9 active torsions:
REMARK  status: ('A' for Active; 'I' for Inactive)
REMARK    1  A    between atoms: C_2  and  C_3 
REMARK    2  A    between atoms: C_3  and  C_4 
REMARK    3  A    between atoms: C_4  and  O_5 
REMARK    4  A    between atoms: O_5  and  C_6 
REMARK    5  A    between atoms: C_8  and  C_9 
REMARK       I    between atoms: C_9  and  N_10 
REMARK    6  A    between atoms: N_10  and  C_11 
REMARK    7  A    between atoms: N_12  and  C_13 
REMARK    8  A    between atoms: C_15  and  C_16 
REMARK    9  A    between atoms: C_25  and  O_26 
ROOT
HETATM    1  C   UNL     1       9.143  29.993  57.723  1.00  0.00     0.179 C 
HETATM    2  N   UNL     1       9.089  28.683  57.395  1.00  0.00    -0.333 N 
HETATM    3  S   UNL     1      10.625  30.773  57.635  1.00  0.00    -0.040 SA
HETATM    4  H   UNL     1      10.004  28.242  57.399  1.00  0.00     0.168 HD
ENDROOT
BRANCH   2   5
HETATM    5  C   UNL     1       8.050  27.872  56.893  1.00  0.00     0.035 A 
HETATM    6  C   UNL     1       8.193  26.521  56.581  1.00  0.00     0.048 A 
HETATM    7  C   UNL     1       7.134  25.778  56.031  1.00  0.00     0.053 A 
HETATM    8  C   UNL     1       5.881  26.401  55.891  1.00  0.00     0.086 A 
HETATM    9  C   UNL     1       5.692  27.738  56.264  1.00  0.00    -0.026 A 
HETATM   10  C   UNL     1       4.343  28.391  56.173  1.00  0.00     0.051 C 
HETATM   11  C   UNL     1       6.785  28.461  56.764  1.00  0.00     0.039 A 
BRANCH   7  12
HETATM   12  C   UNL     1       7.343  24.405  55.582  1.00  0.00     0.183 A 
HETATM   13  O   UNL     1       7.662  23.472  56.536  1.00  0.00    -0.289 OA
HETATM   14  C   UNL     1       7.881  22.332  55.822  1.00  0.00     0.106 A 
HETATM   15  C   UNL     1       7.674  22.624  54.483  1.00  0.00     0.093 A 
HETATM   16  C   UNL     1       8.255  21.088  56.314  1.00  0.00     0.040 A 
HETATM   17  N   UNL     1       7.313  23.941  54.341  1.00  0.00    -0.221 NA
HETATM   18  C   UNL     1       7.858  21.612  53.534  1.00  0.00     0.034 A 
HETATM   19  C   UNL     1       8.242  20.340  53.988  1.00  0.00     0.002 A 
HETATM   20  C   UNL     1       8.433  20.086  55.353  1.00  0.00     0.003 A 
ENDBRANCH   7  12
BRANCH   8  21
HETATM   21  O   UNL     1       4.790  25.732  55.390  1.00  0.00    -0.359 OA
HETATM   22  H   UNL     1       4.616  24.950  55.955  1.00  0.00     0.218 HD
ENDBRANCH   8  21
ENDBRANCH   2   5
BRANCH   1  23
HETATM   23  N   UNL     1       8.067  30.723  58.122  1.00  0.00    -0.299 N 
HETATM   24  C   UNL     1       7.969  31.727  59.082  1.00  0.00     0.257 C 
HETATM   25  O   UNL     1       8.917  32.345  59.548  1.00  0.00    -0.267 OA
HETATM   26  H   UNL     1       7.318  30.712  57.442  1.00  0.00     0.171 HD
BRANCH  24  27
HETATM   27  C   UNL     1       6.572  32.088  59.471  1.00  0.00     0.035 A 
HETATM   28  C   UNL     1       6.347  32.697  60.712  1.00  0.00     0.053 A 
HETATM   29  C   UNL     1       5.050  33.017  61.125  1.00  0.00     0.069 A 
HETATM   30  C   UNL     1       3.971  32.728  60.287  1.00  0.00     0.037 A 
HETATM   31  C   UNL     1       4.184  32.107  59.054  1.00  0.00     0.004 A 
HETATM   32  C   UNL     1       5.478  31.779  58.650  1.00  0.00     0.017 A 
BRANCH  29  33
HETATM   33  O   UNL     1       4.966  33.606  62.358  1.00  0.00    -0.351 OA
BRANCH  33  34
HETATM   34  C   UNL     1       5.204  32.773  63.492  1.00  0.00     0.175 C 
BRANCH  34  35
HETATM   35  C   UNL     1       5.521  33.649  64.705  1.00  0.00     0.026 C 
BRANCH  35  36
HETATM   36  C   UNL     1       6.957  33.463  65.197  1.00  0.00    -0.002 C 
HETATM   37  C   UNL     1       7.877  33.030  64.066  1.00  0.00     0.005 C 
ENDBRANCH  35  36
ENDBRANCH  34  35
ENDBRANCH  33  34
ENDBRANCH  29  33
ENDBRANCH  24  27
ENDBRANCH   1  23
TORSDOF 9
ENDMDL
MODEL 6
REMARK VINA RESULT:      -9.1      3.251      4.792
REMARK  9 active torsions:
REMARK  status: ('A' for Active; 'I' for Inactive)
REMARK    1  A    between atoms: C_2  and  C_3 
REMARK    2  A    between atoms: C_3  and  C_4 
REMARK    3  A    between atoms: C_4  and  O_5 
REMARK    4  A    between atoms: O_5  and  C_6 
REMARK    5  A    between atoms: C_8  and  C_9 
REMARK       I    between atoms: C_9  and  N_10 
REMARK    6  A    between atoms: N_10  and  C_11 
REMARK    7  A    between atoms: N_12  and  C_13 
REMARK    8  A    between atoms: C_15  and  C_16 
REMARK    9  A    between atoms: C_25  and  O_26 
ROOT
HETATM    1  C   UNL     1       9.137  30.325  58.462  1.00  0.00     0.179 C 
HETATM    2  N   UNL     1       9.153  29.197  57.718  1.00  0.00    -0.333 N 
HETATM    3  S   UNL     1      10.406  31.407  58.290  1.00  0.00    -0.040 SA
HETATM    4  H   UNL     1      10.072  28.992  57.339  1.00  0.00     0.168 HD
ENDROOT
BRANCH   2   5
HETATM    5  C   UNL     1       8.122  28.363  57.237  1.00  0.00     0.035 A 
HETATM    6  C   UNL     1       8.295  27.020  56.901  1.00  0.00     0.048 A 
HETATM    7  C   UNL     1       7.241  26.254  56.373  1.00  0.00     0.053 A 
HETATM    8  C   UNL     1       5.966  26.842  56.282  1.00  0.00     0.086 A 
HETATM    9  C   UNL     1       5.751  28.167  56.681  1.00  0.00    -0.026 A 
HETATM   10  C   UNL     1       4.380  28.781  56.642  1.00  0.00     0.051 C 
HETATM   11  C   UNL     1       6.837  28.916  57.157  1.00  0.00     0.039 A 
BRANCH   7  12
HETATM   12  C   UNL     1       7.476  24.895  55.897  1.00  0.00     0.183 A 
HETATM   13  O   UNL     1       7.501  24.698  54.539  1.00  0.00    -0.289 OA
HETATM   14  C   UNL     1       7.645  23.350  54.405  1.00  0.00     0.106 A 
HETATM   15  C   UNL     1       7.710  22.800  55.675  1.00  0.00     0.093 A 
HETATM   16  C   UNL     1       7.706  22.623  53.223  1.00  0.00     0.040 A 
HETATM   17  N   UNL     1       7.622  23.793  56.619  1.00  0.00    -0.221 NA
HETATM   18  C   UNL     1       7.839  21.413  55.807  1.00  0.00     0.034 A 
HETATM   19  C   UNL     1       7.899  20.640  54.637  1.00  0.00     0.002 A 
HETATM   20  C   UNL     1       7.837  21.237  53.370  1.00  0.00     0.003 A 
ENDBRANCH   7  12
BRANCH   8  21
HETATM   21  O   UNL     1       4.880  26.147  55.806  1.00  0.00    -0.359 OA
HETATM   22  H   UNL     1       4.063  26.584  56.126  1.00  0.00     0.218 HD
ENDBRANCH   8  21
ENDBRANCH   2   5
BRANCH   1  23
HETATM   23  N   UNL     1       8.153  30.640  59.346  1.00  0.00    -0.299 N 
HETATM   24  C   UNL     1       7.220  31.673  59.322  1.00  0.00     0.257 C 
HETATM   25  O   UNL     1       6.929  32.330  58.331  1.00  0.00    -0.267 OA
HETATM   26  H   UNL     1       7.909  29.862  59.947  1.00  0.00     0.171 HD
BRANCH  24  27
HETATM   27  C   UNL     1       6.496  31.895  60.610  1.00  0.00     0.035 A 
HETATM   28  C   UNL     1       5.162  32.319  60.577  1.00  0.00     0.053 A 
HETATM   29  C   UNL     1       4.463  32.570  61.761  1.00  0.00     0.069 A 
HETATM   30  C   UNL     1       5.105  32.392  62.989  1.00  0.00     0.037 A 
HETATM   31  C   UNL     1       6.440  31.984  63.032  1.00  0.00     0.004 A 
HETATM   32  C   UNL     1       7.138  31.745  61.848  1.00  0.00     0.017 A 
BRANCH  29  33
HETATM   33  O   UNL     1       3.168  32.981  61.592  1.00  0.00    -0.351 OA
BRANCH  33  34
HETATM   34  C   UNL     1       2.945  34.068  60.694  1.00  0.00     0.175 C 
BRANCH  34  35
HETATM   35  C   UNL     1       3.609  35.328  61.250  1.00  0.00     0.026 C 
BRANCH  35  36
HETATM   36  C   UNL     1       2.958  35.803  62.550  1.00  0.00    -0.002 C 
HETATM   37  C   UNL     1       3.601  37.086  63.053  1.00  0.00     0.005 C 
ENDBRANCH  35  36
ENDBRANCH  34  35
ENDBRANCH  33  34
ENDBRANCH  29  33
ENDBRANCH  24  27
ENDBRANCH   1  23
TORSDOF 9
ENDMDL
MODEL 7
REMARK VINA RESULT:      -9.1      3.213      6.552
REMARK  9 active torsions:
REMARK  status: ('A' for Active; 'I' for Inactive)
REMARK    1  A    between atoms: C_2  and  C_3 
REMARK    2  A    between atoms: C_3  and  C_4 
REMARK    3  A    between atoms: C_4  and  O_5 
REMARK    4  A    between atoms: O_5  and  C_6 
REMARK    5  A    between atoms: C_8  and  C_9 
REMARK       I    between atoms: C_9  and  N_10 
REMARK    6  A    between atoms: N_10  and  C_11 
REMARK    7  A    between atoms: N_12  and  C_13 
REMARK    8  A    between atoms: C_15  and  C_16 
REMARK    9  A    between atoms: C_25  and  O_26 
ROOT
HETATM    1  C   UNL     1       6.960  26.311  55.274  1.00  0.00     0.179 C 
HETATM    2  N   UNL     1       5.655  26.573  55.041  1.00  0.00    -0.333 N 
HETATM    3  S   UNL     1       7.560  24.810  54.828  1.00  0.00    -0.040 SA
HETATM    4  H   UNL     1       5.112  25.731  54.877  1.00  0.00     0.168 HD
ENDROOT
BRANCH   2   5
HETATM    5  C   UNL     1       4.954  27.777  54.820  1.00  0.00     0.035 A 
HETATM    6  C   UNL     1       4.900  28.830  55.732  1.00  0.00     0.048 A 
HETATM    7  C   UNL     1       4.137  29.983  55.477  1.00  0.00     0.053 A 
HETATM    8  C   UNL     1       3.502  30.103  54.229  1.00  0.00     0.086 A 
HETATM    9  C   UNL     1       3.600  29.090  53.267  1.00  0.00    -0.026 A 
HETATM   10  C   UNL     1       2.973  29.239  51.910  1.00  0.00     0.051 C 
HETATM   11  C   UNL     1       4.330  27.933  53.575  1.00  0.00     0.039 A 
BRANCH   7  12
HETATM   12  C   UNL     1       3.981  31.012  56.501  1.00  0.00     0.183 A 
HETATM   13  O   UNL     1       3.874  30.593  57.804  1.00  0.00    -0.289 OA
HETATM   14  C   UNL     1       3.652  31.742  58.501  1.00  0.00     0.106 A 
HETATM   15  C   UNL     1       3.647  32.793  57.599  1.00  0.00     0.093 A 
HETATM   16  C   UNL     1       3.451  31.871  59.870  1.00  0.00     0.040 A 
HETATM   17  N   UNL     1       3.877  32.321  56.330  1.00  0.00    -0.221 NA
HETATM   18  C   UNL     1       3.417  34.090  58.072  1.00  0.00     0.034 A 
HETATM   19  C   UNL     1       3.204  34.265  59.448  1.00  0.00     0.002 A 
HETATM   20  C   UNL     1       3.224  33.174  60.328  1.00  0.00     0.003 A 
ENDBRANCH   7  12
BRANCH   8  21
HETATM   21  O   UNL     1       2.765  31.214  53.895  1.00  0.00    -0.359 OA
HETATM   22  H   UNL     1       1.964  30.925  53.409  1.00  0.00     0.218 HD
ENDBRANCH   8  21
ENDBRANCH   2   5
BRANCH   1  23
HETATM   23  N   UNL     1       7.823  27.191  55.850  1.00  0.00    -0.299 N 
HETATM   24  C   UNL     1       8.091  27.436  57.194  1.00  0.00     0.257 C 
HETATM   25  O   UNL     1       7.798  26.685  58.115  1.00  0.00    -0.267 OA
HETATM   26  H   UNL     1       8.542  27.502  55.210  1.00  0.00     0.171 HD
BRANCH  24  27
HETATM   27  C   UNL     1       8.868  28.685  57.461  1.00  0.00     0.035 A 
HETATM   28  C   UNL     1       8.382  29.601  58.402  1.00  0.00     0.053 A 
HETATM   29  C   UNL     1       9.063  30.796  58.653  1.00  0.00     0.069 A 
HETATM   30  C   UNL     1      10.242  31.074  57.956  1.00  0.00     0.037 A 
HETATM   31  C   UNL     1      10.725  30.174  57.004  1.00  0.00     0.004 A 
HETATM   32  C   UNL     1      10.038  28.987  56.749  1.00  0.00     0.017 A 
BRANCH  29  33
HETATM   33  O   UNL     1       8.484  31.604  59.593  1.00  0.00    -0.351 OA
BRANCH  33  34
HETATM   34  C   UNL     1       9.360  32.315  60.467  1.00  0.00     0.175 C 
BRANCH  34  35
HETATM   35  C   UNL     1       9.128  31.849  61.904  1.00  0.00     0.026 C 
BRANCH  35  36
HETATM   36  C   UNL     1       7.758  32.271  62.437  1.00  0.00    -0.002 C 
HETATM   37  C   UNL     1       7.860  32.814  63.854  1.00  0.00     0.005 C 
ENDBRANCH  35  36
ENDBRANCH  34  35
ENDBRANCH  33  34
ENDBRANCH  29  33
ENDBRANCH  24  27
ENDBRANCH   1  23
TORSDOF 9
ENDMDL
MODEL 8
REMARK VINA RESULT:      -9.0      3.041      4.957
REMARK  9 active torsions:
REMARK  status: ('A' for Active; 'I' for Inactive)
REMARK    1  A    between atoms: C_2  and  C_3 
REMARK    2  A    between atoms: C_3  and  C_4 
REMARK    3  A    between atoms: C_4  and  O_5 
REMARK    4  A    between atoms: O_5  and  C_6 
REMARK    5  A    between atoms: C_8  and  C_9 
REMARK       I    between atoms: C_9  and  N_10 
REMARK    6  A    between atoms: N_10  and  C_11 
REMARK    7  A    between atoms: N_12  and  C_13 
REMARK    8  A    between atoms: C_15  and  C_16 
REMARK    9  A    between atoms: C_25  and  O_26 
ROOT
HETATM    1  C   UNL     1       9.107  30.039  57.822  1.00  0.00     0.179 C 
HETATM    2  N   UNL     1       9.081  28.737  57.463  1.00  0.00    -0.333 N 
HETATM    3  S   UNL     1      10.563  30.864  57.713  1.00  0.00    -0.040 SA
HETATM    4  H   UNL     1      10.007  28.323  57.430  1.00  0.00     0.168 HD
ENDROOT
BRANCH   2   5
HETATM    5  C   UNL     1       8.050  27.909  56.970  1.00  0.00     0.035 A 
HETATM    6  C   UNL     1       8.201  26.549  56.703  1.00  0.00     0.048 A 
HETATM    7  C   UNL     1       7.151  25.787  56.159  1.00  0.00     0.053 A 
HETATM    8  C   UNL     1       5.900  26.404  55.980  1.00  0.00     0.086 A 
HETATM    9  C   UNL     1       5.704  27.751  56.308  1.00  0.00    -0.026 A 
HETATM   10  C   UNL     1       4.354  28.398  56.175  1.00  0.00     0.051 C 
HETATM   11  C   UNL     1       6.787  28.491  56.803  1.00  0.00     0.039 A 
BRANCH   7  12
HETATM   12  C   UNL     1       7.370  24.402  55.756  1.00  0.00     0.183 A 
HETATM   13  O   UNL     1       7.766  23.518  56.729  1.00  0.00    -0.289 OA
HETATM   14  C   UNL     1       7.973  22.354  56.051  1.00  0.00     0.106 A 
HETATM   15  C   UNL     1       7.684  22.583  54.715  1.00  0.00     0.093 A 
HETATM   16  C   UNL     1       8.406  21.141  56.572  1.00  0.00     0.040 A 
HETATM   17  N   UNL     1       7.282  23.884  54.540  1.00  0.00    -0.221 NA
HETATM   18  C   UNL     1       7.839  21.535  53.800  1.00  0.00     0.034 A 
HETATM   19  C   UNL     1       8.281  20.294  54.284  1.00  0.00     0.002 A 
HETATM   20  C   UNL     1       8.555  20.103  55.645  1.00  0.00     0.003 A 
ENDBRANCH   7  12
BRANCH   8  21
HETATM   21  O   UNL     1       4.818  25.716  55.483  1.00  0.00    -0.359 OA
HETATM   22  H   UNL     1       4.135  25.658  56.183  1.00  0.00     0.218 HD
ENDBRANCH   8  21
ENDBRANCH   2   5
BRANCH   1  23
HETATM   23  N   UNL     1       8.023  30.728  58.270  1.00  0.00    -0.299 N 
HETATM   24  C   UNL     1       7.942  31.802  59.153  1.00  0.00     0.257 C 
HETATM   25  O   UNL     1       8.882  32.519  59.470  1.00  0.00    -0.267 OA
HETATM   26  H   UNL     1       7.215  30.609  57.672  1.00  0.00     0.171 HD
BRANCH  24  27
HETATM   27  C   UNL     1       6.565  32.101  59.652  1.00  0.00     0.035 A 
HETATM   28  C   UNL     1       5.478  31.944  58.784  1.00  0.00     0.053 A 
HETATM   29  C   UNL     1       4.179  32.247  59.205  1.00  0.00     0.069 A 
HETATM   30  C   UNL     1       3.969  32.709  60.506  1.00  0.00     0.037 A 
HETATM   31  C   UNL     1       5.049  32.884  61.373  1.00  0.00     0.004 A 
HETATM   32  C   UNL     1       6.345  32.590  60.947  1.00  0.00     0.017 A 
BRANCH  29  33
HETATM   33  O   UNL     1       3.206  32.052  58.262  1.00  0.00    -0.351 OA
BRANCH  33  34
HETATM   34  C   UNL     1       3.620  32.044  56.896  1.00  0.00     0.175 C 
BRANCH  34  35
HETATM   35  C   UNL     1       3.223  33.366  56.239  1.00  0.00     0.026 C 
BRANCH  35  36
HETATM   36  C   UNL     1       4.420  34.297  56.039  1.00  0.00    -0.002 C 
HETATM   37  C   UNL     1       4.584  35.247  57.215  1.00  0.00     0.005 C 
ENDBRANCH  35  36
ENDBRANCH  34  35
ENDBRANCH  33  34
ENDBRANCH  29  33
ENDBRANCH  24  27
ENDBRANCH   1  23
TORSDOF 9
ENDMDL
MODEL 9
REMARK VINA RESULT:      -8.9      3.005      8.705
REMARK  9 active torsions:
REMARK  status: ('A' for Active; 'I' for Inactive)
REMARK    1  A    between atoms: C_2  and  C_3 
REMARK    2  A    between atoms: C_3  and  C_4 
REMARK    3  A    between atoms: C_4  and  O_5 
REMARK    4  A    between atoms: O_5  and  C_6 
REMARK    5  A    between atoms: C_8  and  C_9 
REMARK       I    between atoms: C_9  and  N_10 
REMARK    6  A    between atoms: N_10  and  C_11 
REMARK    7  A    between atoms: N_12  and  C_13 
REMARK    8  A    between atoms: C_15  and  C_16 
REMARK    9  A    between atoms: C_25  and  O_26 
ROOT
HETATM    1  C   UNL     1       3.929  29.569  53.700  1.00  0.00     0.179 C 
HETATM    2  N   UNL     1       4.365  29.293  54.948  1.00  0.00    -0.333 N 
HETATM    3  S   UNL     1       3.158  31.034  53.435  1.00  0.00    -0.040 SA
HETATM    4  H   UNL     1       3.931  29.881  55.653  1.00  0.00     0.168 HD
ENDROOT
BRANCH   2   5
HETATM    5  C   UNL     1       5.411  28.477  55.429  1.00  0.00     0.035 A 
HETATM    6  C   UNL     1       5.738  27.230  54.898  1.00  0.00     0.048 A 
HETATM    7  C   UNL     1       6.756  26.438  55.457  1.00  0.00     0.053 A 
HETATM    8  C   UNL     1       7.518  26.973  56.511  1.00  0.00     0.086 A 
HETATM    9  C   UNL     1       7.256  28.253  57.015  1.00  0.00    -0.026 A 
HETATM   10  C   UNL     1       8.105  28.853  58.100  1.00  0.00     0.051 C 
HETATM   11  C   UNL     1       6.201  28.994  56.464  1.00  0.00     0.039 A 
BRANCH   7  12
HETATM   12  C   UNL     1       6.990  25.079  54.976  1.00  0.00     0.183 A 
HETATM   13  O   UNL     1       7.102  24.088  55.920  1.00  0.00    -0.289 OA
HETATM   14  C   UNL     1       7.400  22.975  55.193  1.00  0.00     0.106 A 
HETATM   15  C   UNL     1       7.442  23.338  53.856  1.00  0.00     0.093 A 
HETATM   16  C   UNL     1       7.636  21.693  55.673  1.00  0.00     0.040 A 
HETATM   17  N   UNL     1       7.160  24.676  53.726  1.00  0.00    -0.221 NA
HETATM   18  C   UNL     1       7.751  22.365  52.899  1.00  0.00     0.034 A 
HETATM   19  C   UNL     1       8.002  21.057  53.343  1.00  0.00     0.002 A 
HETATM   20  C   UNL     1       7.942  20.730  54.705  1.00  0.00     0.003 A 
ENDBRANCH   7  12
BRANCH   8  21
HETATM   21  O   UNL     1       8.550  26.271  57.088  1.00  0.00    -0.359 OA
HETATM   22  H   UNL     1       8.244  25.913  57.947  1.00  0.00     0.218 HD
ENDBRANCH   8  21
ENDBRANCH   2   5
BRANCH   1  23
HETATM   23  N   UNL     1       4.075  28.731  52.639  1.00  0.00    -0.299 N 
HETATM   24  C   UNL     1       4.994  28.758  51.593  1.00  0.00     0.257 C 
HETATM   25  O   UNL     1       6.040  29.393  51.597  1.00  0.00    -0.267 OA
HETATM   26  H   UNL     1       3.630  27.835  52.789  1.00  0.00     0.171 HD
BRANCH  24  27
HETATM   27  C   UNL     1       4.662  27.862  50.444  1.00  0.00     0.035 A 
HETATM   28  C   UNL     1       4.043  28.407  49.312  1.00  0.00     0.053 A 
HETATM   29  C   UNL     1       3.687  27.594  48.232  1.00  0.00     0.069 A 
HETATM   30  C   UNL     1       3.956  26.225  48.285  1.00  0.00     0.037 A 
HETATM   31  C   UNL     1       4.559  25.670  49.416  1.00  0.00     0.004 A 
HETATM   32  C   UNL     1       4.904  26.482  50.496  1.00  0.00     0.017 A 
BRANCH  29  33
HETATM   33  O   UNL     1       3.087  28.249  47.190  1.00  0.00    -0.351 OA
BRANCH  33  34
HETATM   34  C   UNL     1       1.723  28.632  47.364  1.00  0.00     0.175 C 
BRANCH  34  35
HETATM   35  C   UNL     1       0.818  27.447  47.029  1.00  0.00     0.026 C 
BRANCH  35  36
HETATM   36  C   UNL     1      -0.503  27.886  46.394  1.00  0.00    -0.002 C 
HETATM   37  C   UNL     1      -0.564  27.501  44.924  1.00  0.00     0.005 C 
ENDBRANCH  35  36
ENDBRANCH  34  35
ENDBRANCH  33  34
ENDBRANCH  29  33
ENDBRANCH  24  27
ENDBRANCH   1  23
TORSDOF 9
ENDMDL
MODEL 10
REMARK VINA RESULT:      -8.8      2.483      7.846
REMARK  9 active torsions:
REMARK  status: ('A' for Active; 'I' for Inactive)
REMARK    1  A    between atoms: C_2  and  C_3 
REMARK    2  A    between atoms: C_3  and  C_4 
REMARK    3  A    between atoms: C_4  and  O_5 
REMARK    4  A    between atoms: O_5  and  C_6 
REMARK    5  A    between atoms: C_8  and  C_9 
REMARK       I    between atoms: C_9  and  N_10 
REMARK    6  A    between atoms: N_10  and  C_11 
REMARK    7  A    between atoms: N_12  and  C_13 
REMARK    8  A    between atoms: C_15  and  C_16 
REMARK    9  A    between atoms: C_25  and  O_26 
ROOT
HETATM    1  C   UNL     1       3.475  30.711  54.891  1.00  0.00     0.179 C 
HETATM    2  N   UNL     1       4.024  30.113  55.971  1.00  0.00    -0.333 N 
HETATM    3  S   UNL     1       2.334  31.913  55.144  1.00  0.00    -0.040 SA
HETATM    4  H   UNL     1       3.482  30.260  56.817  1.00  0.00     0.168 HD
ENDROOT
BRANCH   2   5
HETATM    5  C   UNL     1       5.268  29.480  56.176  1.00  0.00     0.035 A 
HETATM    6  C   UNL     1       5.625  28.255  55.612  1.00  0.00     0.048 A 
HETATM    7  C   UNL     1       6.859  27.647  55.899  1.00  0.00     0.053 A 
HETATM    8  C   UNL     1       7.783  28.350  56.692  1.00  0.00     0.086 A 
HETATM    9  C   UNL     1       7.477  29.614  57.211  1.00  0.00    -0.026 A 
HETATM   10  C   UNL     1       8.482  30.395  58.010  1.00  0.00     0.051 C 
HETATM   11  C   UNL     1       6.216  30.168  56.944  1.00  0.00     0.039 A 
BRANCH   7  12
HETATM   12  C   UNL     1       7.157  26.303  55.413  1.00  0.00     0.183 A 
HETATM   13  O   UNL     1       7.352  26.151  54.063  1.00  0.00    -0.289 OA
HETATM   14  C   UNL     1       7.516  24.807  53.905  1.00  0.00     0.106 A 
HETATM   15  C   UNL     1       7.425  24.217  55.156  1.00  0.00     0.093 A 
HETATM   16  C   UNL     1       7.726  24.118  52.717  1.00  0.00     0.040 A 
HETATM   17  N   UNL     1       7.216  25.180  56.112  1.00  0.00    -0.221 NA
HETATM   18  C   UNL     1       7.543  22.826  55.258  1.00  0.00     0.034 A 
HETATM   19  C   UNL     1       7.750  22.091  54.081  1.00  0.00     0.002 A 
HETATM   20  C   UNL     1       7.843  22.728  52.836  1.00  0.00     0.003 A 
ENDBRANCH   7  12
BRANCH   8  21
HETATM   21  O   UNL     1       9.022  27.835  56.990  1.00  0.00    -0.359 OA
HETATM   22  H   UNL     1       9.682  28.559  56.947  1.00  0.00     0.218 HD
ENDBRANCH   8  21
ENDBRANCH   2   5
BRANCH   1  23
HETATM   23  N   UNL     1       3.790  30.399  53.606  1.00  0.00    -0.299 N 
HETATM   24  C   UNL     1       3.691  29.188  52.925  1.00  0.00     0.257 C 
HETATM   25  O   UNL     1       3.019  28.233  53.290  1.00  0.00    -0.267 OA
HETATM   26  H   UNL     1       3.844  31.216  53.012  1.00  0.00     0.171 HD
BRANCH  24  27
HETATM   27  C   UNL     1       4.417  29.143  51.619  1.00  0.00     0.035 A 
HETATM   28  C   UNL     1       4.425  27.949  50.887  1.00  0.00     0.053 A 
HETATM   29  C   UNL     1       5.122  27.858  49.678  1.00  0.00     0.069 A 
HETATM   30  C   UNL     1       5.813  28.973  49.197  1.00  0.00     0.037 A 
HETATM   31  C   UNL     1       5.822  30.163  49.928  1.00  0.00     0.004 A 
HETATM   32  C   UNL     1       5.135  30.247  51.139  1.00  0.00     0.017 A 
BRANCH  29  33
HETATM   33  O   UNL     1       5.054  26.637  49.063  1.00  0.00    -0.351 OA
BRANCH  33  34
HETATM   34  C   UNL     1       3.760  26.050  48.927  1.00  0.00     0.175 C 
BRANCH  34  35
HETATM   35  C   UNL     1       3.337  26.092  47.459  1.00  0.00     0.026 C 
BRANCH  35  36
HETATM   36  C   UNL     1       2.086  26.944  47.238  1.00  0.00    -0.002 C 
HETATM   37  C   UNL     1       2.431  28.423  47.163  1.00  0.00     0.005 C 
ENDBRANCH  35  36
ENDBRANCH  34  35
ENDBRANCH  33  34
ENDBRANCH  29  33
ENDBRANCH  24  27
ENDBRANCH   1  23
TORSDOF 9
ENDMDL
