MODEL 1
REMARK VINA RESULT:      -9.1      0.000      0.000
REMARK  6 active torsions:
REMARK  status: ('A' for Active; 'I' for Inactive)
REMARK    1  A    between atoms: C_9  and  C_10 
REMARK       I    between atoms: C_10  and  N_11 
REMARK    2  A    between atoms: N_11  and  C_12 
REMARK    3  A    between atoms: C_12  and  C_13 
REMARK    4  A    between atoms: C_13  and  O_14 
REMARK    5  A    between atoms: C_13  and  C_15 
REMARK    6  A    between atoms: C_18  and  O_19 
ROOT
HETATM    1  C   UNL     1       8.429  29.857  58.601  1.00  0.00     0.258 C 
HETATM    2  N   UNL     1       8.194  30.255  59.897  1.00  0.00    -0.350 N 
HETATM    3  O   UNL     1       9.449  30.160  57.991  1.00  0.00    -0.267 OA
HETATM    4  H   UNL     1       7.275  30.057  60.293  1.00  0.00     0.163 HD
ENDROOT
BRANCH   2   5
HETATM    5  C   UNL     1       9.099  31.151  60.619  1.00  0.00     0.114 C 
HETATM    6  C   UNL     1       8.809  32.598  60.209  1.00  0.00     0.035 C 
BRANCH   5   7
HETATM    7  C   UNL     1       8.997  30.905  62.151  1.00  0.00     0.173 C 
BRANCH   7   8
HETATM    8  O   UNL     1       8.955  29.508  62.456  1.00  0.00    -0.389 OA
HETATM    9  H   UNL     1       8.885  29.434  63.424  1.00  0.00     0.210 HD
ENDBRANCH   7   8
BRANCH   7  10
HETATM   10  C   UNL     1       7.832  31.633  62.798  1.00  0.00    -0.028 A 
HETATM   11  C   UNL     1       6.520  31.247  62.489  1.00  0.00     0.012 A 
HETATM   12  C   UNL     1       5.433  31.879  63.097  1.00  0.00     0.037 A 
HETATM   13  C   UNL     1       5.630  32.895  64.031  1.00  0.00     0.068 A 
HETATM   14  C   UNL     1       6.930  33.292  64.338  1.00  0.00     0.037 A 
HETATM   15  C   UNL     1       8.023  32.668  63.724  1.00  0.00     0.012 A 
BRANCH  13  16
HETATM   16  O   UNL     1       4.481  33.416  64.560  1.00  0.00    -0.356 OA
HETATM   17  C   UNL     1       4.562  33.931  65.882  1.00  0.00     0.210 C 
ENDBRANCH  13  16
ENDBRANCH   7  10
ENDBRANCH   5   7
ENDBRANCH   2   5
BRANCH   1  18
HETATM   18  C   UNL     1       7.382  29.047  57.998  1.00  0.00     0.105 A 
HETATM   19  C   UNL     1       7.423  27.705  57.664  1.00  0.00     0.169 A 
HETATM   20  N   UNL     1       8.414  26.764  57.793  1.00  0.00    -0.233 NA
HETATM   21  N   UNL     1       6.176  27.399  57.104  1.00  0.00    -0.219 N 
HETATM   22  C   UNL     1       8.137  25.566  57.375  1.00  0.00     0.035 A 
HETATM   23  C   UNL     1       9.196  24.499  57.481  1.00  0.00     0.070 C 
HETATM   24  C   UNL     1       6.826  25.144  56.789  1.00  0.00     0.053 A 
HETATM   25  C   UNL     1       5.888  26.097  56.666  1.00  0.00     0.036 A 
HETATM   26  C   UNL     1       4.533  25.811  56.091  1.00  0.00     0.070 C 
HETATM   27  N   UNL     1       5.364  28.482  57.075  1.00  0.00    -0.170 NA
HETATM   28  C   UNL     1       6.081  29.470  57.619  1.00  0.00     0.071 A 
HETATM   29  C   UNL     1       5.483  30.822  57.766  1.00  0.00     0.073 C 
ENDBRANCH   1  18
TORSDOF 6
ENDMDL
MODEL 2
REMARK VINA RESULT:      -9.1      2.147      3.175
REMARK  6 active torsions:
REMARK  status: ('A' for Active; 'I' for Inactive)
REMARK    1  A    between atoms: C_9  and  C_10 
REMARK       I    between atoms: C_10  and  N_11 
REMARK    2  A    between atoms: N_11  and  C_12 
REMARK    3  A    between atoms: C_12  and  C_13 
REMARK    4  A    between atoms: C_13  and  O_14 
REMARK    5  A    between atoms: C_13  and  C_15 
REMARK    6  A    between atoms: C_18  and  O_19 
ROOT
HETATM    1  C   UNL     1       7.914  28.270  57.321  1.00  0.00     0.258 C 
HETATM    2  N   UNL     1       8.901  29.115  56.868  1.00  0.00    -0.350 N 
HETATM    3  O   UNL     1       7.746  28.029  58.512  1.00  0.00    -0.267 OA
HETATM    4  H   UNL     1       9.045  29.175  55.860  1.00  0.00     0.163 HD
ENDROOT
BRANCH   2   5
HETATM    5  C   UNL     1       9.889  29.720  57.764  1.00  0.00     0.114 C 
HETATM    6  C   UNL     1      11.277  29.619  57.125  1.00  0.00     0.035 C 
BRANCH   5   7
HETATM    7  C   UNL     1       9.473  31.174  58.125  1.00  0.00     0.173 C 
BRANCH   7   8
HETATM    8  O   UNL     1      10.593  32.063  58.092  1.00  0.00    -0.389 OA
HETATM    9  H   UNL     1      11.161  31.827  58.846  1.00  0.00     0.210 HD
ENDBRANCH   7   8
BRANCH   7  10
HETATM   10  C   UNL     1       8.745  31.276  59.454  1.00  0.00    -0.028 A 
HETATM   11  C   UNL     1       7.481  31.879  59.503  1.00  0.00     0.012 A 
HETATM   12  C   UNL     1       6.776  31.954  60.707  1.00  0.00     0.037 A 
HETATM   13  C   UNL     1       7.309  31.417  61.880  1.00  0.00     0.068 A 
HETATM   14  C   UNL     1       8.569  30.823  61.842  1.00  0.00     0.037 A 
HETATM   15  C   UNL     1       9.282  30.755  60.639  1.00  0.00     0.012 A 
BRANCH  13  16
HETATM   16  O   UNL     1       6.509  31.544  62.982  1.00  0.00    -0.356 OA
HETATM   17  C   UNL     1       5.193  32.034  62.764  1.00  0.00     0.210 C 
ENDBRANCH  13  16
ENDBRANCH   7  10
ENDBRANCH   5   7
ENDBRANCH   2   5
BRANCH   1  18
HETATM   18  C   UNL     1       7.077  27.678  56.289  1.00  0.00     0.105 A 
HETATM   19  C   UNL     1       7.138  26.398  55.767  1.00  0.00     0.169 A 
HETATM   20  N   UNL     1       7.963  25.338  56.048  1.00  0.00    -0.233 NA
HETATM   21  N   UNL     1       6.132  26.320  54.795  1.00  0.00    -0.219 N 
HETATM   22  C   UNL     1       7.762  24.248  55.369  1.00  0.00     0.035 A 
HETATM   23  C   UNL     1       8.651  23.060  55.630  1.00  0.00     0.070 C 
HETATM   24  C   UNL     1       6.697  24.067  54.333  1.00  0.00     0.053 A 
HETATM   25  C   UNL     1       5.921  25.133  54.077  1.00  0.00     0.036 A 
HETATM   26  C   UNL     1       4.820  25.090  53.059  1.00  0.00     0.070 C 
HETATM   27  N   UNL     1       5.451  27.486  54.688  1.00  0.00    -0.170 NA
HETATM   28  C   UNL     1       6.009  28.299  55.590  1.00  0.00     0.071 A 
HETATM   29  C   UNL     1       5.489  29.681  55.760  1.00  0.00     0.073 C 
ENDBRANCH   1  18
TORSDOF 6
ENDMDL
MODEL 3
REMARK VINA RESULT:      -8.7      3.429      9.255
REMARK  6 active torsions:
REMARK  status: ('A' for Active; 'I' for Inactive)
REMARK    1  A    between atoms: C_9  and  C_10 
REMARK       I    between atoms: C_10  and  N_11 
REMARK    2  A    between atoms: N_11  and  C_12 
REMARK    3  A    between atoms: C_12  and  C_13 
REMARK    4  A    between atoms: C_13  and  O_14 
REMARK    5  A    between atoms: C_13  and  C_15 
REMARK    6  A    between atoms: C_18  and  O_19 
ROOT
HETATM    1  C   UNL     1       7.638  29.001  56.761  1.00  0.00     0.258 C 
HETATM    2  N   UNL     1       7.074  27.756  56.919  1.00  0.00    -0.350 N 
HETATM    3  O   UNL     1       8.600  29.202  56.026  1.00  0.00    -0.267 OA
HETATM    4  H   UNL     1       6.351  27.652  57.631  1.00  0.00     0.163 HD
ENDROOT
BRANCH   2   5
HETATM    5  C   UNL     1       7.634  26.555  56.296  1.00  0.00     0.114 C 
HETATM    6  C   UNL     1       8.458  25.788  57.334  1.00  0.00     0.035 C 
BRANCH   5   7
HETATM    7  C   UNL     1       6.506  25.706  55.644  1.00  0.00     0.173 C 
BRANCH   7   8
HETATM    8  O   UNL     1       5.569  25.241  56.620  1.00  0.00    -0.389 OA
HETATM    9  H   UNL     1       5.824  24.329  56.841  1.00  0.00     0.210 HD
ENDBRANCH   7   8
BRANCH   7  10
HETATM   10  C   UNL     1       7.033  24.551  54.811  1.00  0.00    -0.028 A 
HETATM   11  C   UNL     1       7.155  23.281  55.390  1.00  0.00     0.012 A 
HETATM   12  C   UNL     1       7.605  22.196  54.634  1.00  0.00     0.037 A 
HETATM   13  C   UNL     1       7.927  22.351  53.286  1.00  0.00     0.068 A 
HETATM   14  C   UNL     1       7.817  23.612  52.702  1.00  0.00     0.037 A 
HETATM   15  C   UNL     1       7.375  24.704  53.460  1.00  0.00     0.012 A 
BRANCH  13  16
HETATM   16  O   UNL     1       8.338  21.206  52.661  1.00  0.00    -0.356 OA
HETATM   17  C   UNL     1       8.703  20.117  53.497  1.00  0.00     0.210 C 
ENDBRANCH  13  16
ENDBRANCH   7  10
ENDBRANCH   5   7
ENDBRANCH   2   5
BRANCH   1  18
HETATM   18  C   UNL     1       7.015  30.070  57.526  1.00  0.00     0.105 A 
HETATM   19  C   UNL     1       7.364  30.541  58.779  1.00  0.00     0.169 A 
HETATM   20  N   UNL     1       8.359  30.167  59.648  1.00  0.00    -0.233 NA
HETATM   21  N   UNL     1       6.457  31.564  59.083  1.00  0.00    -0.219 N 
HETATM   22  C   UNL     1       8.424  30.818  60.772  1.00  0.00     0.035 A 
HETATM   23  C   UNL     1       9.490  30.437  61.767  1.00  0.00     0.070 C 
HETATM   24  C   UNL     1       7.516  31.939  61.168  1.00  0.00     0.053 A 
HETATM   25  C   UNL     1       6.546  32.264  60.296  1.00  0.00     0.036 A 
HETATM   26  C   UNL     1       5.566  33.364  60.570  1.00  0.00     0.070 C 
HETATM   27  N   UNL     1       5.565  31.752  58.082  1.00  0.00    -0.170 NA
HETATM   28  C   UNL     1       5.903  30.864  57.142  1.00  0.00     0.071 A 
HETATM   29  C   UNL     1       5.133  30.802  55.873  1.00  0.00     0.073 C 
ENDBRANCH   1  18
TORSDOF 6
ENDMDL
MODEL 4
REMARK VINA RESULT:      -8.7      3.860      9.144
REMARK  6 active torsions:
REMARK  status: ('A' for Active; 'I' for Inactive)
REMARK    1  A    between atoms: C_9  and  C_10 
REMARK       I    between atoms: C_10  and  N_11 
REMARK    2  A    between atoms: N_11  and  C_12 
REMARK    3  A    between atoms: C_12  and  C_13 
REMARK    4  A    between atoms: C_13  and  O_14 
REMARK    5  A    between atoms: C_13  and  C_15 
REMARK    6  A    between atoms: C_18  and  O_19 
ROOT
HETATM    1  C   UNL     1       5.853  29.107  55.601  1.00  0.00     0.258 C 
HETATM    2  N   UNL     1       6.490  27.899  55.431  1.00  0.00    -0.350 N 
HETATM    3  O   UNL     1       5.008  29.523  54.816  1.00  0.00    -0.267 OA
HETATM    4  H   UNL     1       7.258  27.677  56.065  1.00  0.00     0.163 HD
ENDROOT
BRANCH   2   5
HETATM    5  C   UNL     1       6.279  27.059  54.251  1.00  0.00     0.114 C 
HETATM    6  C   UNL     1       7.611  26.879  53.517  1.00  0.00     0.035 C 
BRANCH   5   7
HETATM    7  C   UNL     1       5.604  25.717  54.655  1.00  0.00     0.173 C 
BRANCH   7   8
HETATM    8  O   UNL     1       4.986  25.808  55.942  1.00  0.00    -0.389 OA
HETATM    9  H   UNL     1       4.851  24.895  56.253  1.00  0.00     0.210 HD
ENDBRANCH   7   8
BRANCH   7  10
HETATM   10  C   UNL     1       6.548  24.530  54.593  1.00  0.00    -0.028 A 
HETATM   11  C   UNL     1       6.682  23.816  53.395  1.00  0.00     0.012 A 
HETATM   12  C   UNL     1       7.570  22.742  53.303  1.00  0.00     0.037 A 
HETATM   13  C   UNL     1       8.350  22.367  54.397  1.00  0.00     0.068 A 
HETATM   14  C   UNL     1       8.218  23.065  55.596  1.00  0.00     0.037 A 
HETATM   15  C   UNL     1       7.322  24.137  55.694  1.00  0.00     0.012 A 
BRANCH  13  16
HETATM   16  O   UNL     1       9.188  21.310  54.167  1.00  0.00    -0.356 OA
HETATM   17  C   UNL     1       8.736  20.325  53.248  1.00  0.00     0.210 C 
ENDBRANCH  13  16
ENDBRANCH   7  10
ENDBRANCH   5   7
ENDBRANCH   2   5
BRANCH   1  18
HETATM   18  C   UNL     1       6.249  29.861  56.780  1.00  0.00     0.105 A 
HETATM   19  C   UNL     1       7.526  30.092  57.259  1.00  0.00     0.169 A 
HETATM   20  N   UNL     1       8.757  29.705  56.793  1.00  0.00    -0.233 NA
HETATM   21  N   UNL     1       7.378  30.859  58.423  1.00  0.00    -0.219 N 
HETATM   22  C   UNL     1       9.788  30.090  57.485  1.00  0.00     0.035 A 
HETATM   23  C   UNL     1      11.163  29.678  57.024  1.00  0.00     0.070 C 
HETATM   24  C   UNL     1       9.726  30.930  58.722  1.00  0.00     0.053 A 
HETATM   25  C   UNL     1       8.502  31.276  59.153  1.00  0.00     0.036 A 
HETATM   26  C   UNL     1       8.296  32.110  60.381  1.00  0.00     0.070 C 
HETATM   27  N   UNL     1       6.075  31.115  58.689  1.00  0.00    -0.170 NA
HETATM   28  C   UNL     1       5.396  30.526  57.700  1.00  0.00     0.071 A 
HETATM   29  C   UNL     1       3.913  30.622  57.663  1.00  0.00     0.073 C 
ENDBRANCH   1  18
TORSDOF 6
ENDMDL
MODEL 5
REMARK VINA RESULT:      -8.7      4.424      9.504
REMARK  6 active torsions:
REMARK  status: ('A' for Active; 'I' for Inactive)
REMARK    1  A    between atoms: C_9  and  C_10 
REMARK       I    between atoms: C_10  and  N_11 
REMARK    2  A    between atoms: N_11  and  C_12 
REMARK    3  A    between atoms: C_12  and  C_13 
REMARK    4  A    between atoms: C_13  and  O_14 
REMARK    5  A    between atoms: C_13  and  C_15 
REMARK    6  A    between atoms: C_18  and  O_19 
ROOT
HETATM    1  C   UNL     1       6.557  27.986  54.550  1.00  0.00     0.258 C 
HETATM    2  N   UNL     1       5.685  26.921  54.587  1.00  0.00    -0.350 N 
HETATM    3  O   UNL     1       7.300  28.198  53.597  1.00  0.00    -0.267 OA
HETATM    4  H   UNL     1       5.184  26.751  55.459  1.00  0.00     0.163 HD
ENDROOT
BRANCH   2   5
HETATM    5  C   UNL     1       5.643  25.904  53.535  1.00  0.00     0.114 C 
HETATM    6  C   UNL     1       4.822  26.433  52.356  1.00  0.00     0.035 C 
BRANCH   5   7
HETATM    7  C   UNL     1       7.085  25.469  53.144  1.00  0.00     0.173 C 
BRANCH   7   8
HETATM    8  O   UNL     1       7.309  25.600  51.738  1.00  0.00    -0.389 OA
HETATM    9  H   UNL     1       6.439  25.745  51.327  1.00  0.00     0.210 HD
ENDBRANCH   7   8
BRANCH   7  10
HETATM   10  C   UNL     1       7.436  24.070  53.618  1.00  0.00    -0.028 A 
HETATM   11  C   UNL     1       7.406  23.777  54.988  1.00  0.00     0.012 A 
HETATM   12  C   UNL     1       7.692  22.489  55.446  1.00  0.00     0.037 A 
HETATM   13  C   UNL     1       7.999  21.466  54.548  1.00  0.00     0.068 A 
HETATM   14  C   UNL     1       8.041  21.749  53.184  1.00  0.00     0.037 A 
HETATM   15  C   UNL     1       7.764  23.042  52.723  1.00  0.00     0.012 A 
BRANCH  13  16
HETATM   16  O   UNL     1       8.243  20.251  55.128  1.00  0.00    -0.356 OA
HETATM   17  C   UNL     1       9.002  20.256  56.329  1.00  0.00     0.210 C 
ENDBRANCH  13  16
ENDBRANCH   7  10
ENDBRANCH   5   7
ENDBRANCH   2   5
BRANCH   1  18
HETATM   18  C   UNL     1       6.538  28.849  55.721  1.00  0.00     0.105 A 
HETATM   19  C   UNL     1       7.612  29.335  56.443  1.00  0.00     0.169 A 
HETATM   20  N   UNL     1       8.966  29.168  56.286  1.00  0.00    -0.233 NA
HETATM   21  N   UNL     1       7.074  30.107  57.481  1.00  0.00    -0.219 N 
HETATM   22  C   UNL     1       9.730  29.769  57.149  1.00  0.00     0.035 A 
HETATM   23  C   UNL     1      11.223  29.605  57.030  1.00  0.00     0.070 C 
HETATM   24  C   UNL     1       9.244  30.631  58.271  1.00  0.00     0.053 A 
HETATM   25  C   UNL     1       7.913  30.758  58.399  1.00  0.00     0.036 A 
HETATM   26  C   UNL     1       7.292  31.588  59.482  1.00  0.00     0.070 C 
HETATM   27  N   UNL     1       5.721  30.124  57.439  1.00  0.00    -0.170 NA
HETATM   28  C   UNL     1       5.396  29.378  56.378  1.00  0.00     0.071 A 
HETATM   29  C   UNL     1       3.967  29.191  56.016  1.00  0.00     0.073 C 
ENDBRANCH   1  18
TORSDOF 6
ENDMDL
MODEL 6
REMARK VINA RESULT:      -8.7      3.950      9.648
REMARK  6 active torsions:
REMARK  status: ('A' for Active; 'I' for Inactive)
REMARK    1  A    between atoms: C_9  and  C_10 
REMARK       I    between atoms: C_10  and  N_11 
REMARK    2  A    between atoms: N_11  and  C_12 
REMARK    3  A    between atoms: C_12  and  C_13 
REMARK    4  A    between atoms: C_13  and  O_14 
REMARK    5  A    between atoms: C_13  and  C_15 
REMARK    6  A    between atoms: C_18  and  O_19 
ROOT
HETATM    1  C   UNL     1       5.505  27.645  56.188  1.00  0.00     0.258 C 
HETATM    2  N   UNL     1       5.728  27.782  54.836  1.00  0.00    -0.350 N 
HETATM    3  O   UNL     1       4.546  27.027  56.639  1.00  0.00    -0.267 OA
HETATM    4  H   UNL     1       6.483  28.403  54.544  1.00  0.00     0.163 HD
ENDROOT
BRANCH   2   5
HETATM    5  C   UNL     1       4.789  27.283  53.831  1.00  0.00     0.114 C 
HETATM    6  C   UNL     1       3.851  28.419  53.411  1.00  0.00     0.035 C 
BRANCH   5   7
HETATM    7  C   UNL     1       5.558  26.639  52.643  1.00  0.00     0.173 C 
BRANCH   7   8
HETATM    8  O   UNL     1       4.690  26.376  51.537  1.00  0.00    -0.389 OA
HETATM    9  H   UNL     1       3.897  26.924  51.667  1.00  0.00     0.210 HD
ENDBRANCH   7   8
BRANCH   7  10
HETATM   10  C   UNL     1       6.325  25.388  53.035  1.00  0.00    -0.028 A 
HETATM   11  C   UNL     1       7.320  24.893  52.182  1.00  0.00     0.012 A 
HETATM   12  C   UNL     1       8.062  23.764  52.536  1.00  0.00     0.037 A 
HETATM   13  C   UNL     1       7.838  23.116  53.751  1.00  0.00     0.068 A 
HETATM   14  C   UNL     1       6.844  23.596  54.603  1.00  0.00     0.037 A 
HETATM   15  C   UNL     1       6.092  24.722  54.247  1.00  0.00     0.012 A 
BRANCH  13  16
HETATM   16  O   UNL     1       8.644  22.035  53.980  1.00  0.00    -0.356 OA
HETATM   17  C   UNL     1       8.445  20.901  53.147  1.00  0.00     0.210 C 
ENDBRANCH  13  16
ENDBRANCH   7  10
ENDBRANCH   5   7
ENDBRANCH   2   5
BRANCH   1  18
HETATM   18  C   UNL     1       6.487  28.283  57.051  1.00  0.00     0.105 A 
HETATM   19  C   UNL     1       6.441  29.547  57.611  1.00  0.00     0.169 A 
HETATM   20  N   UNL     1       5.500  30.543  57.535  1.00  0.00    -0.233 NA
HETATM   21  N   UNL     1       7.624  29.696  58.348  1.00  0.00    -0.219 N 
HETATM   22  C   UNL     1       5.757  31.637  58.189  1.00  0.00     0.035 A 
HETATM   23  C   UNL     1       4.763  32.767  58.126  1.00  0.00     0.070 C 
HETATM   24  C   UNL     1       6.979  31.873  59.020  1.00  0.00     0.053 A 
HETATM   25  C   UNL     1       7.882  30.879  59.056  1.00  0.00     0.036 A 
HETATM   26  C   UNL     1       9.152  30.986  59.845  1.00  0.00     0.070 C 
HETATM   27  N   UNL     1       8.400  28.588  58.272  1.00  0.00    -0.170 NA
HETATM   28  C   UNL     1       7.716  27.736  57.503  1.00  0.00     0.071 A 
HETATM   29  C   UNL     1       8.273  26.387  57.219  1.00  0.00     0.073 C 
ENDBRANCH   1  18
TORSDOF 6
ENDMDL
MODEL 7
REMARK VINA RESULT:      -8.6      3.651      6.317
REMARK  6 active torsions:
REMARK  status: ('A' for Active; 'I' for Inactive)
REMARK    1  A    between atoms: C_9  and  C_10 
REMARK       I    between atoms: C_10  and  N_11 
REMARK    2  A    between atoms: N_11  and  C_12 
REMARK    3  A    between atoms: C_12  and  C_13 
REMARK    4  A    between atoms: C_13  and  O_14 
REMARK    5  A    between atoms: C_13  and  C_15 
REMARK    6  A    between atoms: C_18  and  O_19 
ROOT
HETATM    1  C   UNL     1       6.461  25.768  54.856  1.00  0.00     0.258 C 
HETATM    2  N   UNL     1       7.165  26.920  54.585  1.00  0.00    -0.350 N 
HETATM    3  O   UNL     1       5.499  25.746  55.616  1.00  0.00    -0.267 OA
HETATM    4  H   UNL     1       8.017  26.833  54.032  1.00  0.00     0.163 HD
ENDROOT
BRANCH   2   5
HETATM    5  C   UNL     1       6.879  28.190  55.254  1.00  0.00     0.114 C 
HETATM    6  C   UNL     1       5.509  28.702  54.798  1.00  0.00     0.035 C 
BRANCH   5   7
HETATM    7  C   UNL     1       7.002  28.029  56.796  1.00  0.00     0.173 C 
BRANCH   7   8
HETATM    8  O   UNL     1       5.718  27.921  57.417  1.00  0.00    -0.389 OA
HETATM    9  H   UNL     1       5.756  28.448  58.234  1.00  0.00     0.210 HD
ENDBRANCH   7   8
BRANCH   7  10
HETATM   10  C   UNL     1       7.825  29.126  57.448  1.00  0.00    -0.028 A 
HETATM   11  C   UNL     1       7.189  30.077  58.258  1.00  0.00     0.012 A 
HETATM   12  C   UNL     1       7.928  31.076  58.895  1.00  0.00     0.037 A 
HETATM   13  C   UNL     1       9.315  31.139  58.751  1.00  0.00     0.068 A 
HETATM   14  C   UNL     1       9.955  30.203  57.940  1.00  0.00     0.037 A 
HETATM   15  C   UNL     1       9.216  29.206  57.292  1.00  0.00     0.012 A 
BRANCH  13  16
HETATM   16  O   UNL     1       9.916  32.155  59.441  1.00  0.00    -0.356 OA
HETATM   17  C   UNL     1       9.717  32.177  60.848  1.00  0.00     0.210 C 
ENDBRANCH  13  16
ENDBRANCH   7  10
ENDBRANCH   5   7
ENDBRANCH   2   5
BRANCH   1  18
HETATM   18  C   UNL     1       6.937  24.572  54.178  1.00  0.00     0.105 A 
HETATM   19  C   UNL     1       7.412  23.401  54.740  1.00  0.00     0.169 A 
HETATM   20  N   UNL     1       7.573  23.018  56.048  1.00  0.00    -0.233 NA
HETATM   21  N   UNL     1       7.754  22.561  53.672  1.00  0.00    -0.219 N 
HETATM   22  C   UNL     1       8.055  21.828  56.251  1.00  0.00     0.035 A 
HETATM   23  C   UNL     1       8.264  21.365  57.670  1.00  0.00     0.070 C 
HETATM   24  C   UNL     1       8.423  20.857  55.174  1.00  0.00     0.053 A 
HETATM   25  C   UNL     1       8.265  21.275  53.908  1.00  0.00     0.036 A 
HETATM   26  C   UNL     1       8.599  20.404  52.734  1.00  0.00     0.070 C 
HETATM   27  N   UNL     1       7.514  23.151  52.477  1.00  0.00    -0.170 NA
HETATM   28  C   UNL     1       7.015  24.354  52.778  1.00  0.00     0.071 A 
HETATM   29  C   UNL     1       6.616  25.282  51.687  1.00  0.00     0.073 C 
ENDBRANCH   1  18
TORSDOF 6
ENDMDL
MODEL 8
REMARK VINA RESULT:      -8.4      3.507      5.848
REMARK  6 active torsions:
REMARK  status: ('A' for Active; 'I' for Inactive)
REMARK    1  A    between atoms: C_9  and  C_10 
REMARK       I    between atoms: C_10  and  N_11 
REMARK    2  A    between atoms: N_11  and  C_12 
REMARK    3  A    between atoms: C_12  and  C_13 
REMARK    4  A    between atoms: C_13  and  O_14 
REMARK    5  A    between atoms: C_13  and  C_15 
REMARK    6  A    between atoms: C_18  and  O_19 
ROOT
HETATM    1  C   UNL     1       6.402  27.439  53.957  1.00  0.00     0.258 C 
HETATM    2  N   UNL     1       5.835  27.621  55.199  1.00  0.00    -0.350 N 
HETATM    3  O   UNL     1       6.657  28.373  53.204  1.00  0.00    -0.267 OA
HETATM    4  H   UNL     1       5.554  26.789  55.716  1.00  0.00     0.163 HD
ENDROOT
BRANCH   2   5
HETATM    5  C   UNL     1       5.404  28.935  55.679  1.00  0.00     0.114 C 
HETATM    6  C   UNL     1       4.013  29.245  55.118  1.00  0.00     0.035 C 
BRANCH   5   7
HETATM    7  C   UNL     1       5.477  28.995  57.231  1.00  0.00     0.173 C 
BRANCH   7   8
HETATM    8  O   UNL     1       4.263  29.500  57.795  1.00  0.00    -0.389 OA
HETATM    9  H   UNL     1       3.569  28.847  57.595  1.00  0.00     0.210 HD
ENDBRANCH   7   8
BRANCH   7  10
HETATM   10  C   UNL     1       6.674  29.776  57.744  1.00  0.00    -0.028 A 
HETATM   11  C   UNL     1       6.467  30.939  58.500  1.00  0.00     0.012 A 
HETATM   12  C   UNL     1       7.552  31.655  59.011  1.00  0.00     0.037 A 
HETATM   13  C   UNL     1       8.860  31.222  58.793  1.00  0.00     0.068 A 
HETATM   14  C   UNL     1       9.076  30.071  58.035  1.00  0.00     0.037 A 
HETATM   15  C   UNL     1       7.991  29.356  57.513  1.00  0.00     0.012 A 
BRANCH  13  16
HETATM   16  O   UNL     1       9.825  32.006  59.362  1.00  0.00    -0.356 OA
HETATM   17  C   UNL     1       9.781  32.149  60.775  1.00  0.00     0.210 C 
ENDBRANCH  13  16
ENDBRANCH   7  10
ENDBRANCH   5   7
ENDBRANCH   2   5
BRANCH   1  18
HETATM   18  C   UNL     1       6.683  26.058  53.597  1.00  0.00     0.105 A 
HETATM   19  C   UNL     1       7.298  25.082  54.360  1.00  0.00     0.169 A 
HETATM   20  N   UNL     1       7.808  25.109  55.634  1.00  0.00    -0.233 NA
HETATM   21  N   UNL     1       7.343  23.929  53.565  1.00  0.00    -0.219 N 
HETATM   22  C   UNL     1       8.333  24.004  56.074  1.00  0.00     0.035 A 
HETATM   23  C   UNL     1       8.920  23.985  57.461  1.00  0.00     0.070 C 
HETATM   24  C   UNL     1       8.401  22.722  55.306  1.00  0.00     0.053 A 
HETATM   25  C   UNL     1       7.905  22.741  54.057  1.00  0.00     0.036 A 
HETATM   26  C   UNL     1       7.914  21.527  53.178  1.00  0.00     0.070 C 
HETATM   27  N   UNL     1       6.787  24.141  52.349  1.00  0.00    -0.170 NA
HETATM   28  C   UNL     1       6.381  25.414  52.368  1.00  0.00     0.071 A 
HETATM   29  C   UNL     1       5.698  25.990  51.181  1.00  0.00     0.073 C 
ENDBRANCH   1  18
TORSDOF 6
ENDMDL
MODEL 9
REMARK VINA RESULT:      -8.4      3.498      9.251
REMARK  6 active torsions:
REMARK  status: ('A' for Active; 'I' for Inactive)
REMARK    1  A    between atoms: C_9  and  C_10 
REMARK       I    between atoms: C_10  and  N_11 
REMARK    2  A    between atoms: N_11  and  C_12 
REMARK    3  A    between atoms: C_12  and  C_13 
REMARK    4  A    between atoms: C_13  and  O_14 
REMARK    5  A    between atoms: C_13  and  C_15 
REMARK    6  A    between atoms: C_18  and  O_19 
ROOT
HETATM    1  C   UNL     1       7.274  28.631  57.564  1.00  0.00     0.258 C 
HETATM    2  N   UNL     1       6.376  27.752  57.000  1.00  0.00    -0.350 N 
HETATM    3  O   UNL     1       8.410  28.299  57.885  1.00  0.00    -0.267 OA
HETATM    4  H   UNL     1       5.419  28.077  56.866  1.00  0.00     0.163 HD
ENDROOT
BRANCH   2   5
HETATM    5  C   UNL     1       6.674  26.330  56.827  1.00  0.00     0.114 C 
HETATM    6  C   UNL     1       5.390  25.519  57.020  1.00  0.00     0.035 C 
BRANCH   5   7
HETATM    7  C   UNL     1       7.366  26.084  55.456  1.00  0.00     0.173 C 
BRANCH   7   8
HETATM    8  O   UNL     1       6.604  26.637  54.378  1.00  0.00    -0.389 OA
HETATM    9  H   UNL     1       6.392  25.900  53.778  1.00  0.00     0.210 HD
ENDBRANCH   7   8
BRANCH   7  10
HETATM   10  C   UNL     1       7.681  24.621  55.198  1.00  0.00    -0.028 A 
HETATM   11  C   UNL     1       7.226  24.015  54.019  1.00  0.00     0.012 A 
HETATM   12  C   UNL     1       7.532  22.680  53.744  1.00  0.00     0.037 A 
HETATM   13  C   UNL     1       8.307  21.929  54.628  1.00  0.00     0.068 A 
HETATM   14  C   UNL     1       8.756  22.521  55.807  1.00  0.00     0.037 A 
HETATM   15  C   UNL     1       8.444  23.856  56.091  1.00  0.00     0.012 A 
BRANCH  13  16
HETATM   16  O   UNL     1       8.544  20.642  54.229  1.00  0.00    -0.356 OA
HETATM   17  C   UNL     1       8.392  20.364  52.844  1.00  0.00     0.210 C 
ENDBRANCH  13  16
ENDBRANCH   7  10
ENDBRANCH   5   7
ENDBRANCH   2   5
BRANCH   1  18
HETATM   18  C   UNL     1       6.784  29.988  57.753  1.00  0.00     0.105 A 
HETATM   19  C   UNL     1       5.837  30.667  57.008  1.00  0.00     0.169 A 
HETATM   20  N   UNL     1       5.097  30.291  55.914  1.00  0.00    -0.233 NA
HETATM   21  N   UNL     1       5.723  31.941  57.581  1.00  0.00    -0.219 N 
HETATM   22  C   UNL     1       4.276  31.178  55.435  1.00  0.00     0.035 A 
HETATM   23  C   UNL     1       3.451  30.820  54.226  1.00  0.00     0.070 C 
HETATM   24  C   UNL     1       4.071  32.550  55.997  1.00  0.00     0.053 A 
HETATM   25  C   UNL     1       4.825  32.883  57.058  1.00  0.00     0.036 A 
HETATM   26  C   UNL     1       4.724  34.227  57.715  1.00  0.00     0.070 C 
HETATM   27  N   UNL     1       6.551  32.085  58.643  1.00  0.00    -0.170 NA
HETATM   28  C   UNL     1       7.181  30.912  58.754  1.00  0.00     0.071 A 
HETATM   29  C   UNL     1       8.170  30.705  59.845  1.00  0.00     0.073 C 
ENDBRANCH   1  18
TORSDOF 6
ENDMDL
MODEL 10
REMARK VINA RESULT:      -8.4      3.865      8.926
REMARK  6 active torsions:
REMARK  status: ('A' for Active; 'I' for Inactive)
REMARK    1  A    between atoms: C_9  and  C_10 
REMARK       I    between atoms: C_10  and  N_11 
REMARK    2  A    between atoms: N_11  and  C_12 
REMARK    3  A    between atoms: C_12  and  C_13 
REMARK    4  A    between atoms: C_13  and  O_14 
REMARK    5  A    between atoms: C_13  and  C_15 
REMARK    6  A    between atoms: C_18  and  O_19 
ROOT
HETATM    1  C   UNL     1       7.237  27.629  56.056  1.00  0.00     0.258 C 
HETATM    2  N   UNL     1       7.138  26.426  56.719  1.00  0.00    -0.350 N 
HETATM    3  O   UNL     1       7.924  27.774  55.051  1.00  0.00    -0.267 OA
HETATM    4  H   UNL     1       6.637  26.417  57.607  1.00  0.00     0.163 HD
ENDROOT
BRANCH   2   5
HETATM    5  C   UNL     1       7.919  25.250  56.331  1.00  0.00     0.114 C 
HETATM    6  C   UNL     1       8.636  24.693  57.564  1.00  0.00     0.035 C 
BRANCH   5   7
HETATM    7  C   UNL     1       7.011  24.210  55.614  1.00  0.00     0.173 C 
BRANCH   7   8
HETATM    8  O   UNL     1       7.618  22.915  55.588  1.00  0.00    -0.389 OA
HETATM    9  H   UNL     1       8.490  23.022  55.170  1.00  0.00     0.210 HD
ENDBRANCH   7   8
BRANCH   7  10
HETATM   10  C   UNL     1       6.597  24.639  54.218  1.00  0.00    -0.028 A 
HETATM   11  C   UNL     1       5.253  24.941  53.959  1.00  0.00     0.012 A 
HETATM   12  C   UNL     1       4.853  25.371  52.692  1.00  0.00     0.037 A 
HETATM   13  C   UNL     1       5.784  25.521  51.663  1.00  0.00     0.068 A 
HETATM   14  C   UNL     1       7.121  25.214  51.908  1.00  0.00     0.037 A 
HETATM   15  C   UNL     1       7.524  24.775  53.175  1.00  0.00     0.012 A 
BRANCH  13  16
HETATM   16  O   UNL     1       5.261  25.963  50.479  1.00  0.00    -0.356 OA
HETATM   17  C   UNL     1       5.207  27.370  50.290  1.00  0.00     0.210 C 
ENDBRANCH  13  16
ENDBRANCH   7  10
ENDBRANCH   5   7
ENDBRANCH   2   5
BRANCH   1  18
HETATM   18  C   UNL     1       6.468  28.722  56.630  1.00  0.00     0.105 A 
HETATM   19  C   UNL     1       6.849  29.609  57.621  1.00  0.00     0.169 A 
HETATM   20  N   UNL     1       8.015  29.732  58.334  1.00  0.00    -0.233 NA
HETATM   21  N   UNL     1       5.757  30.463  57.829  1.00  0.00    -0.219 N 
HETATM   22  C   UNL     1       8.061  30.688  59.214  1.00  0.00     0.035 A 
HETATM   23  C   UNL     1       9.314  30.856  60.034  1.00  0.00     0.070 C 
HETATM   24  C   UNL     1       6.955  31.659  59.484  1.00  0.00     0.053 A 
HETATM   25  C   UNL     1       5.826  31.496  58.776  1.00  0.00     0.036 A 
HETATM   26  C   UNL     1       4.639  32.396  58.951  1.00  0.00     0.070 C 
HETATM   27  N   UNL     1       4.719  30.149  57.017  1.00  0.00    -0.170 NA
HETATM   28  C   UNL     1       5.146  29.112  56.291  1.00  0.00     0.071 A 
HETATM   29  C   UNL     1       4.253  28.511  55.265  1.00  0.00     0.073 C 
ENDBRANCH   1  18
TORSDOF 6
ENDMDL
