MODEL 1
REMARK VINA RESULT:      -8.7      0.000      0.000
REMARK  4 active torsions:
REMARK  status: ('A' for Active; 'I' for Inactive)
REMARK    1  A    between atoms: C_9  and  C_10 
REMARK       I    between atoms: C_10  and  N_11 
REMARK    2  A    between atoms: N_11  and  C_12 
REMARK    3  A    between atoms: C_13  and  N_14 
REMARK    4  A    between atoms: C_17  and  O_18 
ROOT
HETATM    1  C   UNL     1       3.861  32.383  61.834  1.00  0.00     0.257 C 
HETATM    2  N   UNL     1       3.437  33.585  62.333  1.00  0.00    -0.321 N 
HETATM    3  O   UNL     1       3.179  31.373  62.019  1.00  0.00    -0.267 OA
HETATM    4  H   UNL     1       2.458  33.584  62.585  1.00  0.00     0.169 HD
ENDROOT
BRANCH   2   5
HETATM    5  C   UNL     1       4.152  34.787  62.523  1.00  0.00     0.061 C 
HETATM    6  C   UNL     1       4.689  35.204  63.770  1.00  0.00     0.057 C 
HETATM    7  C   UNL     1       5.498  36.356  63.750  1.00  0.00     0.031 C 
HETATM    8  C   UNL     1       5.686  37.114  62.588  1.00  0.00     0.002 C 
HETATM    9  C   UNL     1       5.062  36.742  61.406  1.00  0.00     0.002 C 
HETATM   10  C   UNL     1       4.288  35.587  61.377  1.00  0.00     0.032 C 
BRANCH   6  11
HETATM   11  N   UNL     1       4.362  34.573  64.975  1.00  0.00    -0.379 N 
HETATM   12  C   UNL     1       5.272  33.615  65.620  1.00  0.00     0.125 C 
HETATM   13  C   UNL     1       6.121  34.271  66.708  1.00  0.00     0.051 C 
HETATM   14  C   UNL     1       5.265  35.059  67.697  1.00  0.00     0.121 C 
HETATM   15  C   UNL     1       4.348  36.036  66.970  1.00  0.00     0.051 C 
HETATM   16  C   UNL     1       3.504  35.325  65.915  1.00  0.00     0.125 C 
BRANCH  14  17
HETATM   17  O   UNL     1       4.472  34.176  68.488  1.00  0.00    -0.395 OA
HETATM   18  H   UNL     1       5.042  33.446  68.789  1.00  0.00     0.210 HD
ENDBRANCH  14  17
ENDBRANCH   6  11
ENDBRANCH   2   5
BRANCH   1  19
HETATM   19  C   UNL     1       5.040  32.329  60.927  1.00  0.00     0.050 A 
HETATM   20  C   UNL     1       6.438  32.219  61.386  1.00  0.00     0.006 A 
HETATM   21  C   UNL     1       6.807  32.179  62.738  1.00  0.00     0.015 A 
HETATM   22  C   UNL     1       7.455  32.210  60.420  1.00  0.00     0.046 A 
HETATM   23  C   UNL     1       8.154  32.104  63.108  1.00  0.00     0.001 A 
HETATM   24  C   UNL     1       9.149  32.077  62.133  1.00  0.00     0.002 A 
HETATM   25  C   UNL     1       8.801  32.131  60.785  1.00  0.00     0.030 A 
HETATM   26  N   UNL     1       7.122  32.313  59.064  1.00  0.00    -0.323 N 
HETATM   27  C   UNL     1       5.843  32.467  58.610  1.00  0.00     0.246 A 
HETATM   28  H   UNL     1       7.844  32.307  58.357  1.00  0.00     0.169 HD
HETATM   29  O   UNL     1       5.585  32.553  57.415  1.00  0.00    -0.268 OA
HETATM   30  C   UNL     1       4.773  32.513  59.624  1.00  0.00     0.092 A 
ENDBRANCH   1  19
TORSDOF 4
ENDMDL
MODEL 2
REMARK VINA RESULT:      -8.6      6.597      9.533
REMARK  4 active torsions:
REMARK  status: ('A' for Active; 'I' for Inactive)
REMARK    1  A    between atoms: C_9  and  C_10 
REMARK       I    between atoms: C_10  and  N_11 
REMARK    2  A    between atoms: N_11  and  C_12 
REMARK    3  A    between atoms: C_13  and  N_14 
REMARK    4  A    between atoms: C_17  and  O_18 
ROOT
HETATM    1  C   UNL     1       6.049  27.066  56.432  1.00  0.00     0.257 C 
HETATM    2  N   UNL     1       6.464  28.335  56.130  1.00  0.00    -0.321 N 
HETATM    3  O   UNL     1       4.850  26.847  56.615  1.00  0.00    -0.267 OA
HETATM    4  H   UNL     1       5.711  28.934  55.821  1.00  0.00     0.169 HD
ENDROOT
BRANCH   2   5
HETATM    5  C   UNL     1       7.759  28.897  56.176  1.00  0.00     0.061 C 
HETATM    6  C   UNL     1       8.321  29.505  57.330  1.00  0.00     0.057 C 
HETATM    7  C   UNL     1       9.674  29.881  57.244  1.00  0.00     0.031 C 
HETATM    8  C   UNL     1      10.407  29.759  56.058  1.00  0.00     0.002 C 
HETATM    9  C   UNL     1       9.801  29.259  54.914  1.00  0.00     0.002 C 
HETATM   10  C   UNL     1       8.477  28.839  54.971  1.00  0.00     0.032 C 
BRANCH   6  11
HETATM   11  N   UNL     1       7.558  29.810  58.462  1.00  0.00    -0.379 N 
HETATM   12  C   UNL     1       8.175  30.302  59.703  1.00  0.00     0.125 C 
HETATM   13  C   UNL     1       8.125  31.826  59.806  1.00  0.00     0.051 C 
HETATM   14  C   UNL     1       6.715  32.364  59.573  1.00  0.00     0.121 C 
HETATM   15  C   UNL     1       6.132  31.823  58.272  1.00  0.00     0.051 C 
HETATM   16  C   UNL     1       6.181  30.297  58.234  1.00  0.00     0.125 C 
BRANCH  14  17
HETATM   17  O   UNL     1       5.856  32.005  60.654  1.00  0.00    -0.395 OA
HETATM   18  H   UNL     1       5.769  32.779  61.238  1.00  0.00     0.210 HD
ENDBRANCH  14  17
ENDBRANCH   6  11
ENDBRANCH   2   5
BRANCH   1  19
HETATM   19  C   UNL     1       7.011  25.933  56.364  1.00  0.00     0.050 A 
HETATM   20  C   UNL     1       7.179  25.054  55.190  1.00  0.00     0.006 A 
HETATM   21  C   UNL     1       6.426  25.181  54.015  1.00  0.00     0.015 A 
HETATM   22  C   UNL     1       8.104  24.002  55.276  1.00  0.00     0.046 A 
HETATM   23  C   UNL     1       6.614  24.296  52.948  1.00  0.00     0.001 A 
HETATM   24  C   UNL     1       7.550  23.269  53.045  1.00  0.00     0.002 A 
HETATM   25  C   UNL     1       8.297  23.118  54.212  1.00  0.00     0.030 A 
HETATM   26  N   UNL     1       8.825  23.810  56.460  1.00  0.00    -0.323 N 
HETATM   27  C   UNL     1       8.655  24.573  57.580  1.00  0.00     0.246 A 
HETATM   28  H   UNL     1       9.494  23.057  56.536  1.00  0.00     0.169 HD
HETATM   29  O   UNL     1       9.306  24.380  58.602  1.00  0.00    -0.268 OA
HETATM   30  C   UNL     1       7.659  25.659  57.507  1.00  0.00     0.092 A 
ENDBRANCH   1  19
TORSDOF 4
ENDMDL
MODEL 3
REMARK VINA RESULT:      -8.5      6.445      9.812
REMARK  4 active torsions:
REMARK  status: ('A' for Active; 'I' for Inactive)
REMARK    1  A    between atoms: C_9  and  C_10 
REMARK       I    between atoms: C_10  and  N_11 
REMARK    2  A    between atoms: N_11  and  C_12 
REMARK    3  A    between atoms: C_13  and  N_14 
REMARK    4  A    between atoms: C_17  and  O_18 
ROOT
HETATM    1  C   UNL     1       5.959  27.884  53.992  1.00  0.00     0.257 C 
HETATM    2  N   UNL     1       6.680  28.971  54.409  1.00  0.00    -0.321 N 
HETATM    3  O   UNL     1       5.332  27.941  52.933  1.00  0.00    -0.267 OA
HETATM    4  H   UNL     1       6.849  29.640  53.670  1.00  0.00     0.169 HD
ENDROOT
BRANCH   2   5
HETATM    5  C   UNL     1       7.213  29.267  55.682  1.00  0.00     0.061 C 
HETATM    6  C   UNL     1       6.490  29.922  56.714  1.00  0.00     0.057 C 
HETATM    7  C   UNL     1       7.124  30.006  57.968  1.00  0.00     0.031 C 
HETATM    8  C   UNL     1       8.436  29.562  58.170  1.00  0.00     0.002 C 
HETATM    9  C   UNL     1       9.158  29.021  57.115  1.00  0.00     0.002 C 
HETATM   10  C   UNL     1       8.551  28.883  55.872  1.00  0.00     0.032 C 
BRANCH   6  11
HETATM   11  N   UNL     1       5.257  30.542  56.487  1.00  0.00    -0.379 N 
HETATM   12  C   UNL     1       4.046  30.152  57.224  1.00  0.00     0.125 C 
HETATM   13  C   UNL     1       3.782  31.066  58.421  1.00  0.00     0.051 C 
HETATM   14  C   UNL     1       3.805  32.540  58.025  1.00  0.00     0.121 C 
HETATM   15  C   UNL     1       5.084  32.883  57.269  1.00  0.00     0.051 C 
HETATM   16  C   UNL     1       5.284  31.960  56.069  1.00  0.00     0.125 C 
BRANCH  14  17
HETATM   17  O   UNL     1       2.681  32.857  57.207  1.00  0.00    -0.395 OA
HETATM   18  H   UNL     1       2.545  33.821  57.243  1.00  0.00     0.210 HD
ENDBRANCH  14  17
ENDBRANCH   6  11
ENDBRANCH   2   5
BRANCH   1  19
HETATM   19  C   UNL     1       6.076  26.591  54.719  1.00  0.00     0.050 A 
HETATM   20  C   UNL     1       6.813  25.417  54.215  1.00  0.00     0.006 A 
HETATM   21  C   UNL     1       7.468  25.388  52.976  1.00  0.00     0.015 A 
HETATM   22  C   UNL     1       6.814  24.249  54.994  1.00  0.00     0.046 A 
HETATM   23  C   UNL     1       8.125  24.232  52.543  1.00  0.00     0.001 A 
HETATM   24  C   UNL     1       8.131  23.088  53.338  1.00  0.00     0.002 A 
HETATM   25  C   UNL     1       7.473  23.094  54.566  1.00  0.00     0.030 A 
HETATM   26  N   UNL     1       6.116  24.226  56.206  1.00  0.00    -0.323 N 
HETATM   27  C   UNL     1       5.382  25.278  56.675  1.00  0.00     0.246 A 
HETATM   28  H   UNL     1       6.108  23.392  56.777  1.00  0.00     0.169 HD
HETATM   29  O   UNL     1       4.783  25.226  57.744  1.00  0.00    -0.268 OA
HETATM   30  C   UNL     1       5.349  26.496  55.844  1.00  0.00     0.092 A 
ENDBRANCH   1  19
TORSDOF 4
ENDMDL
MODEL 4
REMARK VINA RESULT:      -8.1     12.315     15.335
REMARK  4 active torsions:
REMARK  status: ('A' for Active; 'I' for Inactive)
REMARK    1  A    between atoms: C_9  and  C_10 
REMARK       I    between atoms: C_10  and  N_11 
REMARK    2  A    between atoms: N_11  and  C_12 
REMARK    3  A    between atoms: C_13  and  N_14 
REMARK    4  A    between atoms: C_17  and  O_18 
ROOT
HETATM    1  C   UNL     1       5.267  27.954  47.966  1.00  0.00     0.257 C 
HETATM    2  N   UNL     1       5.654  28.324  49.226  1.00  0.00    -0.321 N 
HETATM    3  O   UNL     1       6.040  28.117  47.020  1.00  0.00    -0.267 OA
HETATM    4  H   UNL     1       6.653  28.456  49.310  1.00  0.00     0.169 HD
ENDROOT
BRANCH   2   5
HETATM    5  C   UNL     1       4.877  28.524  50.387  1.00  0.00     0.061 C 
HETATM    6  C   UNL     1       4.985  27.734  51.562  1.00  0.00     0.057 C 
HETATM    7  C   UNL     1       4.239  28.162  52.677  1.00  0.00     0.031 C 
HETATM    8  C   UNL     1       3.358  29.248  52.611  1.00  0.00     0.002 C 
HETATM    9  C   UNL     1       3.193  29.938  51.418  1.00  0.00     0.002 C 
HETATM   10  C   UNL     1       3.943  29.570  50.306  1.00  0.00     0.032 C 
BRANCH   6  11
HETATM   11  N   UNL     1       5.710  26.538  51.596  1.00  0.00    -0.379 N 
HETATM   12  C   UNL     1       7.019  26.445  52.258  1.00  0.00     0.125 C 
HETATM   13  C   UNL     1       6.908  25.898  53.681  1.00  0.00     0.051 C 
HETATM   14  C   UNL     1       6.108  24.600  53.729  1.00  0.00     0.121 C 
HETATM   15  C   UNL     1       4.761  24.761  53.032  1.00  0.00     0.051 C 
HETATM   16  C   UNL     1       4.932  25.281  51.607  1.00  0.00     0.125 C 
BRANCH  14  17
HETATM   17  O   UNL     1       6.832  23.541  53.105  1.00  0.00    -0.395 OA
HETATM   18  H   UNL     1       6.544  23.485  52.176  1.00  0.00     0.210 HD
ENDBRANCH  14  17
ENDBRANCH   6  11
ENDBRANCH   2   5
BRANCH   1  19
HETATM   19  C   UNL     1       3.999  27.201  47.768  1.00  0.00     0.050 A 
HETATM   20  C   UNL     1       2.744  27.801  47.278  1.00  0.00     0.006 A 
HETATM   21  C   UNL     1       2.606  29.161  46.967  1.00  0.00     0.015 A 
HETATM   22  C   UNL     1       1.613  26.977  47.169  1.00  0.00     0.046 A 
HETATM   23  C   UNL     1       1.379  29.673  46.534  1.00  0.00     0.001 A 
HETATM   24  C   UNL     1       0.271  28.835  46.414  1.00  0.00     0.002 A 
HETATM   25  C   UNL     1       0.386  27.484  46.733  1.00  0.00     0.030 A 
HETATM   26  N   UNL     1       1.701  25.628  47.533  1.00  0.00    -0.323 N 
HETATM   27  C   UNL     1       2.834  25.056  48.038  1.00  0.00     0.246 A 
HETATM   28  H   UNL     1       0.896  25.024  47.459  1.00  0.00     0.169 HD
HETATM   29  O   UNL     1       2.879  23.870  48.345  1.00  0.00    -0.268 OA
HETATM   30  C   UNL     1       4.015  25.925  48.188  1.00  0.00     0.092 A 
ENDBRANCH   1  19
TORSDOF 4
ENDMDL
MODEL 5
REMARK VINA RESULT:      -8.0      6.837     10.036
REMARK  4 active torsions:
REMARK  status: ('A' for Active; 'I' for Inactive)
REMARK    1  A    between atoms: C_9  and  C_10 
REMARK       I    between atoms: C_10  and  N_11 
REMARK    2  A    between atoms: N_11  and  C_12 
REMARK    3  A    between atoms: C_13  and  N_14 
REMARK    4  A    between atoms: C_17  and  O_18 
ROOT
HETATM    1  C   UNL     1       5.286  25.720  56.729  1.00  0.00     0.257 C 
HETATM    2  N   UNL     1       5.565  26.846  57.455  1.00  0.00    -0.321 N 
HETATM    3  O   UNL     1       4.597  24.829  57.229  1.00  0.00    -0.267 OA
HETATM    4  H   UNL     1       4.953  26.964  58.251  1.00  0.00     0.169 HD
ENDROOT
BRANCH   2   5
HETATM    5  C   UNL     1       6.547  27.838  57.242  1.00  0.00     0.061 C 
HETATM    6  C   UNL     1       6.260  29.221  57.092  1.00  0.00     0.057 C 
HETATM    7  C   UNL     1       7.368  30.088  57.034  1.00  0.00     0.031 C 
HETATM    8  C   UNL     1       8.685  29.614  57.022  1.00  0.00     0.002 C 
HETATM    9  C   UNL     1       8.933  28.249  57.063  1.00  0.00     0.002 C 
HETATM   10  C   UNL     1       7.866  27.363  57.162  1.00  0.00     0.032 C 
BRANCH   6  11
HETATM   11  N   UNL     1       4.959  29.700  56.911  1.00  0.00    -0.379 N 
HETATM   12  C   UNL     1       4.238  30.408  57.979  1.00  0.00     0.125 C 
HETATM   13  C   UNL     1       4.341  31.926  57.836  1.00  0.00     0.051 C 
HETATM   14  C   UNL     1       3.958  32.390  56.433  1.00  0.00     0.121 C 
HETATM   15  C   UNL     1       4.740  31.625  55.371  1.00  0.00     0.051 C 
HETATM   16  C   UNL     1       4.580  30.116  55.544  1.00  0.00     0.125 C 
BRANCH  14  17
HETATM   17  O   UNL     1       2.562  32.206  56.207  1.00  0.00    -0.395 OA
HETATM   18  H   UNL     1       2.445  31.869  55.300  1.00  0.00     0.210 HD
ENDBRANCH  14  17
ENDBRANCH   6  11
ENDBRANCH   2   5
BRANCH   1  19
HETATM   19  C   UNL     1       5.661  25.650  55.291  1.00  0.00     0.050 A 
HETATM   20  C   UNL     1       6.577  24.646  54.718  1.00  0.00     0.006 A 
HETATM   21  C   UNL     1       7.215  23.657  55.479  1.00  0.00     0.015 A 
HETATM   22  C   UNL     1       6.868  24.717  53.346  1.00  0.00     0.046 A 
HETATM   23  C   UNL     1       8.096  22.751  54.880  1.00  0.00     0.001 A 
HETATM   24  C   UNL     1       8.357  22.826  53.513  1.00  0.00     0.002 A 
HETATM   25  C   UNL     1       7.744  23.812  52.743  1.00  0.00     0.030 A 
HETATM   26  N   UNL     1       6.297  25.733  52.571  1.00  0.00    -0.323 N 
HETATM   27  C   UNL     1       5.487  26.708  53.080  1.00  0.00     0.246 A 
HETATM   28  H   UNL     1       6.496  25.796  51.582  1.00  0.00     0.169 HD
HETATM   29  O   UNL     1       5.000  27.582  52.372  1.00  0.00    -0.268 OA
HETATM   30  C   UNL     1       5.207  26.657  54.527  1.00  0.00     0.092 A 
ENDBRANCH   1  19
TORSDOF 4
ENDMDL
MODEL 6
REMARK VINA RESULT:      -7.9      1.711      6.770
REMARK  4 active torsions:
REMARK  status: ('A' for Active; 'I' for Inactive)
REMARK    1  A    between atoms: C_9  and  C_10 
REMARK       I    between atoms: C_10  and  N_11 
REMARK    2  A    between atoms: N_11  and  C_12 
REMARK    3  A    between atoms: C_13  and  N_14 
REMARK    4  A    between atoms: C_17  and  O_18 
ROOT
HETATM    1  C   UNL     1       2.822  33.901  63.656  1.00  0.00     0.257 C 
HETATM    2  N   UNL     1       3.457  32.853  63.046  1.00  0.00    -0.321 N 
HETATM    3  O   UNL     1       1.597  33.878  63.784  1.00  0.00    -0.267 OA
HETATM    4  H   UNL     1       2.884  32.022  62.990  1.00  0.00     0.169 HD
ENDROOT
BRANCH   2   5
HETATM    5  C   UNL     1       4.763  32.773  62.516  1.00  0.00     0.061 C 
HETATM    6  C   UNL     1       5.082  32.999  61.150  1.00  0.00     0.057 C 
HETATM    7  C   UNL     1       6.451  33.022  60.822  1.00  0.00     0.031 C 
HETATM    8  C   UNL     1       7.447  32.740  61.763  1.00  0.00     0.002 C 
HETATM    9  C   UNL     1       7.101  32.417  63.068  1.00  0.00     0.002 C 
HETATM   10  C   UNL     1       5.761  32.424  63.440  1.00  0.00     0.032 C 
BRANCH   6  11
HETATM   11  N   UNL     1       4.101  33.095  60.158  1.00  0.00    -0.379 N 
HETATM   12  C   UNL     1       4.112  34.174  59.160  1.00  0.00     0.125 C 
HETATM   13  C   UNL     1       4.763  33.738  57.848  1.00  0.00     0.051 C 
HETATM   14  C   UNL     1       4.169  32.433  57.327  1.00  0.00     0.121 C 
HETATM   15  C   UNL     1       4.189  31.354  58.403  1.00  0.00     0.051 C 
HETATM   16  C   UNL     1       3.502  31.831  59.681  1.00  0.00     0.125 C 
BRANCH  14  17
HETATM   17  O   UNL     1       2.825  32.632  56.891  1.00  0.00    -0.395 OA
HETATM   18  H   UNL     1       2.852  33.028  56.002  1.00  0.00     0.210 HD
ENDBRANCH  14  17
ENDBRANCH   6  11
ENDBRANCH   2   5
BRANCH   1  19
HETATM   19  C   UNL     1       3.619  34.971  64.314  1.00  0.00     0.050 A 
HETATM   20  C   UNL     1       4.191  36.134  63.610  1.00  0.00     0.006 A 
HETATM   21  C   UNL     1       4.065  36.342  62.229  1.00  0.00     0.015 A 
HETATM   22  C   UNL     1       4.949  37.053  64.352  1.00  0.00     0.046 A 
HETATM   23  C   UNL     1       4.658  37.450  61.617  1.00  0.00     0.001 A 
HETATM   24  C   UNL     1       5.391  38.362  62.374  1.00  0.00     0.002 A 
HETATM   25  C   UNL     1       5.540  38.164  63.745  1.00  0.00     0.030 A 
HETATM   26  N   UNL     1       5.148  36.839  65.721  1.00  0.00    -0.323 N 
HETATM   27  C   UNL     1       4.675  35.747  66.392  1.00  0.00     0.246 A 
HETATM   28  H   UNL     1       5.691  37.493  66.268  1.00  0.00     0.169 HD
HETATM   29  O   UNL     1       4.864  35.591  67.593  1.00  0.00    -0.268 OA
HETATM   30  C   UNL     1       3.907  34.761  65.609  1.00  0.00     0.092 A 
ENDBRANCH   1  19
TORSDOF 4
ENDMDL
MODEL 7
REMARK VINA RESULT:      -7.8      2.427      5.002
REMARK  4 active torsions:
REMARK  status: ('A' for Active; 'I' for Inactive)
REMARK    1  A    between atoms: C_9  and  C_10 
REMARK       I    between atoms: C_10  and  N_11 
REMARK    2  A    between atoms: N_11  and  C_12 
REMARK    3  A    between atoms: C_13  and  N_14 
REMARK    4  A    between atoms: C_17  and  O_18 
ROOT
HETATM    1  C   UNL     1       2.983  34.377  63.376  1.00  0.00     0.257 C 
HETATM    2  N   UNL     1       2.958  35.734  63.197  1.00  0.00    -0.321 N 
HETATM    3  O   UNL     1       2.102  33.836  64.048  1.00  0.00    -0.267 OA
HETATM    4  H   UNL     1       2.060  36.145  63.415  1.00  0.00     0.169 HD
ENDROOT
BRANCH   2   5
HETATM    5  C   UNL     1       3.975  36.605  62.751  1.00  0.00     0.061 C 
HETATM    6  C   UNL     1       4.079  37.092  61.421  1.00  0.00     0.057 C 
HETATM    7  C   UNL     1       5.067  38.065  61.184  1.00  0.00     0.031 C 
HETATM    8  C   UNL     1       5.971  38.465  62.176  1.00  0.00     0.002 C 
HETATM    9  C   UNL     1       5.915  37.894  63.439  1.00  0.00     0.002 C 
HETATM   10  C   UNL     1       4.925  36.959  63.723  1.00  0.00     0.032 C 
BRANCH   6  11
HETATM   11  N   UNL     1       3.314  36.571  60.371  1.00  0.00    -0.379 N 
HETATM   12  C   UNL     1       2.056  37.199  59.943  1.00  0.00     0.125 C 
HETATM   13  C   UNL     1       2.255  38.128  58.746  1.00  0.00     0.051 C 
HETATM   14  C   UNL     1       3.008  37.437  57.612  1.00  0.00     0.121 C 
HETATM   15  C   UNL     1       4.302  36.810  58.116  1.00  0.00     0.051 C 
HETATM   16  C   UNL     1       4.043  35.872  59.292  1.00  0.00     0.125 C 
BRANCH  14  17
HETATM   17  O   UNL     1       2.199  36.423  57.017  1.00  0.00    -0.395 OA
HETATM   18  H   UNL     1       1.876  36.758  56.162  1.00  0.00     0.210 HD
ENDBRANCH  14  17
ENDBRANCH   6  11
ENDBRANCH   2   5
BRANCH   1  19
HETATM   19  C   UNL     1       3.959  33.546  62.622  1.00  0.00     0.050 A 
HETATM   20  C   UNL     1       5.337  33.267  63.072  1.00  0.00     0.006 A 
HETATM   21  C   UNL     1       5.883  33.781  64.256  1.00  0.00     0.015 A 
HETATM   22  C   UNL     1       6.162  32.490  62.244  1.00  0.00     0.046 A 
HETATM   23  C   UNL     1       7.206  33.504  64.612  1.00  0.00     0.001 A 
HETATM   24  C   UNL     1       8.004  32.714  63.786  1.00  0.00     0.002 A 
HETATM   25  C   UNL     1       7.483  32.207  62.598  1.00  0.00     0.030 A 
HETATM   26  N   UNL     1       5.666  32.015  61.024  1.00  0.00    -0.323 N 
HETATM   27  C   UNL     1       4.415  32.298  60.556  1.00  0.00     0.246 A 
HETATM   28  H   UNL     1       6.248  31.454  60.418  1.00  0.00     0.169 HD
HETATM   29  O   UNL     1       4.010  31.863  59.483  1.00  0.00    -0.268 OA
HETATM   30  C   UNL     1       3.556  33.143  61.406  1.00  0.00     0.092 A 
ENDBRANCH   1  19
TORSDOF 4
ENDMDL
MODEL 8
REMARK VINA RESULT:      -7.7      8.538     12.768
REMARK  4 active torsions:
REMARK  status: ('A' for Active; 'I' for Inactive)
REMARK    1  A    between atoms: C_9  and  C_10 
REMARK       I    between atoms: C_10  and  N_11 
REMARK    2  A    between atoms: N_11  and  C_12 
REMARK    3  A    between atoms: C_13  and  N_14 
REMARK    4  A    between atoms: C_17  and  O_18 
ROOT
HETATM    1  C   UNL     1       7.778  25.949  57.300  1.00  0.00     0.257 C 
HETATM    2  N   UNL     1       8.015  25.004  56.340  1.00  0.00    -0.321 N 
HETATM    3  O   UNL     1       7.730  25.614  58.485  1.00  0.00    -0.267 OA
HETATM    4  H   UNL     1       8.397  24.146  56.716  1.00  0.00     0.169 HD
ENDROOT
BRANCH   2   5
HETATM    5  C   UNL     1       7.820  25.066  54.943  1.00  0.00     0.061 C 
HETATM    6  C   UNL     1       8.091  23.992  54.054  1.00  0.00     0.057 C 
HETATM    7  C   UNL     1       7.702  24.175  52.714  1.00  0.00     0.031 C 
HETATM    8  C   UNL     1       7.169  25.383  52.251  1.00  0.00     0.002 C 
HETATM    9  C   UNL     1       7.014  26.453  53.121  1.00  0.00     0.002 C 
HETATM   10  C   UNL     1       7.348  26.298  54.462  1.00  0.00     0.032 C 
BRANCH   6  11
HETATM   11  N   UNL     1       8.794  22.850  54.452  1.00  0.00    -0.379 N 
HETATM   12  C   UNL     1       8.649  22.280  55.799  1.00  0.00     0.125 C 
HETATM   13  C   UNL     1       7.643  21.130  55.832  1.00  0.00     0.051 C 
HETATM   14  C   UNL     1       7.941  20.086  54.759  1.00  0.00     0.121 C 
HETATM   15  C   UNL     1       8.076  20.736  53.386  1.00  0.00     0.051 C 
HETATM   16  C   UNL     1       9.112  21.858  53.403  1.00  0.00     0.125 C 
BRANCH  14  17
HETATM   17  O   UNL     1       9.144  19.383  55.062  1.00  0.00    -0.395 OA
HETATM   18  H   UNL     1       9.695  19.957  55.623  1.00  0.00     0.210 HD
ENDBRANCH  14  17
ENDBRANCH   6  11
ENDBRANCH   2   5
BRANCH   1  19
HETATM   19  C   UNL     1       7.756  27.392  56.934  1.00  0.00     0.050 A 
HETATM   20  C   UNL     1       6.529  28.155  56.636  1.00  0.00     0.006 A 
HETATM   21  C   UNL     1       5.246  27.591  56.643  1.00  0.00     0.015 A 
HETATM   22  C   UNL     1       6.658  29.505  56.274  1.00  0.00     0.046 A 
HETATM   23  C   UNL     1       4.125  28.362  56.322  1.00  0.00     0.001 A 
HETATM   24  C   UNL     1       4.271  29.706  55.983  1.00  0.00     0.002 A 
HETATM   25  C   UNL     1       5.541  30.280  55.956  1.00  0.00     0.030 A 
HETATM   26  N   UNL     1       7.932  30.081  56.196  1.00  0.00    -0.323 N 
HETATM   27  C   UNL     1       9.088  29.389  56.415  1.00  0.00     0.246 A 
HETATM   28  H   UNL     1       8.040  31.051  55.937  1.00  0.00     0.169 HD
HETATM   29  O   UNL     1      10.189  29.924  56.341  1.00  0.00    -0.268 OA
HETATM   30  C   UNL     1       8.960  27.961  56.762  1.00  0.00     0.092 A 
ENDBRANCH   1  19
TORSDOF 4
ENDMDL
MODEL 9
REMARK VINA RESULT:      -7.5      1.330      2.485
REMARK  4 active torsions:
REMARK  status: ('A' for Active; 'I' for Inactive)
REMARK    1  A    between atoms: C_9  and  C_10 
REMARK       I    between atoms: C_10  and  N_11 
REMARK    2  A    between atoms: N_11  and  C_12 
REMARK    3  A    between atoms: C_13  and  N_14 
REMARK    4  A    between atoms: C_17  and  O_18 
ROOT
HETATM    1  C   UNL     1       3.907  32.599  62.163  1.00  0.00     0.257 C 
HETATM    2  N   UNL     1       3.434  33.868  62.368  1.00  0.00    -0.321 N 
HETATM    3  O   UNL     1       3.142  31.640  62.277  1.00  0.00    -0.267 OA
HETATM    4  H   UNL     1       2.426  33.923  62.335  1.00  0.00     0.169 HD
ENDROOT
BRANCH   2   5
HETATM    5  C   UNL     1       4.140  35.068  62.596  1.00  0.00     0.061 C 
HETATM    6  C   UNL     1       4.642  35.467  63.863  1.00  0.00     0.057 C 
HETATM    7  C   UNL     1       5.448  36.621  63.884  1.00  0.00     0.031 C 
HETATM    8  C   UNL     1       5.666  37.398  62.739  1.00  0.00     0.002 C 
HETATM    9  C   UNL     1       5.075  37.043  61.535  1.00  0.00     0.002 C 
HETATM   10  C   UNL     1       4.306  35.886  61.466  1.00  0.00     0.032 C 
BRANCH   6  11
HETATM   11  N   UNL     1       4.283  34.817  65.049  1.00  0.00    -0.379 N 
HETATM   12  C   UNL     1       5.084  33.715  65.601  1.00  0.00     0.125 C 
HETATM   13  C   UNL     1       6.055  34.194  66.680  1.00  0.00     0.051 C 
HETATM   14  C   UNL     1       5.350  35.028  67.747  1.00  0.00     0.121 C 
HETATM   15  C   UNL     1       4.541  36.155  67.114  1.00  0.00     0.051 C 
HETATM   16  C   UNL     1       3.570  35.619  66.065  1.00  0.00     0.125 C 
BRANCH  14  17
HETATM   17  O   UNL     1       4.480  34.212  68.529  1.00  0.00    -0.395 OA
HETATM   18  H   UNL     1       3.941  34.797  69.090  1.00  0.00     0.210 HD
ENDBRANCH  14  17
ENDBRANCH   6  11
ENDBRANCH   2   5
BRANCH   1  19
HETATM   19  C   UNL     1       5.283  32.395  61.636  1.00  0.00     0.050 A 
HETATM   20  C   UNL     1       5.597  32.085  60.228  1.00  0.00     0.006 A 
HETATM   21  C   UNL     1       4.621  31.926  59.234  1.00  0.00     0.015 A 
HETATM   22  C   UNL     1       6.941  31.886  59.876  1.00  0.00     0.046 A 
HETATM   23  C   UNL     1       4.984  31.603  57.923  1.00  0.00     0.001 A 
HETATM   24  C   UNL     1       6.325  31.428  57.588  1.00  0.00     0.002 A 
HETATM   25  C   UNL     1       7.308  31.567  58.566  1.00  0.00     0.030 A 
HETATM   26  N   UNL     1       7.934  31.975  60.858  1.00  0.00    -0.323 N 
HETATM   27  C   UNL     1       7.672  32.209  62.178  1.00  0.00     0.246 A 
HETATM   28  H   UNL     1       8.906  31.834  60.619  1.00  0.00     0.169 HD
HETATM   29  O   UNL     1       8.566  32.283  63.014  1.00  0.00    -0.268 OA
HETATM   30  C   UNL     1       6.258  32.384  62.559  1.00  0.00     0.092 A 
ENDBRANCH   1  19
TORSDOF 4
ENDMDL
MODEL 10
REMARK VINA RESULT:      -7.4      2.375      5.799
REMARK  4 active torsions:
REMARK  status: ('A' for Active; 'I' for Inactive)
REMARK    1  A    between atoms: C_9  and  C_10 
REMARK       I    between atoms: C_10  and  N_11 
REMARK    2  A    between atoms: N_11  and  C_12 
REMARK    3  A    between atoms: C_13  and  N_14 
REMARK    4  A    between atoms: C_17  and  O_18 
ROOT
HETATM    1  C   UNL     1       3.788  32.212  61.504  1.00  0.00     0.257 C 
HETATM    2  N   UNL     1       4.457  31.767  62.612  1.00  0.00    -0.321 N 
HETATM    3  O   UNL     1       3.119  31.420  60.838  1.00  0.00    -0.267 OA
HETATM    4  H   UNL     1       4.123  30.871  62.940  1.00  0.00     0.169 HD
ENDROOT
BRANCH   2   5
HETATM    5  C   UNL     1       5.501  32.374  63.342  1.00  0.00     0.061 C 
HETATM    6  C   UNL     1       6.868  32.330  62.961  1.00  0.00     0.057 C 
HETATM    7  C   UNL     1       7.757  33.111  63.722  1.00  0.00     0.031 C 
HETATM    8  C   UNL     1       7.343  33.818  64.857  1.00  0.00     0.002 C 
HETATM    9  C   UNL     1       6.019  33.758  65.269  1.00  0.00     0.002 C 
HETATM   10  C   UNL     1       5.103  33.030  64.519  1.00  0.00     0.032 C 
BRANCH   6  11
HETATM   11  N   UNL     1       7.336  31.484  61.949  1.00  0.00    -0.379 N 
HETATM   12  C   UNL     1       7.065  31.751  60.529  1.00  0.00     0.125 C 
HETATM   13  C   UNL     1       8.226  32.474  59.848  1.00  0.00     0.051 C 
HETATM   14  C   UNL     1       9.556  31.767  60.091  1.00  0.00     0.121 C 
HETATM   15  C   UNL     1       9.782  31.523  61.579  1.00  0.00     0.051 C 
HETATM   16  C   UNL     1       8.607  30.773  62.203  1.00  0.00     0.125 C 
BRANCH  14  17
HETATM   17  O   UNL     1       9.594  30.519  59.403  1.00  0.00    -0.395 OA
HETATM   18  H   UNL     1       9.051  29.882  59.902  1.00  0.00     0.210 HD
ENDBRANCH  14  17
ENDBRANCH   6  11
ENDBRANCH   2   5
BRANCH   1  19
HETATM   19  C   UNL     1       3.728  33.669  61.207  1.00  0.00     0.050 A 
HETATM   20  C   UNL     1       3.996  34.260  59.883  1.00  0.00     0.006 A 
HETATM   21  C   UNL     1       4.364  33.507  58.759  1.00  0.00     0.015 A 
HETATM   22  C   UNL     1       3.933  35.657  59.754  1.00  0.00     0.046 A 
HETATM   23  C   UNL     1       4.633  34.132  57.538  1.00  0.00     0.001 A 
HETATM   24  C   UNL     1       4.547  35.518  57.424  1.00  0.00     0.002 A 
HETATM   25  C   UNL     1       4.198  36.284  58.534  1.00  0.00     0.030 A 
HETATM   26  N   UNL     1       3.631  36.442  60.872  1.00  0.00    -0.323 N 
HETATM   27  C   UNL     1       3.428  35.929  62.122  1.00  0.00     0.246 A 
HETATM   28  H   UNL     1       3.581  37.448  60.794  1.00  0.00     0.169 HD
HETATM   29  O   UNL     1       3.163  36.645  63.082  1.00  0.00    -0.268 OA
HETATM   30  C   UNL     1       3.528  34.465  62.270  1.00  0.00     0.092 A 
ENDBRANCH   1  19
TORSDOF 4
ENDMDL
