MODEL 1
REMARK VINA RESULT:      -7.8      0.000      0.000
REMARK  5 active torsions:
REMARK  status: ('A' for Active; 'I' for Inactive)
REMARK    1  A    between atoms: C_12  and  N_13 
REMARK    2  A    between atoms: N_13  and  C_14 
REMARK    3  A    between atoms: C_14  and  C_15 
REMARK    4  A    between atoms: C_15  and  N_16 
REMARK       I    between atoms: N_16  and  C_17 
REMARK    5  A    between atoms: C_17  and  C_18 
ROOT
HETATM    1  C   UNL     1       7.611  22.917  52.883  1.00  0.00     0.025 A 
HETATM    2  C   UNL     1       8.186  21.869  53.591  1.00  0.00     0.036 A 
HETATM    3 CL   UNL     1       8.451  20.357  52.821  1.00  0.00    -0.084 Cl
HETATM    4  C   UNL     1       8.560  22.038  54.921  1.00  0.00     0.054 A 
HETATM    5  C   UNL     1       8.355  23.272  55.551  1.00  0.00     0.046 A 
HETATM    6  C   UNL     1       7.758  24.360  54.864  1.00  0.00     0.017 A 
HETATM    7  C   UNL     1       7.402  24.148  53.512  1.00  0.00     0.018 A 
HETATM    8  N   UNL     1       8.746  23.439  56.828  1.00  0.00    -0.365 N 
HETATM    9  H   UNL     1       9.182  22.655  57.312  1.00  0.00     0.165 HD
HETATM   10  C   UNL     1       8.612  24.595  57.487  1.00  0.00     0.090 A 
HETATM   11  C   UNL     1       8.038  25.691  56.865  1.00  0.00     0.047 A 
HETATM   12  C   UNL     1       7.580  25.596  55.547  1.00  0.00     0.042 A 
ENDROOT
BRANCH  12  13
HETATM   13  N   UNL     1       7.071  26.700  54.864  1.00  0.00    -0.388 N 
HETATM   14  H   UNL     1       7.078  26.612  53.849  1.00  0.00     0.159 HD
BRANCH  13  15
HETATM   15  C   UNL     1       5.970  27.521  55.377  1.00  0.00     0.139 C 
BRANCH  15  16
HETATM   16  C   UNL     1       6.374  29.007  55.392  1.00  0.00     0.142 C 
BRANCH  16  17
HETATM   17  N   UNL     1       7.748  29.249  55.794  1.00  0.00    -0.359 N 
HETATM   18  C   UNL     1       8.087  29.346  57.124  1.00  0.00     0.221 C 
HETATM   19  O   UNL     1       7.275  29.415  58.037  1.00  0.00    -0.273 OA
HETATM   20  H   UNL     1       8.485  29.016  55.141  1.00  0.00     0.162 HD
BRANCH  18  21
HETATM   21  C   UNL     1       9.551  29.319  57.384  1.00  0.00     0.078 A 
HETATM   22  C   UNL     1      10.532  29.790  56.335  1.00  0.00     0.015 A 
HETATM   23  C   UNL     1      10.292  30.626  57.559  1.00  0.00     0.015 A 
ENDBRANCH  18  21
ENDBRANCH  16  17
ENDBRANCH  15  16
ENDBRANCH  13  15
ENDBRANCH  12  13
TORSDOF 5
ENDMDL
MODEL 2
REMARK VINA RESULT:      -7.4      5.036      6.763
REMARK  5 active torsions:
REMARK  status: ('A' for Active; 'I' for Inactive)
REMARK    1  A    between atoms: C_12  and  N_13 
REMARK    2  A    between atoms: N_13  and  C_14 
REMARK    3  A    between atoms: C_14  and  C_15 
REMARK    4  A    between atoms: C_15  and  N_16 
REMARK       I    between atoms: N_16  and  C_17 
REMARK    5  A    between atoms: C_17  and  C_18 
ROOT
HETATM    1  C   UNL     1       8.178  22.051  53.244  1.00  0.00     0.025 A 
HETATM    2  C   UNL     1       8.172  21.704  54.589  1.00  0.00     0.036 A 
HETATM    3 CL   UNL     1       8.929  20.252  55.105  1.00  0.00    -0.084 Cl
HETATM    4  C   UNL     1       7.564  22.533  55.528  1.00  0.00     0.054 A 
HETATM    5  C   UNL     1       6.953  23.724  55.115  1.00  0.00     0.046 A 
HETATM    6  C   UNL     1       6.929  24.103  53.748  1.00  0.00     0.017 A 
HETATM    7  C   UNL     1       7.566  23.238  52.829  1.00  0.00     0.018 A 
HETATM    8  N   UNL     1       6.394  24.536  56.030  1.00  0.00    -0.365 N 
HETATM    9  H   UNL     1       6.423  24.261  57.011  1.00  0.00     0.165 HD
HETATM   10  C   UNL     1       5.819  25.703  55.717  1.00  0.00     0.090 A 
HETATM   11  C   UNL     1       5.769  26.124  54.399  1.00  0.00     0.047 A 
HETATM   12  C   UNL     1       6.303  25.328  53.381  1.00  0.00     0.042 A 
ENDROOT
BRANCH  12  13
HETATM   13  N   UNL     1       6.340  25.757  52.054  1.00  0.00    -0.388 N 
HETATM   14  H   UNL     1       7.248  25.660  51.602  1.00  0.00     0.159 HD
BRANCH  13  15
HETATM   15  C   UNL     1       5.205  25.617  51.136  1.00  0.00     0.139 C 
BRANCH  15  16
HETATM   16  C   UNL     1       5.041  26.896  50.294  1.00  0.00     0.142 C 
BRANCH  16  17
HETATM   17  N   UNL     1       3.776  26.988  49.588  1.00  0.00    -0.359 N 
HETATM   18  C   UNL     1       3.666  26.577  48.280  1.00  0.00     0.221 C 
HETATM   19  O   UNL     1       4.619  26.281  47.571  1.00  0.00    -0.273 OA
HETATM   20  H   UNL     1       2.925  27.033  50.135  1.00  0.00     0.162 HD
BRANCH  18  21
HETATM   21  C   UNL     1       2.267  26.476  47.786  1.00  0.00     0.078 A 
HETATM   22  C   UNL     1       1.201  27.424  48.284  1.00  0.00     0.015 A 
HETATM   23  C   UNL     1       1.724  27.561  46.884  1.00  0.00     0.015 A 
ENDBRANCH  18  21
ENDBRANCH  16  17
ENDBRANCH  15  16
ENDBRANCH  13  15
ENDBRANCH  12  13
TORSDOF 5
ENDMDL
MODEL 3
REMARK VINA RESULT:      -7.3      2.524      4.084
REMARK  5 active torsions:
REMARK  status: ('A' for Active; 'I' for Inactive)
REMARK    1  A    between atoms: C_12  and  N_13 
REMARK    2  A    between atoms: N_13  and  C_14 
REMARK    3  A    between atoms: C_14  and  C_15 
REMARK    4  A    between atoms: C_15  and  N_16 
REMARK       I    between atoms: N_16  and  C_17 
REMARK    5  A    between atoms: C_17  and  C_18 
ROOT
HETATM    1  C   UNL     1       7.554  23.101  52.933  1.00  0.00     0.025 A 
HETATM    2  C   UNL     1       8.096  21.991  53.569  1.00  0.00     0.036 A 
HETATM    3 CL   UNL     1       8.300  20.521  52.704  1.00  0.00    -0.084 Cl
HETATM    4  C   UNL     1       8.489  22.063  54.902  1.00  0.00     0.054 A 
HETATM    5  C   UNL     1       8.334  23.263  55.610  1.00  0.00     0.046 A 
HETATM    6  C   UNL     1       7.772  24.412  54.997  1.00  0.00     0.017 A 
HETATM    7  C   UNL     1       7.396  24.297  53.639  1.00  0.00     0.018 A 
HETATM    8  N   UNL     1       8.743  23.336  56.890  1.00  0.00    -0.365 N 
HETATM    9  H   UNL     1       9.154  22.508  57.320  1.00  0.00     0.165 HD
HETATM   10  C   UNL     1       8.656  24.452  57.621  1.00  0.00     0.090 A 
HETATM   11  C   UNL     1       8.118  25.604  57.073  1.00  0.00     0.047 A 
HETATM   12  C   UNL     1       7.645  25.609  55.758  1.00  0.00     0.042 A 
ENDROOT
BRANCH  12  13
HETATM   13  N   UNL     1       7.170  26.770  55.150  1.00  0.00    -0.388 N 
HETATM   14  H   UNL     1       7.174  26.749  54.131  1.00  0.00     0.159 HD
BRANCH  13  15
HETATM   15  C   UNL     1       6.096  27.590  55.719  1.00  0.00     0.139 C 
BRANCH  15  16
HETATM   16  C   UNL     1       5.123  28.037  54.612  1.00  0.00     0.142 C 
BRANCH  16  17
HETATM   17  N   UNL     1       5.126  27.188  53.435  1.00  0.00    -0.359 N 
HETATM   18  C   UNL     1       5.599  27.653  52.230  1.00  0.00     0.221 C 
HETATM   19  O   UNL     1       5.879  28.823  52.007  1.00  0.00    -0.273 OA
HETATM   20  H   UNL     1       5.099  26.185  53.569  1.00  0.00     0.162 HD
BRANCH  18  21
HETATM   21  C   UNL     1       5.791  26.597  51.201  1.00  0.00     0.078 A 
HETATM   22  C   UNL     1       4.888  25.386  51.157  1.00  0.00     0.015 A 
HETATM   23  C   UNL     1       4.765  26.445  50.100  1.00  0.00     0.015 A 
ENDBRANCH  18  21
ENDBRANCH  16  17
ENDBRANCH  15  16
ENDBRANCH  13  15
ENDBRANCH  12  13
TORSDOF 5
ENDMDL
MODEL 4
REMARK VINA RESULT:      -7.3      8.827     11.809
REMARK  5 active torsions:
REMARK  status: ('A' for Active; 'I' for Inactive)
REMARK    1  A    between atoms: C_12  and  N_13 
REMARK    2  A    between atoms: N_13  and  C_14 
REMARK    3  A    between atoms: C_14  and  C_15 
REMARK    4  A    between atoms: C_15  and  N_16 
REMARK       I    between atoms: N_16  and  C_17 
REMARK    5  A    between atoms: C_17  and  C_18 
ROOT
HETATM    1  C   UNL     1       6.916  33.947  65.050  1.00  0.00     0.025 A 
HETATM    2  C   UNL     1       6.024  34.087  66.105  1.00  0.00     0.036 A 
HETATM    3 CL   UNL     1       6.610  34.201  67.715  1.00  0.00    -0.084 Cl
HETATM    4  C   UNL     1       4.654  34.147  65.868  1.00  0.00     0.054 A 
HETATM    5  C   UNL     1       4.170  34.064  64.555  1.00  0.00     0.046 A 
HETATM    6  C   UNL     1       5.050  33.907  63.454  1.00  0.00     0.017 A 
HETATM    7  C   UNL     1       6.434  33.861  63.740  1.00  0.00     0.018 A 
HETATM    8  N   UNL     1       2.846  34.153  64.328  1.00  0.00    -0.365 N 
HETATM    9  H   UNL     1       2.221  34.274  65.124  1.00  0.00     0.165 HD
HETATM   10  C   UNL     1       2.311  34.112  63.103  1.00  0.00     0.090 A 
HETATM   11  C   UNL     1       3.123  33.963  61.992  1.00  0.00     0.047 A 
HETATM   12  C   UNL     1       4.508  33.837  62.140  1.00  0.00     0.042 A 
ENDROOT
BRANCH  12  13
HETATM   13  N   UNL     1       5.362  33.765  61.039  1.00  0.00    -0.388 N 
HETATM   14  H   UNL     1       6.342  33.610  61.272  1.00  0.00     0.159 HD
BRANCH  13  15
HETATM   15  C   UNL     1       4.962  33.188  59.752  1.00  0.00     0.139 C 
BRANCH  15  16
HETATM   16  C   UNL     1       5.967  32.105  59.318  1.00  0.00     0.142 C 
BRANCH  16  17
HETATM   17  N   UNL     1       6.897  31.701  60.357  1.00  0.00    -0.359 N 
HETATM   18  C   UNL     1       8.228  32.042  60.285  1.00  0.00     0.221 C 
HETATM   19  O   UNL     1       8.758  32.537  59.299  1.00  0.00    -0.273 OA
HETATM   20  H   UNL     1       6.524  31.471  61.269  1.00  0.00     0.162 HD
BRANCH  18  21
HETATM   21  C   UNL     1       8.989  31.800  61.539  1.00  0.00     0.078 A 
HETATM   22  C   UNL     1       8.395  30.974  62.657  1.00  0.00     0.015 A 
HETATM   23  C   UNL     1       9.511  30.410  61.826  1.00  0.00     0.015 A 
ENDBRANCH  18  21
ENDBRANCH  16  17
ENDBRANCH  15  16
ENDBRANCH  13  15
ENDBRANCH  12  13
TORSDOF 5
ENDMDL
MODEL 5
REMARK VINA RESULT:      -7.0      1.701      2.004
REMARK  5 active torsions:
REMARK  status: ('A' for Active; 'I' for Inactive)
REMARK    1  A    between atoms: C_12  and  N_13 
REMARK    2  A    between atoms: N_13  and  C_14 
REMARK    3  A    between atoms: C_14  and  C_15 
REMARK    4  A    between atoms: C_15  and  N_16 
REMARK       I    between atoms: N_16  and  C_17 
REMARK    5  A    between atoms: C_17  and  C_18 
ROOT
HETATM    1  C   UNL     1       7.409  23.840  53.142  1.00  0.00     0.025 A 
HETATM    2  C   UNL     1       7.803  22.665  53.771  1.00  0.00     0.036 A 
HETATM    3 CL   UNL     1       7.934  21.210  52.867  1.00  0.00    -0.084 Cl
HETATM    4  C   UNL     1       8.105  22.659  55.129  1.00  0.00     0.054 A 
HETATM    5  C   UNL     1       8.009  23.846  55.869  1.00  0.00     0.046 A 
HETATM    6  C   UNL     1       7.597  25.060  55.263  1.00  0.00     0.017 A 
HETATM    7  C   UNL     1       7.310  25.023  53.879  1.00  0.00     0.018 A 
HETATM    8  N   UNL     1       8.331  23.841  57.176  1.00  0.00    -0.365 N 
HETATM    9  H   UNL     1       8.634  22.966  57.602  1.00  0.00     0.165 HD
HETATM   10  C   UNL     1       8.294  24.938  57.940  1.00  0.00     0.090 A 
HETATM   11  C   UNL     1       7.901  26.151  57.401  1.00  0.00     0.047 A 
HETATM   12  C   UNL     1       7.525  26.240  56.058  1.00  0.00     0.042 A 
ENDROOT
BRANCH  12  13
HETATM   13  N   UNL     1       7.201  27.459  55.463  1.00  0.00    -0.388 N 
HETATM   14  H   UNL     1       6.203  27.665  55.433  1.00  0.00     0.159 HD
BRANCH  13  15
HETATM   15  C   UNL     1       8.048  28.651  55.568  1.00  0.00     0.139 C 
BRANCH  15  16
HETATM   16  C   UNL     1       7.569  29.544  56.728  1.00  0.00     0.142 C 
BRANCH  16  17
HETATM   17  N   UNL     1       8.601  29.873  57.694  1.00  0.00    -0.359 N 
HETATM   18  C   UNL     1       8.443  30.926  58.566  1.00  0.00     0.221 C 
HETATM   19  O   UNL     1       7.543  31.752  58.489  1.00  0.00    -0.273 OA
HETATM   20  H   UNL     1       9.263  29.151  57.951  1.00  0.00     0.162 HD
BRANCH  18  21
HETATM   21  C   UNL     1       9.446  30.966  59.662  1.00  0.00     0.078 A 
HETATM   22  C   UNL     1       9.411  32.062  60.702  1.00  0.00     0.015 A 
HETATM   23  C   UNL     1       9.004  30.667  61.077  1.00  0.00     0.015 A 
ENDBRANCH  18  21
ENDBRANCH  16  17
ENDBRANCH  15  16
ENDBRANCH  13  15
ENDBRANCH  12  13
TORSDOF 5
ENDMDL
MODEL 6
REMARK VINA RESULT:      -6.9      3.748      7.200
REMARK  5 active torsions:
REMARK  status: ('A' for Active; 'I' for Inactive)
REMARK    1  A    between atoms: C_12  and  N_13 
REMARK    2  A    between atoms: N_13  and  C_14 
REMARK    3  A    between atoms: C_14  and  C_15 
REMARK    4  A    between atoms: C_15  and  N_16 
REMARK       I    between atoms: N_16  and  C_17 
REMARK    5  A    between atoms: C_17  and  C_18 
ROOT
HETATM    1  C   UNL     1       9.734  29.631  57.569  1.00  0.00     0.025 A 
HETATM    2  C   UNL     1       9.030  30.544  58.346  1.00  0.00     0.036 A 
HETATM    3 CL   UNL     1       9.874  31.759  59.218  1.00  0.00    -0.084 Cl
HETATM    4  C   UNL     1       7.641  30.489  58.415  1.00  0.00     0.054 A 
HETATM    5  C   UNL     1       6.947  29.505  57.698  1.00  0.00     0.046 A 
HETATM    6  C   UNL     1       7.633  28.549  56.906  1.00  0.00     0.017 A 
HETATM    7  C   UNL     1       9.042  28.647  56.856  1.00  0.00     0.018 A 
HETATM    8  N   UNL     1       5.602  29.475  57.744  1.00  0.00    -0.365 N 
HETATM    9  H   UNL     1       5.117  30.171  58.308  1.00  0.00     0.165 HD
HETATM   10  C   UNL     1       4.869  28.587  57.064  1.00  0.00     0.090 A 
HETATM   11  C   UNL     1       5.485  27.632  56.274  1.00  0.00     0.047 A 
HETATM   12  C   UNL     1       6.880  27.576  56.190  1.00  0.00     0.042 A 
ENDROOT
BRANCH  12  13
HETATM   13  N   UNL     1       7.530  26.680  55.342  1.00  0.00    -0.388 N 
HETATM   14  H   UNL     1       7.525  25.712  55.662  1.00  0.00     0.159 HD
BRANCH  13  15
HETATM   15  C   UNL     1       7.537  26.819  53.882  1.00  0.00     0.139 C 
BRANCH  15  16
HETATM   16  C   UNL     1       6.934  25.564  53.224  1.00  0.00     0.142 C 
BRANCH  16  17
HETATM   17  N   UNL     1       7.857  24.450  53.104  1.00  0.00    -0.359 N 
HETATM   18  C   UNL     1       7.794  23.385  53.972  1.00  0.00     0.221 C 
HETATM   19  O   UNL     1       7.107  23.363  54.985  1.00  0.00    -0.273 OA
HETATM   20  H   UNL     1       8.309  24.298  52.211  1.00  0.00     0.162 HD
BRANCH  18  21
HETATM   21  C   UNL     1       8.610  22.212  53.559  1.00  0.00     0.078 A 
HETATM   22  C   UNL     1       8.605  20.940  54.375  1.00  0.00     0.015 A 
HETATM   23  C   UNL     1       7.912  20.974  53.044  1.00  0.00     0.015 A 
ENDBRANCH  18  21
ENDBRANCH  16  17
ENDBRANCH  15  16
ENDBRANCH  13  15
ENDBRANCH  12  13
TORSDOF 5
ENDMDL
MODEL 7
REMARK VINA RESULT:      -6.8      3.360      6.928
REMARK  5 active torsions:
REMARK  status: ('A' for Active; 'I' for Inactive)
REMARK    1  A    between atoms: C_12  and  N_13 
REMARK    2  A    between atoms: N_13  and  C_14 
REMARK    3  A    between atoms: C_14  and  C_15 
REMARK    4  A    between atoms: C_15  and  N_16 
REMARK       I    between atoms: N_16  and  C_17 
REMARK    5  A    between atoms: C_17  and  C_18 
ROOT
HETATM    1  C   UNL     1       8.512  27.458  57.030  1.00  0.00     0.025 A 
HETATM    2  C   UNL     1       8.569  28.846  57.045  1.00  0.00     0.036 A 
HETATM    3 CL   UNL     1       9.825  29.644  57.902  1.00  0.00    -0.084 Cl
HETATM    4  C   UNL     1       7.619  29.598  56.360  1.00  0.00     0.054 A 
HETATM    5  C   UNL     1       6.597  28.952  55.651  1.00  0.00     0.046 A 
HETATM    6  C   UNL     1       6.501  27.537  55.625  1.00  0.00     0.017 A 
HETATM    7  C   UNL     1       7.491  26.811  56.326  1.00  0.00     0.018 A 
HETATM    8  N   UNL     1       5.699  29.683  54.966  1.00  0.00    -0.365 N 
HETATM    9  H   UNL     1       5.781  30.699  54.983  1.00  0.00     0.165 HD
HETATM   10  C   UNL     1       4.715  29.139  54.242  1.00  0.00     0.090 A 
HETATM   11  C   UNL     1       4.574  27.763  54.178  1.00  0.00     0.047 A 
HETATM   12  C   UNL     1       5.449  26.929  54.882  1.00  0.00     0.042 A 
ENDROOT
BRANCH  12  13
HETATM   13  N   UNL     1       5.385  25.540  54.778  1.00  0.00    -0.388 N 
HETATM   14  H   UNL     1       4.767  25.091  55.451  1.00  0.00     0.159 HD
BRANCH  13  15
HETATM   15  C   UNL     1       5.481  24.828  53.499  1.00  0.00     0.139 C 
BRANCH  15  16
HETATM   16  C   UNL     1       6.957  24.588  53.132  1.00  0.00     0.142 C 
BRANCH  16  17
HETATM   17  N   UNL     1       7.342  23.189  53.091  1.00  0.00    -0.359 N 
HETATM   18  C   UNL     1       7.507  22.467  54.251  1.00  0.00     0.221 C 
HETATM   19  O   UNL     1       7.520  22.961  55.371  1.00  0.00    -0.273 OA
HETATM   20  H   UNL     1       7.167  22.669  52.240  1.00  0.00     0.162 HD
BRANCH  18  21
HETATM   21  C   UNL     1       7.630  21.000  54.045  1.00  0.00     0.078 A 
HETATM   22  C   UNL     1       8.414  20.446  52.879  1.00  0.00     0.015 A 
HETATM   23  C   UNL     1       8.970  20.335  54.269  1.00  0.00     0.015 A 
ENDBRANCH  18  21
ENDBRANCH  16  17
ENDBRANCH  15  16
ENDBRANCH  13  15
ENDBRANCH  12  13
TORSDOF 5
ENDMDL
MODEL 8
REMARK VINA RESULT:      -6.8      5.422      8.003
REMARK  5 active torsions:
REMARK  status: ('A' for Active; 'I' for Inactive)
REMARK    1  A    between atoms: C_12  and  N_13 
REMARK    2  A    between atoms: N_13  and  C_14 
REMARK    3  A    between atoms: C_14  and  C_15 
REMARK    4  A    between atoms: C_15  and  N_16 
REMARK       I    between atoms: N_16  and  C_17 
REMARK    5  A    between atoms: C_17  and  C_18 
ROOT
HETATM    1  C   UNL     1       3.190  26.173  48.073  1.00  0.00     0.025 A 
HETATM    2  C   UNL     1       2.397  27.310  47.991  1.00  0.00     0.036 A 
HETATM    3 CL   UNL     1       1.147  27.401  46.818  1.00  0.00    -0.084 Cl
HETATM    4  C   UNL     1       2.601  28.377  48.862  1.00  0.00     0.054 A 
HETATM    5  C   UNL     1       3.614  28.304  49.827  1.00  0.00     0.046 A 
HETATM    6  C   UNL     1       4.452  27.164  49.931  1.00  0.00     0.017 A 
HETATM    7  C   UNL     1       4.204  26.100  49.034  1.00  0.00     0.018 A 
HETATM    8  N   UNL     1       3.787  29.325  50.686  1.00  0.00    -0.365 N 
HETATM    9  H   UNL     1       3.176  30.137  50.610  1.00  0.00     0.165 HD
HETATM   10  C   UNL     1       4.711  29.317  51.653  1.00  0.00     0.090 A 
HETATM   11  C   UNL     1       5.555  28.230  51.803  1.00  0.00     0.047 A 
HETATM   12  C   UNL     1       5.460  27.136  50.936  1.00  0.00     0.042 A 
ENDROOT
BRANCH  12  13
HETATM   13  N   UNL     1       6.239  25.992  51.107  1.00  0.00    -0.388 N 
HETATM   14  H   UNL     1       7.211  26.093  50.817  1.00  0.00     0.159 HD
BRANCH  13  15
HETATM   15  C   UNL     1       6.047  25.052  52.215  1.00  0.00     0.139 C 
BRANCH  15  16
HETATM   16  C   UNL     1       7.242  25.121  53.185  1.00  0.00     0.142 C 
BRANCH  16  17
HETATM   17  N   UNL     1       8.122  23.968  53.132  1.00  0.00    -0.359 N 
HETATM   18  C   UNL     1       7.940  22.900  53.980  1.00  0.00     0.221 C 
HETATM   19  O   UNL     1       7.169  22.902  54.931  1.00  0.00    -0.273 OA
HETATM   20  H   UNL     1       8.641  23.801  52.279  1.00  0.00     0.162 HD
BRANCH  18  21
HETATM   21  C   UNL     1       8.736  21.695  53.626  1.00  0.00     0.078 A 
HETATM   22  C   UNL     1       8.464  20.366  54.290  1.00  0.00     0.015 A 
HETATM   23  C   UNL     1       8.073  20.575  52.857  1.00  0.00     0.015 A 
ENDBRANCH  18  21
ENDBRANCH  16  17
ENDBRANCH  15  16
ENDBRANCH  13  15
ENDBRANCH  12  13
TORSDOF 5
ENDMDL
MODEL 9
REMARK VINA RESULT:      -6.7      2.337      3.343
REMARK  5 active torsions:
REMARK  status: ('A' for Active; 'I' for Inactive)
REMARK    1  A    between atoms: C_12  and  N_13 
REMARK    2  A    between atoms: N_13  and  C_14 
REMARK    3  A    between atoms: C_14  and  C_15 
REMARK    4  A    between atoms: C_15  and  N_16 
REMARK       I    between atoms: N_16  and  C_17 
REMARK    5  A    between atoms: C_17  and  C_18 
ROOT
HETATM    1  C   UNL     1       7.978  25.274  53.288  1.00  0.00     0.025 A 
HETATM    2  C   UNL     1       7.256  24.137  53.630  1.00  0.00     0.036 A 
HETATM    3 CL   UNL     1       7.555  22.654  52.817  1.00  0.00    -0.084 Cl
HETATM    4  C   UNL     1       6.298  24.187  54.638  1.00  0.00     0.054 A 
HETATM    5  C   UNL     1       6.057  25.393  55.311  1.00  0.00     0.046 A 
HETATM    6  C   UNL     1       6.764  26.576  54.979  1.00  0.00     0.017 A 
HETATM    7  C   UNL     1       7.736  26.478  53.956  1.00  0.00     0.018 A 
HETATM    8  N   UNL     1       5.150  25.428  56.305  1.00  0.00    -0.365 N 
HETATM    9  H   UNL     1       4.652  24.572  56.544  1.00  0.00     0.165 HD
HETATM   10  C   UNL     1       4.887  26.532  57.013  1.00  0.00     0.090 A 
HETATM   11  C   UNL     1       5.549  27.715  56.734  1.00  0.00     0.047 A 
HETATM   12  C   UNL     1       6.488  27.773  55.699  1.00  0.00     0.042 A 
ENDROOT
BRANCH  12  13
HETATM   13  N   UNL     1       7.231  28.925  55.442  1.00  0.00    -0.388 N 
HETATM   14  H   UNL     1       7.207  29.238  54.473  1.00  0.00     0.159 HD
BRANCH  13  15
HETATM   15  C   UNL     1       7.377  30.015  56.412  1.00  0.00     0.139 C 
BRANCH  15  16
HETATM   16  C   UNL     1       8.649  29.811  57.256  1.00  0.00     0.142 C 
BRANCH  16  17
HETATM   17  N   UNL     1       8.585  30.394  58.583  1.00  0.00    -0.359 N 
HETATM   18  C   UNL     1       9.317  31.516  58.899  1.00  0.00     0.221 C 
HETATM   19  O   UNL     1      10.184  31.995  58.180  1.00  0.00    -0.273 OA
HETATM   20  H   UNL     1       7.776  30.189  59.157  1.00  0.00     0.162 HD
BRANCH  18  21
HETATM   21  C   UNL     1       8.941  32.146  60.192  1.00  0.00     0.078 A 
HETATM   22  C   UNL     1       8.358  31.321  61.315  1.00  0.00     0.015 A 
HETATM   23  C   UNL     1       9.761  31.842  61.425  1.00  0.00     0.015 A 
ENDBRANCH  18  21
ENDBRANCH  16  17
ENDBRANCH  15  16
ENDBRANCH  13  15
ENDBRANCH  12  13
TORSDOF 5
ENDMDL
MODEL 10
REMARK VINA RESULT:      -6.3      3.957      7.376
REMARK  5 active torsions:
REMARK  status: ('A' for Active; 'I' for Inactive)
REMARK    1  A    between atoms: C_12  and  N_13 
REMARK    2  A    between atoms: N_13  and  C_14 
REMARK    3  A    between atoms: C_14  and  C_15 
REMARK    4  A    between atoms: C_15  and  N_16 
REMARK       I    between atoms: N_16  and  C_17 
REMARK    5  A    between atoms: C_17  and  C_18 
ROOT
HETATM    1  C   UNL     1       8.709  30.134  58.992  1.00  0.00     0.025 A 
HETATM    2  C   UNL     1       7.837  31.201  59.166  1.00  0.00     0.036 A 
HETATM    3 CL   UNL     1       8.300  32.538  60.140  1.00  0.00    -0.084 Cl
HETATM    4  C   UNL     1       6.591  31.202  58.546  1.00  0.00     0.054 A 
HETATM    5  C   UNL     1       6.211  30.119  57.742  1.00  0.00     0.046 A 
HETATM    6  C   UNL     1       7.070  29.006  57.553  1.00  0.00     0.017 A 
HETATM    7  C   UNL     1       8.331  29.051  58.193  1.00  0.00     0.018 A 
HETATM    8  N   UNL     1       5.018  30.139  57.121  1.00  0.00    -0.365 N 
HETATM    9  H   UNL     1       4.410  30.946  57.255  1.00  0.00     0.165 HD
HETATM   10  C   UNL     1       4.598  29.158  56.315  1.00  0.00     0.090 A 
HETATM   11  C   UNL     1       5.397  28.049  56.092  1.00  0.00     0.047 A 
HETATM   12  C   UNL     1       6.641  27.935  56.719  1.00  0.00     0.042 A 
ENDROOT
BRANCH  12  13
HETATM   13  N   UNL     1       7.504  26.871  56.456  1.00  0.00    -0.388 N 
HETATM   14  H   UNL     1       8.387  27.137  56.024  1.00  0.00     0.159 HD
BRANCH  13  15
HETATM   15  C   UNL     1       7.601  25.688  57.317  1.00  0.00     0.139 C 
BRANCH  15  16
HETATM   16  C   UNL     1       6.928  24.479  56.639  1.00  0.00     0.142 C 
BRANCH  16  17
HETATM   17  N   UNL     1       6.868  24.564  55.191  1.00  0.00    -0.359 N 
HETATM   18  C   UNL     1       7.757  23.867  54.405  1.00  0.00     0.221 C 
HETATM   19  O   UNL     1       8.744  23.285  54.835  1.00  0.00    -0.273 OA
HETATM   20  H   UNL     1       5.996  24.851  54.765  1.00  0.00     0.162 HD
BRANCH  18  21
HETATM   21  C   UNL     1       7.402  23.835  52.962  1.00  0.00     0.078 A 
HETATM   22  C   UNL     1       6.352  24.768  52.403  1.00  0.00     0.015 A 
HETATM   23  C   UNL     1       7.800  24.997  52.080  1.00  0.00     0.015 A 
ENDBRANCH  18  21
ENDBRANCH  16  17
ENDBRANCH  15  16
ENDBRANCH  13  15
ENDBRANCH  12  13
TORSDOF 5
ENDMDL
