MODEL 1
REMARK VINA RESULT:     -10.6      0.000      0.000
REMARK  7 active torsions:
REMARK  status: ('A' for Active; 'I' for Inactive)
REMARK    1  A    between atoms: C_4  and  N_5 
REMARK       I    between atoms: N_5  and  C_6 
REMARK       I    between atoms: C_6  and  N_7 
REMARK    2  A    between atoms: N_7  and  N_8 
REMARK       I    between atoms: N_8  and  C_9 
REMARK    3  A    between atoms: C_9  and  C_10 
REMARK    4  A    between atoms: C_10  and  N_11 
REMARK    5  A    between atoms: C_10  and  C_19 
REMARK       I    between atoms: N_11  and  C_12 
REMARK    6  A    between atoms: C_12  and  C_13 
REMARK    7  A    between atoms: C_19  and  C_20 
ROOT
HETATM    1  C   UNL     1       6.964  26.893  55.109  1.00  0.00     0.183 C 
ENDROOT
BRANCH   1   2
HETATM    2  C   UNL     1       5.857  27.600  54.296  1.00  0.00     0.259 C 
HETATM    3  N   UNL     1       4.701  26.870  54.094  1.00  0.00    -0.264 N 
HETATM    4  H   UNL     1       4.509  26.084  54.725  1.00  0.00     0.190 HD
HETATM    5  O   UNL     1       5.945  28.789  53.982  1.00  0.00    -0.269 OA
BRANCH   3   6
HETATM    6  N   UNL     1       3.581  27.542  53.584  1.00  0.00    -0.249 N 
HETATM    7  C   UNL     1       3.478  27.912  52.257  1.00  0.00     0.339 C 
HETATM    8  N   UNL     1       4.502  27.429  51.477  1.00  0.00    -0.308 N 
HETATM    9  O   UNL     1       2.534  28.605  51.894  1.00  0.00    -0.245 OA
HETATM   10  H   UNL     1       5.244  27.000  52.009  1.00  0.00     0.170 HD
HETATM   11  H   UNL     1       2.980  28.031  54.245  1.00  0.00     0.192 HD
BRANCH   8  12
HETATM   12  C   UNL     1       4.691  27.580  50.092  1.00  0.00     0.036 A 
HETATM   13  C   UNL     1       5.163  28.750  49.496  1.00  0.00     0.029 A 
HETATM   14  C   UNL     1       5.326  28.824  48.109  1.00  0.00     0.002 A 
HETATM   15  C   UNL     1       5.019  27.727  47.307  1.00  0.00     0.000 A 
HETATM   16  C   UNL     1       4.541  26.556  47.891  1.00  0.00     0.002 A 
HETATM   17  C   UNL     1       4.374  26.485  49.277  1.00  0.00     0.029 A 
ENDBRANCH   8  12
ENDBRANCH   3   6
ENDBRANCH   1   2
BRANCH   1  18
HETATM   18  N   UNL     1       7.958  27.798  55.707  1.00  0.00    -0.343 N 
HETATM   19  C   UNL     1       7.993  28.176  57.029  1.00  0.00     0.259 C 
HETATM   20  O   UNL     1       7.257  27.632  57.853  1.00  0.00    -0.267 OA
HETATM   21  H   UNL     1       8.487  28.380  55.065  1.00  0.00     0.163 HD
BRANCH  19  22
HETATM   22  C   UNL     1       8.968  29.190  57.397  1.00  0.00     0.072 A 
HETATM   23  S   UNL     1       8.613  30.449  58.504  1.00  0.00    -0.097 SA
HETATM   24  C   UNL     1      10.162  31.147  58.316  1.00  0.00     0.050 A 
HETATM   25  C   UNL     1      10.948  30.431  57.441  1.00  0.00     0.009 A 
HETATM   26  C   UNL     1      10.259  29.301  56.914  1.00  0.00     0.025 A 
ENDBRANCH  19  22
ENDBRANCH   1  18
BRANCH   1  27
HETATM   27  C   UNL     1       7.559  25.753  54.265  1.00  0.00     0.076 C 
BRANCH  27  28
HETATM   28  C   UNL     1       7.736  24.482  55.041  1.00  0.00    -0.028 A 
HETATM   29  C   UNL     1       7.837  23.152  54.517  1.00  0.00    -0.002 A 
HETATM   30  C   UNL     1       7.984  22.286  55.601  1.00  0.00     0.042 A 
HETATM   31  C   UNL     1       7.809  22.601  53.220  1.00  0.00     0.014 A 
HETATM   32  C   UNL     1       8.114  20.900  55.453  1.00  0.00     0.030 A 
HETATM   33  N   UNL     1       7.959  23.054  56.741  1.00  0.00    -0.365 N 
HETATM   34  C   UNL     1       8.094  20.382  54.156  1.00  0.00     0.002 A 
HETATM   35  C   UNL     1       7.942  21.217  53.053  1.00  0.00     0.001 A 
HETATM   36  H   UNL     1       8.028  22.688  57.680  1.00  0.00     0.165 HD
HETATM   37  C   UNL     1       7.813  24.376  56.417  1.00  0.00     0.096 A 
ENDBRANCH  27  28
ENDBRANCH   1  27
TORSDOF 7
ENDMDL
MODEL 2
REMARK VINA RESULT:     -10.1      2.791      8.187
REMARK  7 active torsions:
REMARK  status: ('A' for Active; 'I' for Inactive)
REMARK    1  A    between atoms: C_4  and  N_5 
REMARK       I    between atoms: N_5  and  C_6 
REMARK       I    between atoms: C_6  and  N_7 
REMARK    2  A    between atoms: N_7  and  N_8 
REMARK       I    between atoms: N_8  and  C_9 
REMARK    3  A    between atoms: C_9  and  C_10 
REMARK    4  A    between atoms: C_10  and  N_11 
REMARK    5  A    between atoms: C_10  and  C_19 
REMARK       I    between atoms: N_11  and  C_12 
REMARK    6  A    between atoms: C_12  and  C_13 
REMARK    7  A    between atoms: C_19  and  C_20 
ROOT
HETATM    1  C   UNL     1       6.659  28.483  56.432  1.00  0.00     0.183 C 
ENDROOT
BRANCH   1   2
HETATM    2  C   UNL     1       7.622  27.548  57.197  1.00  0.00     0.259 C 
HETATM    3  N   UNL     1       7.086  26.346  57.617  1.00  0.00    -0.264 N 
HETATM    4  H   UNL     1       6.238  26.006  57.150  1.00  0.00     0.190 HD
HETATM    5  O   UNL     1       8.825  27.799  57.290  1.00  0.00    -0.269 OA
BRANCH   3   6
HETATM    6  N   UNL     1       7.968  25.365  58.091  1.00  0.00    -0.249 N 
HETATM    7  C   UNL     1       8.231  24.202  57.395  1.00  0.00     0.339 C 
HETATM    8  N   UNL     1       7.660  24.177  56.144  1.00  0.00    -0.308 N 
HETATM    9  O   UNL     1       8.913  23.326  57.914  1.00  0.00    -0.245 OA
HETATM   10  H   UNL     1       7.025  24.943  55.977  1.00  0.00     0.170 HD
HETATM   11  H   UNL     1       8.182  25.362  59.087  1.00  0.00     0.192 HD
BRANCH   8  12
HETATM   12  C   UNL     1       7.751  23.176  55.161  1.00  0.00     0.036 A 
HETATM   13  C   UNL     1       7.632  21.811  55.431  1.00  0.00     0.029 A 
HETATM   14  C   UNL     1       7.734  20.873  54.399  1.00  0.00     0.002 A 
HETATM   15  C   UNL     1       7.953  21.292  53.089  1.00  0.00     0.000 A 
HETATM   16  C   UNL     1       8.079  22.650  52.810  1.00  0.00     0.002 A 
HETATM   17  C   UNL     1       7.983  23.587  53.843  1.00  0.00     0.029 A 
ENDBRANCH   8  12
ENDBRANCH   3   6
ENDBRANCH   1   2
BRANCH   1  18
HETATM   18  N   UNL     1       6.286  28.013  55.088  1.00  0.00    -0.343 N 
HETATM   19  C   UNL     1       5.557  26.879  54.818  1.00  0.00     0.259 C 
HETATM   20  O   UNL     1       5.018  26.251  55.730  1.00  0.00    -0.267 OA
HETATM   21  H   UNL     1       6.814  28.398  54.311  1.00  0.00     0.163 HD
BRANCH  19  22
HETATM   22  C   UNL     1       5.414  26.508  53.419  1.00  0.00     0.072 A 
HETATM   23  S   UNL     1       5.712  27.607  52.140  1.00  0.00    -0.097 SA
HETATM   24  C   UNL     1       5.281  26.455  50.953  1.00  0.00     0.050 A 
HETATM   25  C   UNL     1       4.932  25.246  51.512  1.00  0.00     0.009 A 
HETATM   26  C   UNL     1       5.011  25.277  52.934  1.00  0.00     0.025 A 
ENDBRANCH  19  22
ENDBRANCH   1  18
BRANCH   1  27
HETATM   27  C   UNL     1       7.204  29.920  56.482  1.00  0.00     0.076 C 
BRANCH  27  28
HETATM   28  C   UNL     1       6.779  30.665  57.713  1.00  0.00    -0.028 A 
HETATM   29  C   UNL     1       7.625  31.210  58.732  1.00  0.00    -0.002 A 
HETATM   30  C   UNL     1       6.799  31.806  59.686  1.00  0.00     0.042 A 
HETATM   31  C   UNL     1       9.019  31.246  58.940  1.00  0.00     0.014 A 
HETATM   32  C   UNL     1       7.296  32.444  60.829  1.00  0.00     0.030 A 
HETATM   33  N   UNL     1       5.501  31.619  59.273  1.00  0.00    -0.365 N 
HETATM   34  C   UNL     1       8.682  32.475  61.004  1.00  0.00     0.002 A 
HETATM   35  C   UNL     1       9.534  31.884  60.075  1.00  0.00     0.001 A 
HETATM   36  H   UNL     1       4.687  31.934  59.782  1.00  0.00     0.165 HD
HETATM   37  C   UNL     1       5.476  30.938  58.087  1.00  0.00     0.096 A 
ENDBRANCH  27  28
ENDBRANCH   1  27
TORSDOF 7
ENDMDL
MODEL 3
REMARK VINA RESULT:      -9.9      2.972      3.698
REMARK  7 active torsions:
REMARK  status: ('A' for Active; 'I' for Inactive)
REMARK    1  A    between atoms: C_4  and  N_5 
REMARK       I    between atoms: N_5  and  C_6 
REMARK       I    between atoms: C_6  and  N_7 
REMARK    2  A    between atoms: N_7  and  N_8 
REMARK       I    between atoms: N_8  and  C_9 
REMARK    3  A    between atoms: C_9  and  C_10 
REMARK    4  A    between atoms: C_10  and  N_11 
REMARK    5  A    between atoms: C_10  and  C_19 
REMARK       I    between atoms: N_11  and  C_12 
REMARK    6  A    between atoms: C_12  and  C_13 
REMARK    7  A    between atoms: C_19  and  C_20 
ROOT
HETATM    1  C   UNL     1       5.919  25.486  54.158  1.00  0.00     0.183 C 
ENDROOT
BRANCH   1   2
HETATM    2  C   UNL     1       5.842  25.217  52.640  1.00  0.00     0.259 C 
HETATM    3  N   UNL     1       4.656  25.575  52.026  1.00  0.00    -0.264 N 
HETATM    4  H   UNL     1       4.054  26.258  52.500  1.00  0.00     0.190 HD
HETATM    5  O   UNL     1       6.828  24.848  51.998  1.00  0.00    -0.269 OA
BRANCH   3   6
HETATM    6  N   UNL     1       4.621  25.584  50.624  1.00  0.00    -0.249 N 
HETATM    7  C   UNL     1       4.502  26.748  49.891  1.00  0.00     0.339 C 
HETATM    8  N   UNL     1       4.571  27.885  50.662  1.00  0.00    -0.308 N 
HETATM    9  O   UNL     1       4.352  26.686  48.676  1.00  0.00    -0.245 OA
HETATM   10  H   UNL     1       4.556  27.699  51.654  1.00  0.00     0.170 HD
HETATM   11  H   UNL     1       4.373  24.717  50.152  1.00  0.00     0.192 HD
BRANCH   8  12
HETATM   12  C   UNL     1       4.524  29.227  50.246  1.00  0.00     0.036 A 
HETATM   13  C   UNL     1       3.344  29.897  49.921  1.00  0.00     0.029 A 
HETATM   14  C   UNL     1       3.378  31.235  49.515  1.00  0.00     0.002 A 
HETATM   15  C   UNL     1       4.591  31.914  49.433  1.00  0.00     0.000 A 
HETATM   16  C   UNL     1       5.775  31.252  49.750  1.00  0.00     0.002 A 
HETATM   17  C   UNL     1       5.742  29.913  50.151  1.00  0.00     0.029 A 
ENDBRANCH   8  12
ENDBRANCH   3   6
ENDBRANCH   1   2
BRANCH   1  18
HETATM   18  N   UNL     1       5.120  26.632  54.620  1.00  0.00    -0.343 N 
HETATM   19  C   UNL     1       5.297  27.936  54.220  1.00  0.00     0.259 C 
HETATM   20  O   UNL     1       6.066  28.206  53.297  1.00  0.00    -0.267 OA
HETATM   21  H   UNL     1       4.583  26.497  55.471  1.00  0.00     0.163 HD
BRANCH  19  22
HETATM   22  C   UNL     1       4.500  28.945  54.898  1.00  0.00     0.072 A 
HETATM   23  S   UNL     1       3.803  30.275  54.072  1.00  0.00    -0.097 SA
HETATM   24  C   UNL     1       3.154  30.923  55.515  1.00  0.00     0.050 A 
HETATM   25  C   UNL     1       3.444  30.138  56.608  1.00  0.00     0.009 A 
HETATM   26  C   UNL     1       4.217  28.996  56.251  1.00  0.00     0.025 A 
ENDBRANCH  19  22
ENDBRANCH   1  18
BRANCH   1  27
HETATM   27  C   UNL     1       7.395  25.517  54.590  1.00  0.00     0.076 C 
BRANCH  27  28
HETATM   28  C   UNL     1       7.747  24.421  55.553  1.00  0.00    -0.028 A 
HETATM   29  C   UNL     1       7.885  23.025  55.264  1.00  0.00    -0.002 A 
HETATM   30  C   UNL     1       8.210  22.382  56.459  1.00  0.00     0.042 A 
HETATM   31  C   UNL     1       7.754  22.243  54.098  1.00  0.00     0.014 A 
HETATM   32  C   UNL     1       8.422  21.000  56.544  1.00  0.00     0.030 A 
HETATM   33  N   UNL     1       8.255  23.344  57.439  1.00  0.00    -0.365 N 
HETATM   34  C   UNL     1       8.298  20.251  55.371  1.00  0.00     0.002 A 
HETATM   35  C   UNL     1       7.967  20.861  54.164  1.00  0.00     0.001 A 
HETATM   36  H   UNL     1       8.452  23.161  58.413  1.00  0.00     0.165 HD
HETATM   37  C   UNL     1       7.981  24.574  56.906  1.00  0.00     0.096 A 
ENDBRANCH  27  28
ENDBRANCH   1  27
TORSDOF 7
ENDMDL
MODEL 4
REMARK VINA RESULT:      -9.9      3.914      7.365
REMARK  7 active torsions:
REMARK  status: ('A' for Active; 'I' for Inactive)
REMARK    1  A    between atoms: C_4  and  N_5 
REMARK       I    between atoms: N_5  and  C_6 
REMARK       I    between atoms: C_6  and  N_7 
REMARK    2  A    between atoms: N_7  and  N_8 
REMARK       I    between atoms: N_8  and  C_9 
REMARK    3  A    between atoms: C_9  and  C_10 
REMARK    4  A    between atoms: C_10  and  N_11 
REMARK    5  A    between atoms: C_10  and  C_19 
REMARK       I    between atoms: N_11  and  C_12 
REMARK    6  A    between atoms: C_12  and  C_13 
REMARK    7  A    between atoms: C_19  and  C_20 
ROOT
HETATM    1  C   UNL     1       5.499  28.407  56.598  1.00  0.00     0.183 C 
ENDROOT
BRANCH   1   2
HETATM    2  C   UNL     1       4.353  29.418  56.828  1.00  0.00     0.259 C 
HETATM    3  N   UNL     1       4.192  29.858  58.128  1.00  0.00    -0.264 N 
HETATM    4  H   UNL     1       4.986  29.762  58.772  1.00  0.00     0.190 HD
HETATM    5  O   UNL     1       3.728  29.909  55.887  1.00  0.00    -0.269 OA
BRANCH   3   6
HETATM    6  N   UNL     1       3.340  30.949  58.350  1.00  0.00    -0.249 N 
HETATM    7  C   UNL     1       3.522  31.832  59.396  1.00  0.00     0.339 C 
HETATM    8  N   UNL     1       4.687  31.617  60.093  1.00  0.00    -0.308 N 
HETATM    9  O   UNL     1       2.677  32.694  59.614  1.00  0.00    -0.245 OA
HETATM   10  H   UNL     1       5.162  30.767  59.829  1.00  0.00     0.170 HD
HETATM   11  H   UNL     1       2.414  30.919  57.930  1.00  0.00     0.192 HD
BRANCH   8  12
HETATM   12  C   UNL     1       5.202  32.343  61.182  1.00  0.00     0.036 A 
HETATM   13  C   UNL     1       4.461  32.662  62.321  1.00  0.00     0.029 A 
HETATM   14  C   UNL     1       5.043  33.388  63.364  1.00  0.00     0.002 A 
HETATM   15  C   UNL     1       6.370  33.801  63.278  1.00  0.00     0.000 A 
HETATM   16  C   UNL     1       7.116  33.494  62.143  1.00  0.00     0.002 A 
HETATM   17  C   UNL     1       6.533  32.772  61.098  1.00  0.00     0.029 A 
ENDBRANCH   8  12
ENDBRANCH   3   6
ENDBRANCH   1   2
BRANCH   1  18
HETATM   18  N   UNL     1       6.851  28.981  56.690  1.00  0.00    -0.343 N 
HETATM   19  C   UNL     1       7.828  28.573  57.568  1.00  0.00     0.259 C 
HETATM   20  O   UNL     1       7.672  27.559  58.248  1.00  0.00    -0.267 OA
HETATM   21  H   UNL     1       6.986  29.894  56.269  1.00  0.00     0.163 HD
BRANCH  19  22
HETATM   22  C   UNL     1       9.050  29.360  57.602  1.00  0.00     0.072 A 
HETATM   23  S   UNL     1       9.178  30.825  58.481  1.00  0.00    -0.097 SA
HETATM   24  C   UNL     1      10.786  31.080  57.960  1.00  0.00     0.050 A 
HETATM   25  C   UNL     1      11.231  30.065  57.145  1.00  0.00     0.009 A 
HETATM   26  C   UNL     1      10.231  29.071  56.941  1.00  0.00     0.025 A 
ENDBRANCH  19  22
ENDBRANCH   1  18
BRANCH   1  27
HETATM   27  C   UNL     1       5.223  27.617  55.307  1.00  0.00     0.076 C 
BRANCH  27  28
HETATM   28  C   UNL     1       5.841  26.250  55.315  1.00  0.00    -0.028 A 
HETATM   29  C   UNL     1       6.544  25.611  54.243  1.00  0.00    -0.002 A 
HETATM   30  C   UNL     1       6.934  24.349  54.693  1.00  0.00     0.042 A 
HETATM   31  C   UNL     1       6.880  25.983  52.925  1.00  0.00     0.014 A 
HETATM   32  C   UNL     1       7.650  23.446  53.897  1.00  0.00     0.030 A 
HETATM   33  N   UNL     1       6.475  24.218  55.982  1.00  0.00    -0.365 N 
HETATM   34  C   UNL     1       7.979  23.845  52.600  1.00  0.00     0.002 A 
HETATM   35  C   UNL     1       7.599  25.095  52.117  1.00  0.00     0.001 A 
HETATM   36  H   UNL     1       6.598  23.394  56.554  1.00  0.00     0.165 HD
HETATM   37  C   UNL     1       5.819  25.356  56.368  1.00  0.00     0.096 A 
ENDBRANCH  27  28
ENDBRANCH   1  27
TORSDOF 7
ENDMDL
MODEL 5
REMARK VINA RESULT:      -9.9      2.512      6.142
REMARK  7 active torsions:
REMARK  status: ('A' for Active; 'I' for Inactive)
REMARK    1  A    between atoms: C_4  and  N_5 
REMARK       I    between atoms: N_5  and  C_6 
REMARK       I    between atoms: C_6  and  N_7 
REMARK    2  A    between atoms: N_7  and  N_8 
REMARK       I    between atoms: N_8  and  C_9 
REMARK    3  A    between atoms: C_9  and  C_10 
REMARK    4  A    between atoms: C_10  and  N_11 
REMARK    5  A    between atoms: C_10  and  C_19 
REMARK       I    between atoms: N_11  and  C_12 
REMARK    6  A    between atoms: C_12  and  C_13 
REMARK    7  A    between atoms: C_19  and  C_20 
ROOT
HETATM    1  C   UNL     1       6.298  27.795  56.722  1.00  0.00     0.183 C 
ENDROOT
BRANCH   1   2
HETATM    2  C   UNL     1       6.645  26.352  57.148  1.00  0.00     0.259 C 
HETATM    3  N   UNL     1       7.990  26.083  57.318  1.00  0.00    -0.264 N 
HETATM    4  H   UNL     1       8.625  26.874  57.470  1.00  0.00     0.190 HD
HETATM    5  O   UNL     1       5.769  25.543  57.460  1.00  0.00    -0.269 OA
BRANCH   3   6
HETATM    6  N   UNL     1       8.343  24.875  57.936  1.00  0.00    -0.249 N 
HETATM    7  C   UNL     1       8.334  23.667  57.267  1.00  0.00     0.339 C 
HETATM    8  N   UNL     1       8.089  23.794  55.920  1.00  0.00    -0.308 N 
HETATM    9  O   UNL     1       8.533  22.629  57.889  1.00  0.00    -0.245 OA
HETATM   10  H   UNL     1       7.816  24.726  55.648  1.00  0.00     0.170 HD
HETATM   11  H   UNL     1       8.312  24.837  58.953  1.00  0.00     0.192 HD
BRANCH   8  12
HETATM   12  C   UNL     1       8.045  22.786  54.941  1.00  0.00     0.036 A 
HETATM   13  C   UNL     1       8.046  23.038  53.568  1.00  0.00     0.029 A 
HETATM   14  C   UNL     1       8.001  21.981  52.654  1.00  0.00     0.002 A 
HETATM   15  C   UNL     1       7.958  20.664  53.104  1.00  0.00     0.000 A 
HETATM   16  C   UNL     1       7.951  20.402  54.472  1.00  0.00     0.002 A 
HETATM   17  C   UNL     1       7.990  21.459  55.386  1.00  0.00     0.029 A 
ENDBRANCH   8  12
ENDBRANCH   3   6
ENDBRANCH   1   2
BRANCH   1  18
HETATM   18  N   UNL     1       6.539  28.815  57.756  1.00  0.00    -0.343 N 
HETATM   19  C   UNL     1       7.608  29.679  57.783  1.00  0.00     0.259 C 
HETATM   20  O   UNL     1       8.373  29.757  56.822  1.00  0.00    -0.267 OA
HETATM   21  H   UNL     1       6.036  28.702  58.630  1.00  0.00     0.163 HD
BRANCH  19  22
HETATM   22  C   UNL     1       7.745  30.517  58.964  1.00  0.00     0.072 A 
HETATM   23  S   UNL     1       6.681  31.817  59.298  1.00  0.00    -0.097 SA
HETATM   24  C   UNL     1       7.538  32.248  60.714  1.00  0.00     0.050 A 
HETATM   25  C   UNL     1       8.606  31.412  60.944  1.00  0.00     0.009 A 
HETATM   26  C   UNL     1       8.724  30.412  59.936  1.00  0.00     0.025 A 
ENDBRANCH  19  22
ENDBRANCH   1  18
BRANCH   1  27
HETATM   27  C   UNL     1       4.883  27.816  56.117  1.00  0.00     0.076 C 
BRANCH  27  28
HETATM   28  C   UNL     1       4.886  28.018  54.631  1.00  0.00    -0.028 A 
HETATM   29  C   UNL     1       4.994  27.009  53.619  1.00  0.00    -0.002 A 
HETATM   30  C   UNL     1       4.961  27.654  52.382  1.00  0.00     0.042 A 
HETATM   31  C   UNL     1       5.126  25.606  53.637  1.00  0.00     0.014 A 
HETATM   32  C   UNL     1       5.043  26.967  51.164  1.00  0.00     0.030 A 
HETATM   33  N   UNL     1       4.852  29.002  52.629  1.00  0.00    -0.365 N 
HETATM   34  C   UNL     1       5.162  25.576  51.212  1.00  0.00     0.002 A 
HETATM   35  C   UNL     1       5.205  24.902  52.430  1.00  0.00     0.001 A 
HETATM   36  H   UNL     1       4.824  29.715  51.913  1.00  0.00     0.165 HD
HETATM   37  C   UNL     1       4.803  29.233  53.976  1.00  0.00     0.096 A 
ENDBRANCH  27  28
ENDBRANCH   1  27
TORSDOF 7
ENDMDL
MODEL 6
REMARK VINA RESULT:      -9.8      2.342      3.462
REMARK  7 active torsions:
REMARK  status: ('A' for Active; 'I' for Inactive)
REMARK    1  A    between atoms: C_4  and  N_5 
REMARK       I    between atoms: N_5  and  C_6 
REMARK       I    between atoms: C_6  and  N_7 
REMARK    2  A    between atoms: N_7  and  N_8 
REMARK       I    between atoms: N_8  and  C_9 
REMARK    3  A    between atoms: C_9  and  C_10 
REMARK    4  A    between atoms: C_10  and  N_11 
REMARK    5  A    between atoms: C_10  and  C_19 
REMARK       I    between atoms: N_11  and  C_12 
REMARK    6  A    between atoms: C_12  and  C_13 
REMARK    7  A    between atoms: C_19  and  C_20 
ROOT
HETATM    1  C   UNL     1       6.695  24.770  53.393  1.00  0.00     0.183 C 
ENDROOT
BRANCH   1   2
HETATM    2  C   UNL     1       5.723  25.272  52.302  1.00  0.00     0.259 C 
HETATM    3  N   UNL     1       6.286  26.049  51.308  1.00  0.00    -0.264 N 
HETATM    4  H   UNL     1       7.300  25.986  51.161  1.00  0.00     0.190 HD
HETATM    5  O   UNL     1       4.557  24.877  52.246  1.00  0.00    -0.269 OA
BRANCH   3   6
HETATM    6  N   UNL     1       5.511  26.323  50.172  1.00  0.00    -0.249 N 
HETATM    7  C   UNL     1       5.050  27.590  49.875  1.00  0.00     0.339 C 
HETATM    8  N   UNL     1       5.547  28.559  50.714  1.00  0.00    -0.308 N 
HETATM    9  O   UNL     1       4.275  27.748  48.938  1.00  0.00    -0.245 OA
HETATM   10  H   UNL     1       6.057  28.187  51.501  1.00  0.00     0.170 HD
HETATM   11  H   UNL     1       5.028  25.543  49.729  1.00  0.00     0.192 HD
BRANCH   8  12
HETATM   12  C   UNL     1       5.320  29.947  50.678  1.00  0.00     0.036 A 
HETATM   13  C   UNL     1       4.410  30.605  51.507  1.00  0.00     0.029 A 
HETATM   14  C   UNL     1       4.240  31.990  51.413  1.00  0.00     0.002 A 
HETATM   15  C   UNL     1       4.979  32.727  50.491  1.00  0.00     0.000 A 
HETATM   16  C   UNL     1       5.885  32.079  49.655  1.00  0.00     0.002 A 
HETATM   17  C   UNL     1       6.051  30.694  49.746  1.00  0.00     0.029 A 
ENDBRANCH   8  12
ENDBRANCH   3   6
ENDBRANCH   1   2
BRANCH   1  18
HETATM   18  N   UNL     1       7.188  25.815  54.304  1.00  0.00    -0.343 N 
HETATM   19  C   UNL     1       6.536  26.257  55.431  1.00  0.00     0.259 C 
HETATM   20  O   UNL     1       5.536  25.670  55.845  1.00  0.00    -0.267 OA
HETATM   21  H   UNL     1       7.916  26.424  53.944  1.00  0.00     0.163 HD
BRANCH  19  22
HETATM   22  C   UNL     1       7.117  27.397  56.122  1.00  0.00     0.072 A 
HETATM   23  S   UNL     1       6.488  28.983  55.970  1.00  0.00    -0.097 SA
HETATM   24  C   UNL     1       7.705  29.639  56.976  1.00  0.00     0.050 A 
HETATM   25  C   UNL     1       8.570  28.672  57.436  1.00  0.00     0.009 A 
HETATM   26  C   UNL     1       8.228  27.379  56.945  1.00  0.00     0.025 A 
ENDBRANCH  19  22
ENDBRANCH   1  18
BRANCH   1  27
HETATM   27  C   UNL     1       7.795  23.920  52.735  1.00  0.00     0.076 C 
BRANCH  27  28
HETATM   28  C   UNL     1       7.914  22.550  53.335  1.00  0.00    -0.028 A 
HETATM   29  C   UNL     1       8.098  22.223  54.718  1.00  0.00    -0.002 A 
HETATM   30  C   UNL     1       8.163  20.832  54.812  1.00  0.00     0.042 A 
HETATM   31  C   UNL     1       8.224  22.979  55.901  1.00  0.00     0.014 A 
HETATM   32  C   UNL     1       8.337  20.161  56.028  1.00  0.00     0.030 A 
HETATM   33  N   UNL     1       8.039  20.332  53.538  1.00  0.00    -0.365 N 
HETATM   34  C   UNL     1       8.448  20.935  57.186  1.00  0.00     0.002 A 
HETATM   35  C   UNL     1       8.394  22.325  57.127  1.00  0.00     0.001 A 
HETATM   36  H   UNL     1       8.069  19.350  53.302  1.00  0.00     0.165 HD
HETATM   37  C   UNL     1       7.886  21.355  52.642  1.00  0.00     0.096 A 
ENDBRANCH  27  28
ENDBRANCH   1  27
TORSDOF 7
ENDMDL
MODEL 7
REMARK VINA RESULT:      -9.8      2.868      7.590
REMARK  7 active torsions:
REMARK  status: ('A' for Active; 'I' for Inactive)
REMARK    1  A    between atoms: C_4  and  N_5 
REMARK       I    between atoms: N_5  and  C_6 
REMARK       I    between atoms: C_6  and  N_7 
REMARK    2  A    between atoms: N_7  and  N_8 
REMARK       I    between atoms: N_8  and  C_9 
REMARK    3  A    between atoms: C_9  and  C_10 
REMARK    4  A    between atoms: C_10  and  N_11 
REMARK    5  A    between atoms: C_10  and  C_19 
REMARK       I    between atoms: N_11  and  C_12 
REMARK    6  A    between atoms: C_12  and  C_13 
REMARK    7  A    between atoms: C_19  and  C_20 
ROOT
HETATM    1  C   UNL     1       5.663  27.155  55.391  1.00  0.00     0.183 C 
ENDROOT
BRANCH   1   2
HETATM    2  C   UNL     1       4.968  28.312  56.142  1.00  0.00     0.259 C 
HETATM    3  N   UNL     1       5.809  29.243  56.721  1.00  0.00    -0.264 N 
HETATM    4  H   UNL     1       6.771  29.308  56.371  1.00  0.00     0.190 HD
HETATM    5  O   UNL     1       3.746  28.469  56.096  1.00  0.00    -0.269 OA
BRANCH   3   6
HETATM    6  N   UNL     1       5.240  30.433  57.197  1.00  0.00    -0.249 N 
HETATM    7  C   UNL     1       5.777  31.142  58.253  1.00  0.00     0.339 C 
HETATM    8  N   UNL     1       6.985  30.646  58.682  1.00  0.00    -0.308 N 
HETATM    9  O   UNL     1       5.170  32.107  58.705  1.00  0.00    -0.245 OA
HETATM   10  H   UNL     1       7.230  29.764  58.260  1.00  0.00     0.170 HD
HETATM   11  H   UNL     1       4.265  30.616  56.970  1.00  0.00     0.192 HD
BRANCH   8  12
HETATM   12  C   UNL     1       7.820  31.139  59.701  1.00  0.00     0.036 A 
HETATM   13  C   UNL     1       7.426  31.264  61.034  1.00  0.00     0.029 A 
HETATM   14  C   UNL     1       8.315  31.763  61.992  1.00  0.00     0.002 A 
HETATM   15  C   UNL     1       9.604  32.139  61.625  1.00  0.00     0.000 A 
HETATM   16  C   UNL     1      10.005  32.025  60.296  1.00  0.00     0.002 A 
HETATM   17  C   UNL     1       9.115  31.531  59.338  1.00  0.00     0.029 A 
ENDBRANCH   8  12
ENDBRANCH   3   6
ENDBRANCH   1   2
BRANCH   1  18
HETATM   18  N   UNL     1       5.292  27.034  53.972  1.00  0.00    -0.343 N 
HETATM   19  C   UNL     1       6.168  27.104  52.914  1.00  0.00     0.259 C 
HETATM   20  O   UNL     1       7.384  27.116  53.110  1.00  0.00    -0.267 OA
HETATM   21  H   UNL     1       4.312  27.168  53.746  1.00  0.00     0.163 HD
BRANCH  19  22
HETATM   22  C   UNL     1       5.589  27.105  51.580  1.00  0.00     0.072 A 
HETATM   23  S   UNL     1       5.270  28.549  50.716  1.00  0.00    -0.097 SA
HETATM   24  C   UNL     1       4.600  27.696  49.396  1.00  0.00     0.050 A 
HETATM   25  C   UNL     1       4.629  26.334  49.593  1.00  0.00     0.009 A 
HETATM   26  C   UNL     1       5.203  25.994  50.852  1.00  0.00     0.025 A 
ENDBRANCH  19  22
ENDBRANCH   1  18
BRANCH   1  27
HETATM   27  C   UNL     1       5.510  25.860  56.207  1.00  0.00     0.076 C 
BRANCH  27  28
HETATM   28  C   UNL     1       6.771  25.048  56.257  1.00  0.00    -0.028 A 
HETATM   29  C   UNL     1       7.262  24.147  55.256  1.00  0.00    -0.002 A 
HETATM   30  C   UNL     1       8.459  23.609  55.731  1.00  0.00     0.042 A 
HETATM   31  C   UNL     1       6.797  23.730  53.993  1.00  0.00     0.014 A 
HETATM   32  C   UNL     1       9.218  22.685  55.003  1.00  0.00     0.030 A 
HETATM   33  N   UNL     1       8.681  24.148  56.976  1.00  0.00    -0.365 N 
HETATM   34  C   UNL     1       8.739  22.298  53.748  1.00  0.00     0.002 A 
HETATM   35  C   UNL     1       7.545  22.811  53.248  1.00  0.00     0.001 A 
HETATM   36  H   UNL     1       9.471  23.923  57.565  1.00  0.00     0.165 HD
HETATM   37  C   UNL     1       7.675  25.016  57.301  1.00  0.00     0.096 A 
ENDBRANCH  27  28
ENDBRANCH   1  27
TORSDOF 7
ENDMDL
MODEL 8
REMARK VINA RESULT:      -9.8      2.810      7.253
REMARK  7 active torsions:
REMARK  status: ('A' for Active; 'I' for Inactive)
REMARK    1  A    between atoms: C_4  and  N_5 
REMARK       I    between atoms: N_5  and  C_6 
REMARK       I    between atoms: C_6  and  N_7 
REMARK    2  A    between atoms: N_7  and  N_8 
REMARK       I    between atoms: N_8  and  C_9 
REMARK    3  A    between atoms: C_9  and  C_10 
REMARK    4  A    between atoms: C_10  and  N_11 
REMARK    5  A    between atoms: C_10  and  C_19 
REMARK       I    between atoms: N_11  and  C_12 
REMARK    6  A    between atoms: C_12  and  C_13 
REMARK    7  A    between atoms: C_19  and  C_20 
ROOT
HETATM    1  C   UNL     1       5.077  26.286  52.440  1.00  0.00     0.183 C 
ENDROOT
BRANCH   1   2
HETATM    2  C   UNL     1       4.647  27.516  53.270  1.00  0.00     0.259 C 
HETATM    3  N   UNL     1       4.294  27.261  54.582  1.00  0.00    -0.264 N 
HETATM    4  H   UNL     1       4.626  26.390  55.011  1.00  0.00     0.190 HD
HETATM    5  O   UNL     1       4.758  28.662  52.831  1.00  0.00    -0.269 OA
BRANCH   3   6
HETATM    6  N   UNL     1       4.135  28.356  55.442  1.00  0.00    -0.249 N 
HETATM    7  C   UNL     1       5.200  28.955  56.087  1.00  0.00     0.339 C 
HETATM    8  N   UNL     1       6.421  28.465  55.688  1.00  0.00    -0.308 N 
HETATM    9  O   UNL     1       4.988  29.828  56.921  1.00  0.00    -0.245 OA
HETATM   10  H   UNL     1       6.353  27.653  55.094  1.00  0.00     0.170 HD
HETATM   11  H   UNL     1       3.210  28.521  55.834  1.00  0.00     0.192 HD
BRANCH   8  12
HETATM   12  C   UNL     1       7.702  28.867  56.106  1.00  0.00     0.036 A 
HETATM   13  C   UNL     1       8.764  29.105  55.231  1.00  0.00     0.029 A 
HETATM   14  C   UNL     1      10.011  29.503  55.723  1.00  0.00     0.002 A 
HETATM   15  C   UNL     1      10.206  29.669  57.091  1.00  0.00     0.000 A 
HETATM   16  C   UNL     1       9.155  29.428  57.973  1.00  0.00     0.002 A 
HETATM   17  C   UNL     1       7.910  29.025  57.482  1.00  0.00     0.029 A 
ENDBRANCH   8  12
ENDBRANCH   3   6
ENDBRANCH   1   2
BRANCH   1  18
HETATM   18  N   UNL     1       4.423  26.173  51.126  1.00  0.00    -0.343 N 
HETATM   19  C   UNL     1       4.725  26.935  50.022  1.00  0.00     0.259 C 
HETATM   20  O   UNL     1       5.707  27.679  50.025  1.00  0.00    -0.267 OA
HETATM   21  H   UNL     1       3.529  25.694  51.104  1.00  0.00     0.163 HD
BRANCH  19  22
HETATM   22  C   UNL     1       3.870  26.772  48.857  1.00  0.00     0.072 A 
HETATM   23  S   UNL     1       2.758  27.974  48.355  1.00  0.00    -0.097 SA
HETATM   24  C   UNL     1       2.186  27.009  47.066  1.00  0.00     0.050 A 
HETATM   25  C   UNL     1       2.836  25.798  47.001  1.00  0.00     0.009 A 
HETATM   26  C   UNL     1       3.809  25.662  48.033  1.00  0.00     0.025 A 
ENDBRANCH  19  22
ENDBRANCH   1  18
BRANCH   1  27
HETATM   27  C   UNL     1       4.978  25.026  53.317  1.00  0.00     0.076 C 
BRANCH  27  28
HETATM   28  C   UNL     1       6.319  24.455  53.673  1.00  0.00    -0.028 A 
HETATM   29  C   UNL     1       6.981  24.523  54.941  1.00  0.00    -0.002 A 
HETATM   30  C   UNL     1       8.205  23.865  54.809  1.00  0.00     0.042 A 
HETATM   31  C   UNL     1       6.661  25.093  56.190  1.00  0.00     0.014 A 
HETATM   32  C   UNL     1       9.117  23.739  55.864  1.00  0.00     0.030 A 
HETATM   33  N   UNL     1       8.291  23.426  53.509  1.00  0.00    -0.365 N 
HETATM   34  C   UNL     1       8.768  24.302  57.094  1.00  0.00     0.002 A 
HETATM   35  C   UNL     1       7.558  24.971  57.258  1.00  0.00     0.001 A 
HETATM   36  H   UNL     1       9.083  22.929  53.124  1.00  0.00     0.165 HD
HETATM   37  C   UNL     1       7.163  23.771  52.818  1.00  0.00     0.096 A 
ENDBRANCH  27  28
ENDBRANCH   1  27
TORSDOF 7
ENDMDL
MODEL 9
REMARK VINA RESULT:      -9.7      2.045      6.319
REMARK  7 active torsions:
REMARK  status: ('A' for Active; 'I' for Inactive)
REMARK    1  A    between atoms: C_4  and  N_5 
REMARK       I    between atoms: N_5  and  C_6 
REMARK       I    between atoms: C_6  and  N_7 
REMARK    2  A    between atoms: N_7  and  N_8 
REMARK       I    between atoms: N_8  and  C_9 
REMARK    3  A    between atoms: C_9  and  C_10 
REMARK    4  A    between atoms: C_10  and  N_11 
REMARK    5  A    between atoms: C_10  and  C_19 
REMARK       I    between atoms: N_11  and  C_12 
REMARK    6  A    between atoms: C_12  and  C_13 
REMARK    7  A    between atoms: C_19  and  C_20 
ROOT
HETATM    1  C   UNL     1       7.298  27.423  55.805  1.00  0.00     0.183 C 
ENDROOT
BRANCH   1   2
HETATM    2  C   UNL     1       5.847  27.851  55.492  1.00  0.00     0.259 C 
HETATM    3  N   UNL     1       5.664  28.525  54.299  1.00  0.00    -0.264 N 
HETATM    4  H   UNL     1       6.381  28.424  53.572  1.00  0.00     0.190 HD
HETATM    5  O   UNL     1       4.901  27.482  56.190  1.00  0.00    -0.269 OA
BRANCH   3   6
HETATM    6  N   UNL     1       4.349  28.717  53.851  1.00  0.00    -0.249 N 
HETATM    7  C   UNL     1       3.988  28.572  52.526  1.00  0.00     0.339 C 
HETATM    8  N   UNL     1       5.002  28.084  51.736  1.00  0.00    -0.308 N 
HETATM    9  O   UNL     1       2.853  28.872  52.172  1.00  0.00    -0.245 OA
HETATM   10  H   UNL     1       5.892  28.039  52.208  1.00  0.00     0.170 HD
HETATM   11  H   UNL     1       3.723  29.261  54.441  1.00  0.00     0.192 HD
BRANCH   8  12
HETATM   12  C   UNL     1       4.973  27.782  50.363  1.00  0.00     0.036 A 
HETATM   13  C   UNL     1       4.568  26.549  49.849  1.00  0.00     0.029 A 
HETATM   14  C   UNL     1       4.564  26.324  48.469  1.00  0.00     0.002 A 
HETATM   15  C   UNL     1       4.964  27.329  47.592  1.00  0.00     0.000 A 
HETATM   16  C   UNL     1       5.376  28.561  48.095  1.00  0.00     0.002 A 
HETATM   17  C   UNL     1       5.384  28.784  49.475  1.00  0.00     0.029 A 
ENDBRANCH   8  12
ENDBRANCH   3   6
ENDBRANCH   1   2
BRANCH   1  18
HETATM   18  N   UNL     1       7.619  26.033  55.441  1.00  0.00    -0.343 N 
HETATM   19  C   UNL     1       7.534  25.504  54.175  1.00  0.00     0.259 C 
HETATM   20  O   UNL     1       7.326  26.235  53.206  1.00  0.00    -0.267 OA
HETATM   21  H   UNL     1       7.652  25.362  56.202  1.00  0.00     0.163 HD
BRANCH  19  22
HETATM   22  C   UNL     1       7.756  24.073  54.044  1.00  0.00     0.072 A 
HETATM   23  S   UNL     1       8.209  23.087  55.370  1.00  0.00    -0.097 SA
HETATM   24  C   UNL     1       8.306  21.690  54.390  1.00  0.00     0.050 A 
HETATM   25  C   UNL     1       7.986  21.957  53.078  1.00  0.00     0.009 A 
HETATM   26  C   UNL     1       7.666  23.331  52.880  1.00  0.00     0.025 A 
ENDBRANCH  19  22
ENDBRANCH   1  18
BRANCH   1  27
HETATM   27  C   UNL     1       7.633  27.800  57.257  1.00  0.00     0.076 C 
BRANCH  27  28
HETATM   28  C   UNL     1       8.664  28.886  57.356  1.00  0.00    -0.028 A 
HETATM   29  C   UNL     1       8.735  29.927  58.339  1.00  0.00    -0.002 A 
HETATM   30  C   UNL     1       9.850  30.710  58.035  1.00  0.00     0.042 A 
HETATM   31  C   UNL     1       7.951  30.284  59.454  1.00  0.00     0.014 A 
HETATM   32  C   UNL     1      10.224  31.824  58.797  1.00  0.00     0.030 A 
HETATM   33  N   UNL     1      10.426  30.178  56.907  1.00  0.00    -0.365 N 
HETATM   34  C   UNL     1       9.436  32.148  59.904  1.00  0.00     0.002 A 
HETATM   35  C   UNL     1       8.313  31.391  60.230  1.00  0.00     0.001 A 
HETATM   36  H   UNL     1      11.244  30.556  56.449  1.00  0.00     0.165 HD
HETATM   37  C   UNL     1       9.724  29.080  56.491  1.00  0.00     0.096 A 
ENDBRANCH  27  28
ENDBRANCH   1  27
TORSDOF 7
ENDMDL
MODEL 10
REMARK VINA RESULT:      -9.5      2.518      5.975
REMARK  7 active torsions:
REMARK  status: ('A' for Active; 'I' for Inactive)
REMARK    1  A    between atoms: C_4  and  N_5 
REMARK       I    between atoms: N_5  and  C_6 
REMARK       I    between atoms: C_6  and  N_7 
REMARK    2  A    between atoms: N_7  and  N_8 
REMARK       I    between atoms: N_8  and  C_9 
REMARK    3  A    between atoms: C_9  and  C_10 
REMARK    4  A    between atoms: C_10  and  N_11 
REMARK    5  A    between atoms: C_10  and  C_19 
REMARK       I    between atoms: N_11  and  C_12 
REMARK    6  A    between atoms: C_12  and  C_13 
REMARK    7  A    between atoms: C_19  and  C_20 
ROOT
HETATM    1  C   UNL     1       7.015  26.754  55.113  1.00  0.00     0.183 C 
ENDROOT
BRANCH   1   2
HETATM    2  C   UNL     1       7.132  27.757  53.944  1.00  0.00     0.259 C 
HETATM    3  N   UNL     1       5.951  28.065  53.297  1.00  0.00    -0.264 N 
HETATM    4  H   UNL     1       5.069  27.891  53.792  1.00  0.00     0.190 HD
HETATM    5  O   UNL     1       8.185  28.353  53.708  1.00  0.00    -0.269 OA
BRANCH   3   6
HETATM    6  N   UNL     1       5.956  29.143  52.401  1.00  0.00    -0.249 N 
HETATM    7  C   UNL     1       5.432  29.053  51.126  1.00  0.00     0.339 C 
HETATM    8  N   UNL     1       4.786  27.863  50.888  1.00  0.00    -0.308 N 
HETATM    9  O   UNL     1       5.575  29.988  50.346  1.00  0.00    -0.245 OA
HETATM   10  H   UNL     1       4.911  27.184  51.623  1.00  0.00     0.170 HD
HETATM   11  H   UNL     1       6.617  29.899  52.573  1.00  0.00     0.192 HD
BRANCH   8  12
HETATM   12  C   UNL     1       4.111  27.453  49.724  1.00  0.00     0.036 A 
HETATM   13  C   UNL     1       4.581  26.458  48.866  1.00  0.00     0.029 A 
HETATM   14  C   UNL     1       3.853  26.104  47.726  1.00  0.00     0.002 A 
HETATM   15  C   UNL     1       2.649  26.741  47.436  1.00  0.00     0.000 A 
HETATM   16  C   UNL     1       2.174  27.740  48.283  1.00  0.00     0.002 A 
HETATM   17  C   UNL     1       2.905  28.097  49.419  1.00  0.00     0.029 A 
ENDBRANCH   8  12
ENDBRANCH   3   6
ENDBRANCH   1   2
BRANCH   1  18
HETATM   18  N   UNL     1       7.071  25.338  54.715  1.00  0.00    -0.343 N 
HETATM   19  C   UNL     1       7.826  24.369  55.334  1.00  0.00     0.259 C 
HETATM   20  O   UNL     1       8.401  24.609  56.396  1.00  0.00    -0.267 OA
HETATM   21  H   UNL     1       6.742  25.117  53.781  1.00  0.00     0.163 HD
BRANCH  19  22
HETATM   22  C   UNL     1       7.856  23.059  54.705  1.00  0.00     0.072 A 
HETATM   23  S   UNL     1       7.881  21.604  55.608  1.00  0.00    -0.097 SA
HETATM   24  C   UNL     1       7.968  20.644  54.197  1.00  0.00     0.050 A 
HETATM   25  C   UNL     1       7.962  21.409  53.052  1.00  0.00     0.009 A 
HETATM   26  C   UNL     1       7.895  22.802  53.346  1.00  0.00     0.025 A 
ENDBRANCH  19  22
ENDBRANCH   1  18
BRANCH   1  27
HETATM   27  C   UNL     1       5.801  27.130  55.980  1.00  0.00     0.076 C 
BRANCH  27  28
HETATM   28  C   UNL     1       6.031  28.363  56.804  1.00  0.00    -0.028 A 
HETATM   29  C   UNL     1       7.288  28.893  57.241  1.00  0.00    -0.002 A 
HETATM   30  C   UNL     1       7.021  30.042  57.985  1.00  0.00     0.042 A 
HETATM   31  C   UNL     1       8.632  28.497  57.081  1.00  0.00     0.014 A 
HETATM   32  C   UNL     1       8.028  30.821  58.568  1.00  0.00     0.030 A 
HETATM   33  N   UNL     1       5.656  30.199  58.014  1.00  0.00    -0.365 N 
HETATM   34  C   UNL     1       9.352  30.412  58.384  1.00  0.00     0.002 A 
HETATM   35  C   UNL     1       9.653  29.267  57.652  1.00  0.00     0.001 A 
HETATM   36  H   UNL     1       5.175  30.944  58.500  1.00  0.00     0.165 HD
HETATM   37  C   UNL     1       5.050  29.198  57.305  1.00  0.00     0.096 A 
ENDBRANCH  27  28
ENDBRANCH   1  27
TORSDOF 7
ENDMDL
