MODEL 1
REMARK VINA RESULT:     -10.3      0.000      0.000
REMARK  4 active torsions:
REMARK  status: ('A' for Active; 'I' for Inactive)
REMARK       I    between atoms: N_2  and  C_4 
REMARK       I    between atoms: C_4  and  N_6 
REMARK    1  A    between atoms: N_6  and  C_7 
REMARK    2  A    between atoms: C_12  and  C_13 
REMARK    3  A    between atoms: C_15  and  N_16 
REMARK    4  A    between atoms: N_16  and  C_17 
ROOT
HETATM    1  C   UNL     1       7.086  24.340  53.167  1.00  0.00     0.164 A 
HETATM    2  N   UNL     1       7.698  25.396  53.720  1.00  0.00    -0.210 NA
HETATM    3  C   UNL     1       7.366  26.624  53.293  1.00  0.00     0.143 A 
HETATM    4  C   UNL     1       6.407  26.824  52.288  1.00  0.00     0.039 A 
HETATM    5  C   UNL     1       6.003  28.088  51.786  1.00  0.00     0.018 A 
HETATM    6  C   UNL     1       5.047  28.181  50.777  1.00  0.00     0.001 A 
HETATM    7  C   UNL     1       4.483  27.021  50.265  1.00  0.00     0.002 A 
HETATM    8  C   UNL     1       4.873  25.777  50.772  1.00  0.00     0.032 A 
HETATM    9  C   UNL     1       5.822  25.657  51.779  1.00  0.00     0.073 A 
HETATM   10  N   UNL     1       6.137  24.432  52.218  1.00  0.00    -0.228 NA
ENDROOT
BRANCH   1  11
HETATM   11  C   UNL     1       7.503  22.999  53.640  1.00  0.00     0.039 A 
HETATM   12  C   UNL     1       7.435  22.577  54.996  1.00  0.00     0.050 A 
HETATM   13  C   UNL     1       7.892  21.295  55.344  1.00  0.00     0.030 A 
HETATM   14  C   UNL     1       8.389  20.414  54.382  1.00  0.00     0.002 A 
HETATM   15  C   UNL     1       8.450  20.804  53.053  1.00  0.00     0.001 A 
HETATM   16  C   UNL     1       8.018  22.079  52.692  1.00  0.00     0.018 A 
BRANCH  12  17
HETATM   17  N   UNL     1       6.959  23.478  55.980  1.00  0.00    -0.308 N 
HETATM   18  C   UNL     1       7.667  24.397  56.718  1.00  0.00     0.322 C 
HETATM   19  N   UNL     1       6.869  25.297  57.429  1.00  0.00    -0.343 N 
HETATM   20  O   UNL     1       8.893  24.446  56.783  1.00  0.00    -0.247 OA
HETATM   21  C   UNL     1       7.545  26.247  58.296  1.00  0.00     0.154 C 
HETATM   22  C   UNL     1       5.488  25.625  57.095  1.00  0.00     0.154 C 
HETATM   23  H   UNL     1       6.038  23.253  56.344  1.00  0.00     0.170 HD
ENDBRANCH  12  17
ENDBRANCH   1  11
BRANCH   3  24
HETATM   24  N   UNL     1       8.029  27.743  53.869  1.00  0.00    -0.340 N 
HETATM   25  H   UNL     1       9.028  27.574  53.854  1.00  0.00     0.167 HD
BRANCH  24  26
HETATM   26  C   UNL     1       7.626  28.436  55.038  1.00  0.00     0.034 A 
HETATM   27  C   UNL     1       6.258  28.589  55.316  1.00  0.00     0.032 A 
HETATM   28  C   UNL     1       5.800  29.245  56.470  1.00  0.00     0.034 A 
HETATM   29  C   UNL     1       6.770  29.721  57.355  1.00  0.00     0.062 A 
HETATM   30  N   UNL     1       6.673  30.393  58.545  1.00  0.00    -0.278 N 
HETATM   31  C   UNL     1       8.131  29.560  57.138  1.00  0.00     0.013 A 
HETATM   32  H   UNL     1       5.830  30.691  59.021  1.00  0.00     0.189 HD
HETATM   33  N   UNL     1       7.858  30.669  59.120  1.00  0.00    -0.186 NA
HETATM   34  C   UNL     1       8.744  30.160  58.259  1.00  0.00     0.152 A 
HETATM   35  C   UNL     1       8.567  28.900  55.976  1.00  0.00     0.044 A 
ENDBRANCH  24  26
ENDBRANCH   3  24
TORSDOF 4
ENDMDL
MODEL 2
REMARK VINA RESULT:     -10.2      2.386      7.069
REMARK  4 active torsions:
REMARK  status: ('A' for Active; 'I' for Inactive)
REMARK       I    between atoms: N_2  and  C_4 
REMARK       I    between atoms: C_4  and  N_6 
REMARK    1  A    between atoms: N_6  and  C_7 
REMARK    2  A    between atoms: C_12  and  C_13 
REMARK    3  A    between atoms: C_15  and  N_16 
REMARK    4  A    between atoms: N_16  and  C_17 
ROOT
HETATM    1  C   UNL     1       8.009  28.066  55.816  1.00  0.00     0.164 A 
HETATM    2  N   UNL     1       7.754  26.855  56.331  1.00  0.00    -0.210 NA
HETATM    3  C   UNL     1       6.963  26.019  55.640  1.00  0.00     0.143 A 
HETATM    4  C   UNL     1       6.399  26.383  54.408  1.00  0.00     0.039 A 
HETATM    5  C   UNL     1       5.556  25.556  53.621  1.00  0.00     0.018 A 
HETATM    6  C   UNL     1       5.036  26.014  52.412  1.00  0.00     0.001 A 
HETATM    7  C   UNL     1       5.356  27.293  51.976  1.00  0.00     0.002 A 
HETATM    8  C   UNL     1       6.198  28.100  52.747  1.00  0.00     0.032 A 
HETATM    9  C   UNL     1       6.731  27.667  53.955  1.00  0.00     0.073 A 
HETATM   10  N   UNL     1       7.535  28.494  54.632  1.00  0.00    -0.228 NA
ENDROOT
BRANCH   1  11
HETATM   11  C   UNL     1       8.858  28.973  56.623  1.00  0.00     0.039 A 
HETATM   12  C   UNL     1       8.353  29.893  57.580  1.00  0.00     0.050 A 
HETATM   13  C   UNL     1       9.243  30.736  58.266  1.00  0.00     0.030 A 
HETATM   14  C   UNL     1      10.621  30.670  58.048  1.00  0.00     0.002 A 
HETATM   15  C   UNL     1      11.132  29.769  57.128  1.00  0.00     0.001 A 
HETATM   16  C   UNL     1      10.262  28.938  56.425  1.00  0.00     0.018 A 
BRANCH  12  17
HETATM   17  N   UNL     1       6.953  29.984  57.784  1.00  0.00    -0.308 N 
HETATM   18  C   UNL     1       6.193  31.100  58.045  1.00  0.00     0.322 C 
HETATM   19  N   UNL     1       4.816  30.887  57.955  1.00  0.00    -0.343 N 
HETATM   20  O   UNL     1       6.648  32.200  58.347  1.00  0.00    -0.247 OA
HETATM   21  C   UNL     1       3.944  31.999  58.296  1.00  0.00     0.154 C 
HETATM   22  C   UNL     1       4.190  29.811  57.196  1.00  0.00     0.154 C 
HETATM   23  H   UNL     1       6.502  29.099  57.994  1.00  0.00     0.170 HD
ENDBRANCH  12  17
ENDBRANCH   1  11
BRANCH   3  24
HETATM   24  N   UNL     1       6.681  24.741  56.197  1.00  0.00    -0.340 N 
HETATM   25  H   UNL     1       6.551  24.842  57.197  1.00  0.00     0.167 HD
BRANCH  24  26
HETATM   26  C   UNL     1       7.335  23.527  55.866  1.00  0.00     0.034 A 
HETATM   27  C   UNL     1       8.006  22.808  56.868  1.00  0.00     0.032 A 
HETATM   28  C   UNL     1       8.651  21.589  56.606  1.00  0.00     0.034 A 
HETATM   29  C   UNL     1       8.574  21.100  55.300  1.00  0.00     0.062 A 
HETATM   30  N   UNL     1       9.080  19.969  54.714  1.00  0.00    -0.278 N 
HETATM   31  C   UNL     1       7.891  21.760  54.288  1.00  0.00     0.013 A 
HETATM   32  H   UNL     1       9.641  19.246  55.147  1.00  0.00     0.189 HD
HETATM   33  N   UNL     1       8.770  19.838  53.411  1.00  0.00    -0.186 NA
HETATM   34  C   UNL     1       8.046  20.931  53.155  1.00  0.00     0.152 A 
HETATM   35  C   UNL     1       7.252  22.979  54.573  1.00  0.00     0.044 A 
ENDBRANCH  24  26
ENDBRANCH   3  24
TORSDOF 4
ENDMDL
MODEL 3
REMARK VINA RESULT:     -10.1      3.188      7.533
REMARK  4 active torsions:
REMARK  status: ('A' for Active; 'I' for Inactive)
REMARK       I    between atoms: N_2  and  C_4 
REMARK       I    between atoms: C_4  and  N_6 
REMARK    1  A    between atoms: N_6  and  C_7 
REMARK    2  A    between atoms: C_12  and  C_13 
REMARK    3  A    between atoms: C_15  and  N_16 
REMARK    4  A    between atoms: N_16  and  C_17 
ROOT
HETATM    1  C   UNL     1       5.003  27.397  51.621  1.00  0.00     0.164 A 
HETATM    2  N   UNL     1       6.108  26.712  51.947  1.00  0.00    -0.210 NA
HETATM    3  C   UNL     1       6.496  26.696  53.232  1.00  0.00     0.143 A 
HETATM    4  C   UNL     1       5.783  27.380  54.228  1.00  0.00     0.039 A 
HETATM    5  C   UNL     1       6.128  27.410  55.604  1.00  0.00     0.018 A 
HETATM    6  C   UNL     1       5.358  28.127  56.517  1.00  0.00     0.001 A 
HETATM    7  C   UNL     1       4.238  28.813  56.069  1.00  0.00     0.002 A 
HETATM    8  C   UNL     1       3.891  28.770  54.716  1.00  0.00     0.032 A 
HETATM    9  C   UNL     1       4.641  28.061  53.786  1.00  0.00     0.073 A 
HETATM   10  N   UNL     1       4.241  28.060  52.508  1.00  0.00    -0.228 NA
ENDROOT
BRANCH   1  11
HETATM   11  C   UNL     1       4.626  27.418  50.188  1.00  0.00     0.039 A 
HETATM   12  C   UNL     1       4.265  28.596  49.479  1.00  0.00     0.050 A 
HETATM   13  C   UNL     1       3.887  28.500  48.129  1.00  0.00     0.030 A 
HETATM   14  C   UNL     1       3.885  27.275  47.459  1.00  0.00     0.002 A 
HETATM   15  C   UNL     1       4.247  26.119  48.132  1.00  0.00     0.001 A 
HETATM   16  C   UNL     1       4.607  26.192  49.477  1.00  0.00     0.018 A 
BRANCH  12  17
HETATM   17  N   UNL     1       4.238  29.837  50.162  1.00  0.00    -0.308 N 
HETATM   18  C   UNL     1       5.188  30.831  50.177  1.00  0.00     0.322 C 
HETATM   19  N   UNL     1       4.754  32.028  50.751  1.00  0.00    -0.343 N 
HETATM   20  O   UNL     1       6.332  30.711  49.744  1.00  0.00    -0.247 OA
HETATM   21  C   UNL     1       5.728  33.100  50.877  1.00  0.00     0.154 C 
HETATM   22  C   UNL     1       3.359  32.431  50.876  1.00  0.00     0.154 C 
HETATM   23  H   UNL     1       3.549  29.890  50.906  1.00  0.00     0.170 HD
ENDBRANCH  12  17
ENDBRANCH   1  11
BRANCH   3  24
HETATM   24  N   UNL     1       7.677  25.982  53.573  1.00  0.00    -0.340 N 
HETATM   25  H   UNL     1       8.416  26.247  52.931  1.00  0.00     0.167 HD
BRANCH  24  26
HETATM   26  C   UNL     1       7.748  24.610  53.925  1.00  0.00     0.034 A 
HETATM   27  C   UNL     1       7.489  24.221  55.249  1.00  0.00     0.032 A 
HETATM   28  C   UNL     1       7.520  22.876  55.651  1.00  0.00     0.034 A 
HETATM   29  C   UNL     1       7.795  21.927  54.664  1.00  0.00     0.062 A 
HETATM   30  N   UNL     1       7.901  20.562  54.711  1.00  0.00    -0.278 N 
HETATM   31  C   UNL     1       8.021  22.264  53.337  1.00  0.00     0.013 A 
HETATM   32  H   UNL     1       7.802  19.961  55.520  1.00  0.00     0.189 HD
HETATM   33  N   UNL     1       8.166  19.989  53.523  1.00  0.00    -0.186 NA
HETATM   34  C   UNL     1       8.238  21.029  52.688  1.00  0.00     0.152 A 
HETATM   35  C   UNL     1       7.984  23.618  52.957  1.00  0.00     0.044 A 
ENDBRANCH  24  26
ENDBRANCH   3  24
TORSDOF 4
ENDMDL
MODEL 4
REMARK VINA RESULT:      -9.7      2.954      7.394
REMARK  4 active torsions:
REMARK  status: ('A' for Active; 'I' for Inactive)
REMARK       I    between atoms: N_2  and  C_4 
REMARK       I    between atoms: C_4  and  N_6 
REMARK    1  A    between atoms: N_6  and  C_7 
REMARK    2  A    between atoms: C_12  and  C_13 
REMARK    3  A    between atoms: C_15  and  N_16 
REMARK    4  A    between atoms: N_16  and  C_17 
ROOT
HETATM    1  C   UNL     1       6.039  27.128  53.226  1.00  0.00     0.164 A 
HETATM    2  N   UNL     1       5.898  25.988  53.916  1.00  0.00    -0.210 NA
HETATM    3  C   UNL     1       6.544  25.863  55.086  1.00  0.00     0.143 A 
HETATM    4  C   UNL     1       7.360  26.885  55.593  1.00  0.00     0.039 A 
HETATM    5  C   UNL     1       8.073  26.829  56.819  1.00  0.00     0.018 A 
HETATM    6  C   UNL     1       8.867  27.896  57.232  1.00  0.00     0.001 A 
HETATM    7  C   UNL     1       8.953  29.028  56.433  1.00  0.00     0.002 A 
HETATM    8  C   UNL     1       8.238  29.088  55.233  1.00  0.00     0.032 A 
HETATM    9  C   UNL     1       7.438  28.038  54.799  1.00  0.00     0.073 A 
HETATM   10  N   UNL     1       6.778  28.172  53.643  1.00  0.00    -0.228 NA
ENDROOT
BRANCH   1  11
HETATM   11  C   UNL     1       5.338  27.216  51.924  1.00  0.00     0.039 A 
HETATM   12  C   UNL     1       4.550  28.327  51.518  1.00  0.00     0.050 A 
HETATM   13  C   UNL     1       3.895  28.292  50.276  1.00  0.00     0.030 A 
HETATM   14  C   UNL     1       4.025  27.200  49.416  1.00  0.00     0.002 A 
HETATM   15  C   UNL     1       4.800  26.114  49.789  1.00  0.00     0.001 A 
HETATM   16  C   UNL     1       5.442  26.123  51.027  1.00  0.00     0.018 A 
BRANCH  12  17
HETATM   17  N   UNL     1       4.392  29.425  52.400  1.00  0.00    -0.308 N 
HETATM   18  C   UNL     1       4.430  30.769  52.114  1.00  0.00     0.322 C 
HETATM   19  N   UNL     1       3.999  31.588  53.161  1.00  0.00    -0.343 N 
HETATM   20  O   UNL     1       4.815  31.246  51.050  1.00  0.00    -0.247 OA
HETATM   21  C   UNL     1       4.088  33.025  52.963  1.00  0.00     0.154 C 
HETATM   22  C   UNL     1       3.129  31.158  54.248  1.00  0.00     0.154 C 
HETATM   23  H   UNL     1       4.499  29.191  53.383  1.00  0.00     0.170 HD
ENDBRANCH  12  17
ENDBRANCH   1  11
BRANCH   3  24
HETATM   24  N   UNL     1       6.405  24.646  55.809  1.00  0.00    -0.340 N 
HETATM   25  H   UNL     1       6.327  24.860  56.797  1.00  0.00     0.167 HD
BRANCH  24  26
HETATM   26  C   UNL     1       7.140  23.455  55.581  1.00  0.00     0.034 A 
HETATM   27  C   UNL     1       7.782  22.822  56.657  1.00  0.00     0.032 A 
HETATM   28  C   UNL     1       8.504  21.628  56.496  1.00  0.00     0.034 A 
HETATM   29  C   UNL     1       8.535  21.075  55.215  1.00  0.00     0.062 A 
HETATM   30  N   UNL     1       9.135  19.946  54.718  1.00  0.00    -0.278 N 
HETATM   31  C   UNL     1       7.885  21.648  54.131  1.00  0.00     0.013 A 
HETATM   32  H   UNL     1       9.703  19.276  55.221  1.00  0.00     0.189 HD
HETATM   33  N   UNL     1       8.916  19.738  53.407  1.00  0.00    -0.186 NA
HETATM   34  C   UNL     1       8.154  20.776  53.053  1.00  0.00     0.152 A 
HETATM   35  C   UNL     1       7.168  22.843  54.315  1.00  0.00     0.044 A 
ENDBRANCH  24  26
ENDBRANCH   3  24
TORSDOF 4
ENDMDL
MODEL 5
REMARK VINA RESULT:      -9.7      2.638      6.820
REMARK  4 active torsions:
REMARK  status: ('A' for Active; 'I' for Inactive)
REMARK       I    between atoms: N_2  and  C_4 
REMARK       I    between atoms: C_4  and  N_6 
REMARK    1  A    between atoms: N_6  and  C_7 
REMARK    2  A    between atoms: C_12  and  C_13 
REMARK    3  A    between atoms: C_15  and  N_16 
REMARK    4  A    between atoms: N_16  and  C_17 
ROOT
HETATM    1  C   UNL     1       4.230  29.688  53.420  1.00  0.00     0.164 A 
HETATM    2  N   UNL     1       4.167  28.396  53.770  1.00  0.00    -0.210 NA
HETATM    3  C   UNL     1       4.346  27.465  52.820  1.00  0.00     0.143 A 
HETATM    4  C   UNL     1       4.588  27.812  51.482  1.00  0.00     0.039 A 
HETATM    5  C   UNL     1       4.788  26.888  50.423  1.00  0.00     0.018 A 
HETATM    6  C   UNL     1       5.011  27.333  49.123  1.00  0.00     0.001 A 
HETATM    7  C   UNL     1       5.045  28.697  48.867  1.00  0.00     0.002 A 
HETATM    8  C   UNL     1       4.863  29.605  49.914  1.00  0.00     0.032 A 
HETATM    9  C   UNL     1       4.639  29.187  51.220  1.00  0.00     0.073 A 
HETATM   10  N   UNL     1       4.481  30.117  52.170  1.00  0.00    -0.228 NA
ENDROOT
BRANCH   1  11
HETATM   11  C   UNL     1       3.993  30.685  54.490  1.00  0.00     0.039 A 
HETATM   12  C   UNL     1       4.901  30.941  55.554  1.00  0.00     0.050 A 
HETATM   13  C   UNL     1       4.562  31.883  56.539  1.00  0.00     0.030 A 
HETATM   14  C   UNL     1       3.364  32.596  56.483  1.00  0.00     0.002 A 
HETATM   15  C   UNL     1       2.473  32.369  55.446  1.00  0.00     0.001 A 
HETATM   16  C   UNL     1       2.784  31.425  54.469  1.00  0.00     0.018 A 
BRANCH  12  17
HETATM   17  N   UNL     1       6.106  30.199  55.632  1.00  0.00    -0.308 N 
HETATM   18  C   UNL     1       6.460  29.228  56.538  1.00  0.00     0.322 C 
HETATM   19  N   UNL     1       7.616  28.522  56.197  1.00  0.00    -0.343 N 
HETATM   20  O   UNL     1       5.848  28.982  57.574  1.00  0.00    -0.247 OA
HETATM   21  C   UNL     1       8.100  27.534  57.147  1.00  0.00     0.154 C 
HETATM   22  C   UNL     1       8.148  28.404  54.845  1.00  0.00     0.154 C 
HETATM   23  H   UNL     1       6.877  30.597  55.105  1.00  0.00     0.170 HD
ENDBRANCH  12  17
ENDBRANCH   1  11
BRANCH   3  24
HETATM   24  N   UNL     1       4.264  26.095  53.191  1.00  0.00    -0.340 N 
HETATM   25  H   UNL     1       3.403  25.947  53.706  1.00  0.00     0.167 HD
BRANCH  24  26
HETATM   26  C   UNL     1       5.326  25.305  53.697  1.00  0.00     0.034 A 
HETATM   27  C   UNL     1       5.617  25.335  55.071  1.00  0.00     0.032 A 
HETATM   28  C   UNL     1       6.642  24.557  55.633  1.00  0.00     0.034 A 
HETATM   29  C   UNL     1       7.350  23.721  54.767  1.00  0.00     0.062 A 
HETATM   30  N   UNL     1       8.388  22.851  54.978  1.00  0.00    -0.278 N 
HETATM   31  C   UNL     1       7.072  23.633  53.410  1.00  0.00     0.013 A 
HETATM   32  H   UNL     1       8.861  22.654  55.851  1.00  0.00     0.189 HD
HETATM   33  N   UNL     1       8.795  22.201  53.873  1.00  0.00    -0.186 NA
HETATM   34  C   UNL     1       7.991  22.680  52.920  1.00  0.00     0.152 A 
HETATM   35  C   UNL     1       6.041  24.421  52.869  1.00  0.00     0.044 A 
ENDBRANCH  24  26
ENDBRANCH   3  24
TORSDOF 4
ENDMDL
MODEL 6
REMARK VINA RESULT:      -9.5      2.505      5.454
REMARK  4 active torsions:
REMARK  status: ('A' for Active; 'I' for Inactive)
REMARK       I    between atoms: N_2  and  C_4 
REMARK       I    between atoms: C_4  and  N_6 
REMARK    1  A    between atoms: N_6  and  C_7 
REMARK    2  A    between atoms: C_12  and  C_13 
REMARK    3  A    between atoms: C_15  and  N_16 
REMARK    4  A    between atoms: N_16  and  C_17 
ROOT
HETATM    1  C   UNL     1       6.219  26.361  53.684  1.00  0.00     0.164 A 
HETATM    2  N   UNL     1       6.204  27.141  54.774  1.00  0.00    -0.210 NA
HETATM    3  C   UNL     1       6.797  26.692  55.891  1.00  0.00     0.143 A 
HETATM    4  C   UNL     1       7.419  25.435  55.945  1.00  0.00     0.039 A 
HETATM    5  C   UNL     1       8.066  24.892  57.085  1.00  0.00     0.018 A 
HETATM    6  C   UNL     1       8.646  23.627  57.040  1.00  0.00     0.001 A 
HETATM    7  C   UNL     1       8.593  22.896  55.861  1.00  0.00     0.002 A 
HETATM    8  C   UNL     1       7.969  23.439  54.735  1.00  0.00     0.032 A 
HETATM    9  C   UNL     1       7.383  24.699  54.752  1.00  0.00     0.073 A 
HETATM   10  N   UNL     1       6.810  25.153  53.631  1.00  0.00    -0.228 NA
ENDROOT
BRANCH   1  11
HETATM   11  C   UNL     1       5.525  26.876  52.481  1.00  0.00     0.039 A 
HETATM   12  C   UNL     1       4.747  28.065  52.459  1.00  0.00     0.050 A 
HETATM   13  C   UNL     1       4.099  28.445  51.272  1.00  0.00     0.030 A 
HETATM   14  C   UNL     1       4.224  27.694  50.102  1.00  0.00     0.002 A 
HETATM   15  C   UNL     1       4.990  26.539  50.101  1.00  0.00     0.001 A 
HETATM   16  C   UNL     1       5.625  26.137  51.275  1.00  0.00     0.018 A 
BRANCH  12  17
HETATM   17  N   UNL     1       4.592  28.815  53.652  1.00  0.00    -0.308 N 
HETATM   18  C   UNL     1       3.836  29.943  53.866  1.00  0.00     0.322 C 
HETATM   19  N   UNL     1       3.708  30.299  55.211  1.00  0.00    -0.343 N 
HETATM   20  O   UNL     1       3.314  30.613  52.979  1.00  0.00    -0.247 OA
HETATM   21  C   UNL     1       2.991  31.526  55.511  1.00  0.00     0.154 C 
HETATM   22  C   UNL     1       3.879  29.382  56.332  1.00  0.00     0.154 C 
HETATM   23  H   UNL     1       5.302  28.634  54.355  1.00  0.00     0.170 HD
ENDBRANCH  12  17
ENDBRANCH   1  11
BRANCH   3  24
HETATM   24  N   UNL     1       6.767  27.515  57.050  1.00  0.00    -0.340 N 
HETATM   25  H   UNL     1       5.815  27.827  57.204  1.00  0.00     0.167 HD
BRANCH  24  26
HETATM   26  C   UNL     1       7.714  28.516  57.384  1.00  0.00     0.034 A 
HETATM   27  C   UNL     1       8.986  28.491  56.791  1.00  0.00     0.032 A 
HETATM   28  C   UNL     1       9.956  29.469  57.065  1.00  0.00     0.034 A 
HETATM   29  C   UNL     1       9.592  30.494  57.940  1.00  0.00     0.062 A 
HETATM   30  N   UNL     1      10.279  31.580  58.414  1.00  0.00    -0.278 N 
HETATM   31  C   UNL     1       8.334  30.577  58.521  1.00  0.00     0.013 A 
HETATM   32  H   UNL     1      11.235  31.845  58.209  1.00  0.00     0.189 HD
HETATM   33  N   UNL     1       9.566  32.364  59.244  1.00  0.00    -0.186 NA
HETATM   34  C   UNL     1       8.382  31.749  59.306  1.00  0.00     0.152 A 
HETATM   35  C   UNL     1       7.378  29.587  58.232  1.00  0.00     0.044 A 
ENDBRANCH  24  26
ENDBRANCH   3  24
TORSDOF 4
ENDMDL
MODEL 7
REMARK VINA RESULT:      -9.5      2.736      5.729
REMARK  4 active torsions:
REMARK  status: ('A' for Active; 'I' for Inactive)
REMARK       I    between atoms: N_2  and  C_4 
REMARK       I    between atoms: C_4  and  N_6 
REMARK    1  A    between atoms: N_6  and  C_7 
REMARK    2  A    between atoms: C_12  and  C_13 
REMARK    3  A    between atoms: C_15  and  N_16 
REMARK    4  A    between atoms: N_16  and  C_17 
ROOT
HETATM    1  C   UNL     1       7.615  26.702  56.891  1.00  0.00     0.164 A 
HETATM    2  N   UNL     1       6.341  27.113  56.958  1.00  0.00    -0.210 NA
HETATM    3  C   UNL     1       6.093  28.361  57.386  1.00  0.00     0.143 A 
HETATM    4  C   UNL     1       7.125  29.231  57.767  1.00  0.00     0.039 A 
HETATM    5  C   UNL     1       6.942  30.561  58.227  1.00  0.00     0.018 A 
HETATM    6  C   UNL     1       8.034  31.345  58.592  1.00  0.00     0.001 A 
HETATM    7  C   UNL     1       9.314  30.816  58.495  1.00  0.00     0.002 A 
HETATM    8  C   UNL     1       9.492  29.510  58.026  1.00  0.00     0.032 A 
HETATM    9  C   UNL     1       8.420  28.708  57.655  1.00  0.00     0.073 A 
HETATM   10  N   UNL     1       8.671  27.472  57.209  1.00  0.00    -0.228 NA
ENDROOT
BRANCH   1  11
HETATM   11  C   UNL     1       7.847  25.308  56.446  1.00  0.00     0.039 A 
HETATM   12  C   UNL     1       7.670  24.860  55.109  1.00  0.00     0.050 A 
HETATM   13  C   UNL     1       7.882  23.506  54.800  1.00  0.00     0.030 A 
HETATM   14  C   UNL     1       8.291  22.593  55.774  1.00  0.00     0.002 A 
HETATM   15  C   UNL     1       8.482  23.016  57.080  1.00  0.00     0.001 A 
HETATM   16  C   UNL     1       8.259  24.352  57.408  1.00  0.00     0.018 A 
BRANCH  12  17
HETATM   17  N   UNL     1       7.227  25.776  54.122  1.00  0.00    -0.308 N 
HETATM   18  C   UNL     1       5.979  25.893  53.556  1.00  0.00     0.322 C 
HETATM   19  N   UNL     1       5.804  27.049  52.793  1.00  0.00    -0.343 N 
HETATM   20  O   UNL     1       5.078  25.068  53.677  1.00  0.00    -0.247 OA
HETATM   21  C   UNL     1       4.538  27.203  52.096  1.00  0.00     0.154 C 
HETATM   22  C   UNL     1       6.592  28.267  52.938  1.00  0.00     0.154 C 
HETATM   23  H   UNL     1       7.975  26.236  53.613  1.00  0.00     0.170 HD
ENDBRANCH  12  17
ENDBRANCH   1  11
BRANCH   3  24
HETATM   24  N   UNL     1       4.739  28.789  57.472  1.00  0.00    -0.340 N 
HETATM   25  H   UNL     1       4.162  27.997  57.732  1.00  0.00     0.167 HD
BRANCH  24  26
HETATM   26  C   UNL     1       4.080  29.649  56.557  1.00  0.00     0.034 A 
HETATM   27  C   UNL     1       3.280  30.695  57.045  1.00  0.00     0.032 A 
HETATM   28  C   UNL     1       2.622  31.592  56.188  1.00  0.00     0.034 A 
HETATM   29  C   UNL     1       2.818  31.417  54.817  1.00  0.00     0.062 A 
HETATM   30  N   UNL     1       2.336  32.096  53.728  1.00  0.00    -0.278 N 
HETATM   31  C   UNL     1       3.628  30.419  54.293  1.00  0.00     0.013 A 
HETATM   32  H   UNL     1       1.706  32.889  53.724  1.00  0.00     0.189 HD
HETATM   33  N   UNL     1       2.776  31.627  52.547  1.00  0.00    -0.186 NA
HETATM   34  C   UNL     1       3.563  30.605  52.895  1.00  0.00     0.152 A 
HETATM   35  C   UNL     1       4.278  29.533  55.170  1.00  0.00     0.044 A 
ENDBRANCH  24  26
ENDBRANCH   3  24
TORSDOF 4
ENDMDL
MODEL 8
REMARK VINA RESULT:      -9.2      2.094      6.665
REMARK  4 active torsions:
REMARK  status: ('A' for Active; 'I' for Inactive)
REMARK       I    between atoms: N_2  and  C_4 
REMARK       I    between atoms: C_4  and  N_6 
REMARK    1  A    between atoms: N_6  and  C_7 
REMARK    2  A    between atoms: C_12  and  C_13 
REMARK    3  A    between atoms: C_15  and  N_16 
REMARK    4  A    between atoms: N_16  and  C_17 
ROOT
HETATM    1  C   UNL     1       5.268  28.727  54.499  1.00  0.00     0.164 A 
HETATM    2  N   UNL     1       6.327  27.906  54.507  1.00  0.00    -0.210 NA
HETATM    3  C   UNL     1       6.581  27.178  53.408  1.00  0.00     0.143 A 
HETATM    4  C   UNL     1       5.767  27.253  52.267  1.00  0.00     0.039 A 
HETATM    5  C   UNL     1       5.971  26.518  51.070  1.00  0.00     0.018 A 
HETATM    6  C   UNL     1       5.099  26.655  49.993  1.00  0.00     0.001 A 
HETATM    7  C   UNL     1       4.024  27.527  50.095  1.00  0.00     0.002 A 
HETATM    8  C   UNL     1       3.834  28.261  51.270  1.00  0.00     0.032 A 
HETATM    9  C   UNL     1       4.690  28.144  52.358  1.00  0.00     0.073 A 
HETATM   10  N   UNL     1       4.446  28.885  53.446  1.00  0.00    -0.228 NA
ENDROOT
BRANCH   1  11
HETATM   11  C   UNL     1       5.000  29.488  55.742  1.00  0.00     0.039 A 
HETATM   12  C   UNL     1       6.005  30.139  56.508  1.00  0.00     0.050 A 
HETATM   13  C   UNL     1       5.648  30.803  57.693  1.00  0.00     0.030 A 
HETATM   14  C   UNL     1       4.321  30.863  58.122  1.00  0.00     0.002 A 
HETATM   15  C   UNL     1       3.326  30.246  57.381  1.00  0.00     0.001 A 
HETATM   16  C   UNL     1       3.664  29.566  56.212  1.00  0.00     0.018 A 
BRANCH  12  17
HETATM   17  N   UNL     1       7.357  30.057  56.092  1.00  0.00    -0.308 N 
HETATM   18  C   UNL     1       8.476  29.808  56.851  1.00  0.00     0.322 C 
HETATM   19  N   UNL     1       9.629  29.554  56.104  1.00  0.00    -0.343 N 
HETATM   20  O   UNL     1       8.503  29.813  58.079  1.00  0.00    -0.247 OA
HETATM   21  C   UNL     1      10.870  29.362  56.836  1.00  0.00     0.154 C 
HETATM   22  C   UNL     1       9.637  29.086  54.723  1.00  0.00     0.154 C 
HETATM   23  H   UNL     1       7.539  30.459  55.178  1.00  0.00     0.170 HD
ENDBRANCH  12  17
ENDBRANCH   1  11
BRANCH   3  24
HETATM   24  N   UNL     1       7.696  26.295  53.424  1.00  0.00    -0.340 N 
HETATM   25  H   UNL     1       8.209  26.402  52.557  1.00  0.00     0.167 HD
BRANCH  24  26
HETATM   26  C   UNL     1       7.685  24.950  53.872  1.00  0.00     0.034 A 
HETATM   27  C   UNL     1       7.319  24.665  55.197  1.00  0.00     0.032 A 
HETATM   28  C   UNL     1       7.267  23.351  55.689  1.00  0.00     0.034 A 
HETATM   29  C   UNL     1       7.570  22.326  54.791  1.00  0.00     0.062 A 
HETATM   30  N   UNL     1       7.616  20.964  54.938  1.00  0.00    -0.278 N 
HETATM   31  C   UNL     1       7.901  22.560  53.464  1.00  0.00     0.013 A 
HETATM   32  H   UNL     1       7.437  20.425  55.776  1.00  0.00     0.189 HD
HETATM   33  N   UNL     1       7.938  20.299  53.813  1.00  0.00    -0.186 NA
HETATM   34  C   UNL     1       8.111  21.276  52.918  1.00  0.00     0.152 A 
HETATM   35  C   UNL     1       7.946  23.884  52.992  1.00  0.00     0.044 A 
ENDBRANCH  24  26
ENDBRANCH   3  24
TORSDOF 4
ENDMDL
MODEL 9
REMARK VINA RESULT:      -9.1      2.837      6.483
REMARK  4 active torsions:
REMARK  status: ('A' for Active; 'I' for Inactive)
REMARK       I    between atoms: N_2  and  C_4 
REMARK       I    between atoms: C_4  and  N_6 
REMARK    1  A    between atoms: N_6  and  C_7 
REMARK    2  A    between atoms: C_12  and  C_13 
REMARK    3  A    between atoms: C_15  and  N_16 
REMARK    4  A    between atoms: N_16  and  C_17 
ROOT
HETATM    1  C   UNL     1       5.807  27.515  54.903  1.00  0.00     0.164 A 
HETATM    2  N   UNL     1       5.929  27.645  53.575  1.00  0.00    -0.210 NA
HETATM    3  C   UNL     1       5.288  28.656  52.968  1.00  0.00     0.143 A 
HETATM    4  C   UNL     1       4.496  29.565  53.685  1.00  0.00     0.039 A 
HETATM    5  C   UNL     1       3.790  30.657  53.117  1.00  0.00     0.018 A 
HETATM    6  C   UNL     1       3.020  31.500  53.914  1.00  0.00     0.001 A 
HETATM    7  C   UNL     1       2.952  31.269  55.281  1.00  0.00     0.002 A 
HETATM    8  C   UNL     1       3.660  30.201  55.841  1.00  0.00     0.032 A 
HETATM    9  C   UNL     1       4.436  29.346  55.068  1.00  0.00     0.073 A 
HETATM   10  N   UNL     1       5.092  28.351  55.678  1.00  0.00    -0.228 NA
ENDROOT
BRANCH   1  11
HETATM   11  C   UNL     1       6.502  26.368  55.532  1.00  0.00     0.039 A 
HETATM   12  C   UNL     1       7.213  26.445  56.760  1.00  0.00     0.050 A 
HETATM   13  C   UNL     1       7.870  25.304  57.251  1.00  0.00     0.030 A 
HETATM   14  C   UNL     1       7.816  24.085  56.572  1.00  0.00     0.002 A 
HETATM   15  C   UNL     1       7.115  23.988  55.381  1.00  0.00     0.001 A 
HETATM   16  C   UNL     1       6.473  25.115  54.869  1.00  0.00     0.018 A 
BRANCH  12  17
HETATM   17  N   UNL     1       7.296  27.687  57.438  1.00  0.00    -0.308 N 
HETATM   18  C   UNL     1       8.359  28.555  57.516  1.00  0.00     0.322 C 
HETATM   19  N   UNL     1       8.041  29.802  58.058  1.00  0.00    -0.343 N 
HETATM   20  O   UNL     1       9.505  28.289  57.163  1.00  0.00    -0.247 OA
HETATM   21  C   UNL     1       9.130  30.745  58.248  1.00  0.00     0.154 C 
HETATM   22  C   UNL     1       6.701  30.377  58.086  1.00  0.00     0.154 C 
HETATM   23  H   UNL     1       6.570  27.833  58.133  1.00  0.00     0.170 HD
ENDBRANCH  12  17
ENDBRANCH   1  11
BRANCH   3  24
HETATM   24  N   UNL     1       5.407  28.782  51.557  1.00  0.00    -0.340 N 
HETATM   25  H   UNL     1       5.534  29.761  51.326  1.00  0.00     0.167 HD
BRANCH  24  26
HETATM   26  C   UNL     1       4.615  28.109  50.592  1.00  0.00     0.034 A 
HETATM   27  C   UNL     1       4.994  26.829  50.158  1.00  0.00     0.032 A 
HETATM   28  C   UNL     1       4.237  26.104  49.223  1.00  0.00     0.034 A 
HETATM   29  C   UNL     1       3.065  26.703  48.758  1.00  0.00     0.062 A 
HETATM   30  N   UNL     1       2.116  26.284  47.862  1.00  0.00    -0.278 N 
HETATM   31  C   UNL     1       2.634  27.950  49.188  1.00  0.00     0.013 A 
HETATM   32  H   UNL     1       2.099  25.417  47.339  1.00  0.00     0.189 HD
HETATM   33  N   UNL     1       1.103  27.152  47.686  1.00  0.00    -0.186 NA
HETATM   34  C   UNL     1       1.422  28.166  48.496  1.00  0.00     0.152 A 
HETATM   35  C   UNL     1       3.407  28.658  50.125  1.00  0.00     0.044 A 
ENDBRANCH  24  26
ENDBRANCH   3  24
TORSDOF 4
ENDMDL
MODEL 10
REMARK VINA RESULT:      -9.0      3.561      8.960
REMARK  4 active torsions:
REMARK  status: ('A' for Active; 'I' for Inactive)
REMARK       I    between atoms: N_2  and  C_4 
REMARK       I    between atoms: C_4  and  N_6 
REMARK    1  A    between atoms: N_6  and  C_7 
REMARK    2  A    between atoms: C_12  and  C_13 
REMARK    3  A    between atoms: C_15  and  N_16 
REMARK    4  A    between atoms: N_16  and  C_17 
ROOT
HETATM    1  C   UNL     1       6.745  31.421  58.699  1.00  0.00     0.164 A 
HETATM    2  N   UNL     1       6.249  30.513  57.847  1.00  0.00    -0.210 NA
HETATM    3  C   UNL     1       7.108  29.784  57.117  1.00  0.00     0.143 A 
HETATM    4  C   UNL     1       8.497  29.955  57.219  1.00  0.00     0.039 A 
HETATM    5  C   UNL     1       9.466  29.225  56.484  1.00  0.00     0.018 A 
HETATM    6  C   UNL     1      10.825  29.476  56.650  1.00  0.00     0.001 A 
HETATM    7  C   UNL     1      11.231  30.450  57.553  1.00  0.00     0.002 A 
HETATM    8  C   UNL     1      10.275  31.157  58.288  1.00  0.00     0.032 A 
HETATM    9  C   UNL     1       8.913  30.925  58.141  1.00  0.00     0.073 A 
HETATM   10  N   UNL     1       8.059  31.638  58.886  1.00  0.00    -0.228 NA
ENDROOT
BRANCH   1  11
HETATM   11  C   UNL     1       5.766  32.228  59.463  1.00  0.00     0.039 A 
HETATM   12  C   UNL     1       4.624  32.849  58.886  1.00  0.00     0.050 A 
HETATM   13  C   UNL     1       3.778  33.626  59.695  1.00  0.00     0.030 A 
HETATM   14  C   UNL     1       4.018  33.780  61.061  1.00  0.00     0.002 A 
HETATM   15  C   UNL     1       5.118  33.171  61.643  1.00  0.00     0.001 A 
HETATM   16  C   UNL     1       5.979  32.412  60.853  1.00  0.00     0.018 A 
BRANCH  12  17
HETATM   17  N   UNL     1       4.393  32.719  57.494  1.00  0.00    -0.308 N 
HETATM   18  C   UNL     1       4.822  33.533  56.472  1.00  0.00     0.322 C 
HETATM   19  N   UNL     1       4.628  32.998  55.196  1.00  0.00    -0.343 N 
HETATM   20  O   UNL     1       5.323  34.643  56.627  1.00  0.00    -0.247 OA
HETATM   21  C   UNL     1       4.982  33.834  54.061  1.00  0.00     0.154 C 
HETATM   22  C   UNL     1       4.479  31.577  54.906  1.00  0.00     0.154 C 
HETATM   23  H   UNL     1       3.632  32.091  57.253  1.00  0.00     0.170 HD
ENDBRANCH  12  17
ENDBRANCH   1  11
BRANCH   3  24
HETATM   24  N   UNL     1       6.579  28.833  56.201  1.00  0.00    -0.340 N 
HETATM   25  H   UNL     1       5.587  29.007  56.086  1.00  0.00     0.167 HD
BRANCH  24  26
HETATM   26  C   UNL     1       6.881  27.448  56.175  1.00  0.00     0.034 A 
HETATM   27  C   UNL     1       6.839  26.707  57.367  1.00  0.00     0.032 A 
HETATM   28  C   UNL     1       7.105  25.329  57.399  1.00  0.00     0.034 A 
HETATM   29  C   UNL     1       7.389  24.711  56.179  1.00  0.00     0.062 A 
HETATM   30  N   UNL     1       7.689  23.413  55.858  1.00  0.00    -0.278 N 
HETATM   31  C   UNL     1       7.406  25.397  54.973  1.00  0.00     0.013 A 
HETATM   32  H   UNL     1       7.772  22.623  56.487  1.00  0.00     0.189 HD
HETATM   33  N   UNL     1       7.887  23.202  54.544  1.00  0.00    -0.186 NA
HETATM   34  C   UNL     1       7.713  24.413  54.008  1.00  0.00     0.152 A 
HETATM   35  C   UNL     1       7.136  26.777  54.965  1.00  0.00     0.044 A 
ENDBRANCH  24  26
ENDBRANCH   3  24
TORSDOF 4
ENDMDL
