MODEL 1
REMARK VINA RESULT:      -9.3      0.000      0.000
REMARK  5 active torsions:
REMARK  status: ('A' for Active; 'I' for Inactive)
REMARK    1  A    between atoms: O_2  and  C_3 
REMARK    2  A    between atoms: C_4  and  N_5 
REMARK    3  A    between atoms: N_5  and  C_6 
REMARK    4  A    between atoms: C_6  and  C_7 
REMARK       I    between atoms: C_7  and  N_8 
REMARK    5  A    between atoms: N_8  and  C_9 
ROOT
HETATM    1  C   UNL     1       6.998  26.092  56.648  1.00  0.00     0.235 C 
HETATM    2  N   UNL     1       7.989  25.248  56.173  1.00  0.00    -0.325 N 
HETATM    3  O   UNL     1       5.828  26.135  56.270  1.00  0.00    -0.272 OA
HETATM    4  H   UNL     1       8.842  25.228  56.710  1.00  0.00     0.169 HD
ENDROOT
BRANCH   1   5
HETATM    5  C   UNL     1       7.470  27.024  57.778  1.00  0.00     0.195 C 
BRANCH   5   6
HETATM    6  N   UNL     1       7.280  28.425  57.376  1.00  0.00    -0.282 NA
HETATM    7  H   UNL     1       6.952  28.475  56.402  1.00  0.00     0.128 HD
BRANCH   6   8
HETATM    8  C   UNL     1       8.458  29.205  57.447  1.00  0.00     0.042 A 
HETATM    9  C   UNL     1       8.523  30.289  58.344  1.00  0.00     0.089 A 
HETATM   10  C   UNL     1       9.677  31.064  58.465  1.00  0.00     0.038 A 
HETATM   11  C   UNL     1      10.782  30.774  57.667  1.00  0.00     0.003 A 
HETATM   12  C   UNL     1      10.734  29.705  56.770  1.00  0.00     0.002 A 
HETATM   13  C   UNL     1       9.581  28.920  56.666  1.00  0.00     0.026 A 
BRANCH   9  14
HETATM   14  O   UNL     1       7.433  30.557  59.136  1.00  0.00    -0.354 OA
HETATM   15  C   UNL     1       7.474  31.911  59.588  1.00  0.00     0.210 C 
ENDBRANCH   9  14
ENDBRANCH   6   8
ENDBRANCH   5   6
ENDBRANCH   1   5
BRANCH   2  16
HETATM   16  C   UNL     1       7.915  24.347  55.075  1.00  0.00     0.045 A 
HETATM   17  C   UNL     1       8.071  22.939  55.302  1.00  0.00     0.001 A 
HETATM   18  C   UNL     1       8.029  22.065  54.182  1.00  0.00    -0.024 A 
HETATM   19  C   UNL     1       8.262  22.333  56.572  1.00  0.00     0.014 A 
HETATM   20  C   UNL     1       8.181  20.678  54.350  1.00  0.00     0.012 A 
HETATM   21  C   UNL     1       7.833  22.576  52.893  1.00  0.00     0.012 A 
HETATM   22  C   UNL     1       8.372  20.124  55.611  1.00  0.00     0.001 A 
HETATM   23  C   UNL     1       8.410  20.950  56.724  1.00  0.00     0.001 A 
HETATM   24  C   UNL     1       7.681  23.941  52.687  1.00  0.00     0.003 A 
HETATM   25  C   UNL     1       7.724  24.816  53.768  1.00  0.00     0.030 A 
ENDBRANCH   2  16
TORSDOF 5
ENDMDL
MODEL 2
REMARK VINA RESULT:      -8.9      4.431      7.322
REMARK  5 active torsions:
REMARK  status: ('A' for Active; 'I' for Inactive)
REMARK    1  A    between atoms: O_2  and  C_3 
REMARK    2  A    between atoms: C_4  and  N_5 
REMARK    3  A    between atoms: N_5  and  C_6 
REMARK    4  A    between atoms: C_6  and  C_7 
REMARK       I    between atoms: C_7  and  N_8 
REMARK    5  A    between atoms: N_8  and  C_9 
ROOT
HETATM    1  C   UNL     1       6.085  25.128  52.701  1.00  0.00     0.235 C 
HETATM    2  N   UNL     1       7.356  24.875  53.191  1.00  0.00    -0.325 N 
HETATM    3  O   UNL     1       5.021  24.910  53.280  1.00  0.00    -0.272 OA
HETATM    4  H   UNL     1       8.117  25.271  52.659  1.00  0.00     0.169 HD
ENDROOT
BRANCH   1   5
HETATM    5  C   UNL     1       6.077  25.769  51.303  1.00  0.00     0.195 C 
BRANCH   5   6
HETATM    6  N   UNL     1       4.763  26.378  51.046  1.00  0.00    -0.282 NA
HETATM    7  H   UNL     1       4.050  25.648  50.923  1.00  0.00     0.128 HD
BRANCH   6   8
HETATM    8  C   UNL     1       4.725  27.183  49.884  1.00  0.00     0.042 A 
HETATM    9  C   UNL     1       4.133  26.683  48.708  1.00  0.00     0.089 A 
HETATM   10  C   UNL     1       4.049  27.456  47.550  1.00  0.00     0.038 A 
HETATM   11  C   UNL     1       4.582  28.744  47.547  1.00  0.00     0.003 A 
HETATM   12  C   UNL     1       5.176  29.255  48.704  1.00  0.00     0.002 A 
HETATM   13  C   UNL     1       5.240  28.482  49.867  1.00  0.00     0.026 A 
BRANCH   9  14
HETATM   14  O   UNL     1       3.598  25.417  48.725  1.00  0.00    -0.354 OA
HETATM   15  C   UNL     1       2.899  25.161  47.506  1.00  0.00     0.210 C 
ENDBRANCH   9  14
ENDBRANCH   6   8
ENDBRANCH   5   6
ENDBRANCH   1   5
BRANCH   2  16
HETATM   16  C   UNL     1       7.712  24.202  54.392  1.00  0.00     0.045 A 
HETATM   17  C   UNL     1       8.005  22.799  54.357  1.00  0.00     0.001 A 
HETATM   18  C   UNL     1       8.322  22.144  55.579  1.00  0.00    -0.024 A 
HETATM   19  C   UNL     1       8.010  21.994  53.187  1.00  0.00     0.014 A 
HETATM   20  C   UNL     1       8.612  20.769  55.600  1.00  0.00     0.012 A 
HETATM   21  C   UNL     1       8.351  22.863  56.780  1.00  0.00     0.012 A 
HETATM   22  C   UNL     1       8.601  20.014  54.432  1.00  0.00     0.001 A 
HETATM   23  C   UNL     1       8.302  20.625  53.224  1.00  0.00     0.001 A 
HETATM   24  C   UNL     1       8.068  24.223  56.799  1.00  0.00     0.003 A 
HETATM   25  C   UNL     1       7.750  24.884  55.617  1.00  0.00     0.030 A 
ENDBRANCH   2  16
TORSDOF 5
ENDMDL
MODEL 3
REMARK VINA RESULT:      -8.9      1.131      2.601
REMARK  5 active torsions:
REMARK  status: ('A' for Active; 'I' for Inactive)
REMARK    1  A    between atoms: O_2  and  C_3 
REMARK    2  A    between atoms: C_4  and  N_5 
REMARK    3  A    between atoms: N_5  and  C_6 
REMARK    4  A    between atoms: C_6  and  C_7 
REMARK       I    between atoms: C_7  and  N_8 
REMARK    5  A    between atoms: N_8  and  C_9 
ROOT
HETATM    1  C   UNL     1       6.414  26.911  56.973  1.00  0.00     0.235 C 
HETATM    2  N   UNL     1       7.618  26.305  56.657  1.00  0.00    -0.325 N 
HETATM    3  O   UNL     1       5.303  26.382  56.967  1.00  0.00    -0.272 OA
HETATM    4  H   UNL     1       8.447  26.835  56.879  1.00  0.00     0.169 HD
ENDROOT
BRANCH   1   5
HETATM    5  C   UNL     1       6.555  28.386  57.392  1.00  0.00     0.195 C 
BRANCH   5   6
HETATM    6  N   UNL     1       7.526  28.496  58.490  1.00  0.00    -0.282 NA
HETATM    7  H   UNL     1       7.057  28.804  59.352  1.00  0.00     0.128 HD
BRANCH   6   8
HETATM    8  C   UNL     1       8.566  29.423  58.240  1.00  0.00     0.042 A 
HETATM    9  C   UNL     1       8.693  30.565  59.054  1.00  0.00     0.089 A 
HETATM   10  C   UNL     1       9.721  31.487  58.858  1.00  0.00     0.038 A 
HETATM   11  C   UNL     1      10.632  31.286  57.823  1.00  0.00     0.003 A 
HETATM   12  C   UNL     1      10.519  30.160  57.004  1.00  0.00     0.002 A 
HETATM   13  C   UNL     1       9.497  29.230  57.216  1.00  0.00     0.026 A 
BRANCH   9  14
HETATM   14  O   UNL     1       7.798  30.746  60.081  1.00  0.00    -0.354 OA
HETATM   15  C   UNL     1       8.439  31.387  61.186  1.00  0.00     0.210 C 
ENDBRANCH   9  14
ENDBRANCH   6   8
ENDBRANCH   5   6
ENDBRANCH   1   5
BRANCH   2  16
HETATM   16  C   UNL     1       7.828  24.998  56.138  1.00  0.00     0.045 A 
HETATM   17  C   UNL     1       7.771  24.780  54.722  1.00  0.00     0.001 A 
HETATM   18  C   UNL     1       7.948  23.457  54.233  1.00  0.00    -0.024 A 
HETATM   19  C   UNL     1       7.554  25.791  53.748  1.00  0.00     0.014 A 
HETATM   20  C   UNL     1       7.897  23.190  52.855  1.00  0.00     0.012 A 
HETATM   21  C   UNL     1       8.178  22.400  55.122  1.00  0.00     0.012 A 
HETATM   22  C   UNL     1       7.677  24.208  51.932  1.00  0.00     0.001 A 
HETATM   23  C   UNL     1       7.507  25.509  52.378  1.00  0.00     0.001 A 
HETATM   24  C   UNL     1       8.234  22.624  56.492  1.00  0.00     0.003 A 
HETATM   25  C   UNL     1       8.058  23.910  56.993  1.00  0.00     0.030 A 
ENDBRANCH   2  16
TORSDOF 5
ENDMDL
MODEL 4
REMARK VINA RESULT:      -8.8      4.598      7.316
REMARK  5 active torsions:
REMARK  status: ('A' for Active; 'I' for Inactive)
REMARK    1  A    between atoms: O_2  and  C_3 
REMARK    2  A    between atoms: C_4  and  N_5 
REMARK    3  A    between atoms: N_5  and  C_6 
REMARK    4  A    between atoms: C_6  and  C_7 
REMARK       I    between atoms: C_7  and  N_8 
REMARK    5  A    between atoms: N_8  and  C_9 
ROOT
HETATM    1  C   UNL     1       6.447  25.141  52.332  1.00  0.00     0.235 C 
HETATM    2  N   UNL     1       6.070  24.328  53.389  1.00  0.00    -0.325 N 
HETATM    3  O   UNL     1       7.590  25.503  52.058  1.00  0.00    -0.272 OA
HETATM    4  H   UNL     1       5.120  23.992  53.366  1.00  0.00     0.169 HD
ENDROOT
BRANCH   1   5
HETATM    5  C   UNL     1       5.273  25.574  51.436  1.00  0.00     0.195 C 
BRANCH   5   6
HETATM    6  N   UNL     1       5.741  26.559  50.450  1.00  0.00    -0.282 NA
HETATM    7  H   UNL     1       5.882  27.473  50.899  1.00  0.00     0.128 HD
BRANCH   6   8
HETATM    8  C   UNL     1       4.841  26.767  49.379  1.00  0.00     0.042 A 
HETATM    9  C   UNL     1       4.903  27.962  48.637  1.00  0.00     0.089 A 
HETATM   10  C   UNL     1       4.052  28.192  47.556  1.00  0.00     0.038 A 
HETATM   11  C   UNL     1       3.104  27.230  47.215  1.00  0.00     0.003 A 
HETATM   12  C   UNL     1       3.026  26.039  47.941  1.00  0.00     0.002 A 
HETATM   13  C   UNL     1       3.894  25.806  49.012  1.00  0.00     0.026 A 
BRANCH   9  14
HETATM   14  O   UNL     1       5.851  28.899  48.974  1.00  0.00    -0.354 OA
HETATM   15  C   UNL     1       5.220  30.083  49.464  1.00  0.00     0.210 C 
ENDBRANCH   9  14
ENDBRANCH   6   8
ENDBRANCH   5   6
ENDBRANCH   1   5
BRANCH   2  16
HETATM   16  C   UNL     1       6.883  23.845  54.451  1.00  0.00     0.045 A 
HETATM   17  C   UNL     1       7.567  22.593  54.305  1.00  0.00     0.001 A 
HETATM   18  C   UNL     1       8.344  22.116  55.396  1.00  0.00    -0.024 A 
HETATM   19  C   UNL     1       7.540  21.777  53.143  1.00  0.00     0.014 A 
HETATM   20  C   UNL     1       9.030  20.893  55.306  1.00  0.00     0.012 A 
HETATM   21  C   UNL     1       8.436  22.861  56.578  1.00  0.00     0.012 A 
HETATM   22  C   UNL     1       8.973  20.120  54.151  1.00  0.00     0.001 A 
HETATM   23  C   UNL     1       8.230  20.562  53.068  1.00  0.00     0.001 A 
HETATM   24  C   UNL     1       7.771  24.074  56.705  1.00  0.00     0.003 A 
HETATM   25  C   UNL     1       7.000  24.558  55.652  1.00  0.00     0.030 A 
ENDBRANCH   2  16
TORSDOF 5
ENDMDL
MODEL 5
REMARK VINA RESULT:      -8.7      1.486      2.254
REMARK  5 active torsions:
REMARK  status: ('A' for Active; 'I' for Inactive)
REMARK    1  A    between atoms: O_2  and  C_3 
REMARK    2  A    between atoms: C_4  and  N_5 
REMARK    3  A    between atoms: N_5  and  C_6 
REMARK    4  A    between atoms: C_6  and  C_7 
REMARK       I    between atoms: C_7  and  N_8 
REMARK    5  A    between atoms: N_8  and  C_9 
ROOT
HETATM    1  C   UNL     1       7.032  25.583  56.890  1.00  0.00     0.235 C 
HETATM    2  N   UNL     1       8.059  25.098  56.096  1.00  0.00    -0.325 N 
HETATM    3  O   UNL     1       5.861  25.207  56.883  1.00  0.00    -0.272 OA
HETATM    4  H   UNL     1       8.988  25.397  56.350  1.00  0.00     0.169 HD
ENDROOT
BRANCH   1   5
HETATM    5  C   UNL     1       7.476  26.680  57.873  1.00  0.00     0.195 C 
BRANCH   5   6
HETATM    6  N   UNL     1       8.018  27.824  57.126  1.00  0.00    -0.282 NA
HETATM    7  H   UNL     1       9.042  27.858  57.218  1.00  0.00     0.128 HD
BRANCH   6   8
HETATM    8  C   UNL     1       7.530  29.076  57.566  1.00  0.00     0.042 A 
HETATM    9  C   UNL     1       6.441  29.674  56.902  1.00  0.00     0.089 A 
HETATM   10  C   UNL     1       5.913  30.894  57.324  1.00  0.00     0.038 A 
HETATM   11  C   UNL     1       6.486  31.548  58.412  1.00  0.00     0.003 A 
HETATM   12  C   UNL     1       7.568  30.972  59.081  1.00  0.00     0.002 A 
HETATM   13  C   UNL     1       8.082  29.740  58.666  1.00  0.00     0.026 A 
BRANCH   9  14
HETATM   14  O   UNL     1       5.875  29.014  55.838  1.00  0.00    -0.354 OA
HETATM   15  C   UNL     1       4.578  28.529  56.193  1.00  0.00     0.210 C 
ENDBRANCH   9  14
ENDBRANCH   6   8
ENDBRANCH   5   6
ENDBRANCH   1   5
BRANCH   2  16
HETATM   16  C   UNL     1       7.969  24.167  55.025  1.00  0.00     0.045 A 
HETATM   17  C   UNL     1       8.113  22.765  55.292  1.00  0.00     0.001 A 
HETATM   18  C   UNL     1       8.055  21.859  54.198  1.00  0.00    -0.024 A 
HETATM   19  C   UNL     1       8.307  22.194  56.577  1.00  0.00     0.014 A 
HETATM   20  C   UNL     1       8.195  20.476  54.405  1.00  0.00     0.012 A 
HETATM   21  C   UNL     1       7.854  22.334  52.896  1.00  0.00     0.012 A 
HETATM   22  C   UNL     1       8.390  19.957  55.680  1.00  0.00     0.001 A 
HETATM   23  C   UNL     1       8.444  20.814  56.767  1.00  0.00     0.001 A 
HETATM   24  C   UNL     1       7.713  23.694  52.651  1.00  0.00     0.003 A 
HETATM   25  C   UNL     1       7.772  24.600  53.706  1.00  0.00     0.030 A 
ENDBRANCH   2  16
TORSDOF 5
ENDMDL
MODEL 6
REMARK VINA RESULT:      -8.6      3.769      5.043
REMARK  5 active torsions:
REMARK  status: ('A' for Active; 'I' for Inactive)
REMARK    1  A    between atoms: O_2  and  C_3 
REMARK    2  A    between atoms: C_4  and  N_5 
REMARK    3  A    between atoms: N_5  and  C_6 
REMARK    4  A    between atoms: C_6  and  C_7 
REMARK       I    between atoms: C_7  and  N_8 
REMARK    5  A    between atoms: N_8  and  C_9 
ROOT
HETATM    1  C   UNL     1       6.922  25.367  52.568  1.00  0.00     0.235 C 
HETATM    2  N   UNL     1       6.407  24.613  53.610  1.00  0.00    -0.325 N 
HETATM    3  O   UNL     1       8.110  25.491  52.272  1.00  0.00    -0.272 OA
HETATM    4  H   UNL     1       5.407  24.485  53.605  1.00  0.00     0.169 HD
ENDROOT
BRANCH   1   5
HETATM    5  C   UNL     1       5.846  26.068  51.721  1.00  0.00     0.195 C 
BRANCH   5   6
HETATM    6  N   UNL     1       4.612  26.207  52.507  1.00  0.00    -0.282 NA
HETATM    7  H   UNL     1       3.805  25.865  51.968  1.00  0.00     0.128 HD
BRANCH   6   8
HETATM    8  C   UNL     1       4.317  27.540  52.876  1.00  0.00     0.042 A 
HETATM    9  C   UNL     1       4.606  27.983  54.181  1.00  0.00     0.089 A 
HETATM   10  C   UNL     1       4.357  29.298  54.575  1.00  0.00     0.038 A 
HETATM   11  C   UNL     1       3.789  30.188  53.666  1.00  0.00     0.003 A 
HETATM   12  C   UNL     1       3.492  29.766  52.368  1.00  0.00     0.002 A 
HETATM   13  C   UNL     1       3.762  28.452  51.973  1.00  0.00     0.026 A 
BRANCH   9  14
HETATM   14  O   UNL     1       5.179  27.101  55.065  1.00  0.00    -0.354 OA
HETATM   15  C   UNL     1       4.895  27.495  56.409  1.00  0.00     0.210 C 
ENDBRANCH   9  14
ENDBRANCH   6   8
ENDBRANCH   5   6
ENDBRANCH   1   5
BRANCH   2  16
HETATM   16  C   UNL     1       7.123  23.932  54.632  1.00  0.00     0.045 A 
HETATM   17  C   UNL     1       7.657  22.626  54.373  1.00  0.00     0.001 A 
HETATM   18  C   UNL     1       8.337  21.953  55.424  1.00  0.00    -0.024 A 
HETATM   19  C   UNL     1       7.567  21.939  53.133  1.00  0.00     0.014 A 
HETATM   20  C   UNL     1       8.875  20.670  55.222  1.00  0.00     0.012 A 
HETATM   21  C   UNL     1       8.482  22.561  56.676  1.00  0.00     0.012 A 
HETATM   22  C   UNL     1       8.761  20.027  53.994  1.00  0.00     0.001 A 
HETATM   23  C   UNL     1       8.109  20.661  52.948  1.00  0.00     0.001 A 
HETATM   24  C   UNL     1       7.964  23.828  56.914  1.00  0.00     0.003 A 
HETATM   25  C   UNL     1       7.289  24.504  55.901  1.00  0.00     0.030 A 
ENDBRANCH   2  16
TORSDOF 5
ENDMDL
MODEL 7
REMARK VINA RESULT:      -8.6      1.057      2.020
REMARK  5 active torsions:
REMARK  status: ('A' for Active; 'I' for Inactive)
REMARK    1  A    between atoms: O_2  and  C_3 
REMARK    2  A    between atoms: C_4  and  N_5 
REMARK    3  A    between atoms: N_5  and  C_6 
REMARK    4  A    between atoms: C_6  and  C_7 
REMARK       I    between atoms: C_7  and  N_8 
REMARK    5  A    between atoms: N_8  and  C_9 
ROOT
HETATM    1  C   UNL     1       7.070  26.240  56.463  1.00  0.00     0.235 C 
HETATM    2  N   UNL     1       7.992  25.259  56.133  1.00  0.00    -0.325 N 
HETATM    3  O   UNL     1       5.972  26.419  55.939  1.00  0.00    -0.272 OA
HETATM    4  H   UNL     1       8.762  25.147  56.774  1.00  0.00     0.169 HD
ENDROOT
BRANCH   1   5
HETATM    5  C   UNL     1       7.518  27.141  57.627  1.00  0.00     0.195 C 
BRANCH   5   6
HETATM    6  N   UNL     1       7.961  28.441  57.103  1.00  0.00    -0.282 NA
HETATM    7  H   UNL     1       8.957  28.588  57.310  1.00  0.00     0.128 HD
BRANCH   6   8
HETATM    8  C   UNL     1       7.265  29.544  57.651  1.00  0.00     0.042 A 
HETATM    9  C   UNL     1       7.940  30.444  58.499  1.00  0.00     0.089 A 
HETATM   10  C   UNL     1       7.297  31.559  59.036  1.00  0.00     0.038 A 
HETATM   11  C   UNL     1       5.952  31.779  58.746  1.00  0.00     0.003 A 
HETATM   12  C   UNL     1       5.266  30.895  57.909  1.00  0.00     0.002 A 
HETATM   13  C   UNL     1       5.921  29.789  57.359  1.00  0.00     0.026 A 
BRANCH   9  14
HETATM   14  O   UNL     1       9.270  30.226  58.767  1.00  0.00    -0.354 OA
HETATM   15  C   UNL     1      10.044  31.363  58.380  1.00  0.00     0.210 C 
ENDBRANCH   9  14
ENDBRANCH   6   8
ENDBRANCH   5   6
ENDBRANCH   1   5
BRANCH   2  16
HETATM   16  C   UNL     1       7.936  24.338  55.051  1.00  0.00     0.045 A 
HETATM   17  C   UNL     1       8.085  22.935  55.307  1.00  0.00     0.001 A 
HETATM   18  C   UNL     1       8.062  22.039  54.203  1.00  0.00    -0.024 A 
HETATM   19  C   UNL     1       8.252  22.352  56.591  1.00  0.00     0.014 A 
HETATM   20  C   UNL     1       8.208  20.656  54.399  1.00  0.00     0.012 A 
HETATM   21  C   UNL     1       7.890  22.527  52.901  1.00  0.00     0.012 A 
HETATM   22  C   UNL     1       8.375  20.124  55.674  1.00  0.00     0.001 A 
HETATM   23  C   UNL     1       8.395  20.971  56.771  1.00  0.00     0.001 A 
HETATM   24  C   UNL     1       7.744  23.888  52.667  1.00  0.00     0.003 A 
HETATM   25  C   UNL     1       7.769  24.783  53.732  1.00  0.00     0.030 A 
ENDBRANCH   2  16
TORSDOF 5
ENDMDL
MODEL 8
REMARK VINA RESULT:      -8.6      4.746      7.523
REMARK  5 active torsions:
REMARK  status: ('A' for Active; 'I' for Inactive)
REMARK    1  A    between atoms: O_2  and  C_3 
REMARK    2  A    between atoms: C_4  and  N_5 
REMARK    3  A    between atoms: N_5  and  C_6 
REMARK    4  A    between atoms: C_6  and  C_7 
REMARK       I    between atoms: C_7  and  N_8 
REMARK    5  A    between atoms: N_8  and  C_9 
ROOT
HETATM    1  C   UNL     1       5.659  25.410  52.370  1.00  0.00     0.235 C 
HETATM    2  N   UNL     1       6.937  25.162  52.844  1.00  0.00    -0.325 N 
HETATM    3  O   UNL     1       4.605  25.236  52.980  1.00  0.00    -0.272 OA
HETATM    4  H   UNL     1       7.691  25.520  52.279  1.00  0.00     0.169 HD
ENDROOT
BRANCH   1   5
HETATM    5  C   UNL     1       5.630  25.984  50.943  1.00  0.00     0.195 C 
BRANCH   5   6
HETATM    6  N   UNL     1       4.480  26.889  50.798  1.00  0.00    -0.282 NA
HETATM    7  H   UNL     1       3.773  26.685  51.516  1.00  0.00     0.128 HD
BRANCH   6   8
HETATM    8  C   UNL     1       3.828  26.787  49.547  1.00  0.00     0.042 A 
HETATM    9  C   UNL     1       3.077  27.875  49.061  1.00  0.00     0.089 A 
HETATM   10  C   UNL     1       2.444  27.825  47.819  1.00  0.00     0.038 A 
HETATM   11  C   UNL     1       2.536  26.666  47.051  1.00  0.00     0.003 A 
HETATM   12  C   UNL     1       3.273  25.576  47.519  1.00  0.00     0.002 A 
HETATM   13  C   UNL     1       3.922  25.639  48.756  1.00  0.00     0.026 A 
BRANCH   9  14
HETATM   14  O   UNL     1       3.005  29.018  49.820  1.00  0.00    -0.354 OA
HETATM   15  C   UNL     1       1.673  29.205  50.303  1.00  0.00     0.210 C 
ENDBRANCH   9  14
ENDBRANCH   6   8
ENDBRANCH   5   6
ENDBRANCH   1   5
BRANCH   2  16
HETATM   16  C   UNL     1       7.309  24.541  54.068  1.00  0.00     0.045 A 
HETATM   17  C   UNL     1       7.646  23.147  54.082  1.00  0.00     0.001 A 
HETATM   18  C   UNL     1       7.979  22.544  55.325  1.00  0.00    -0.024 A 
HETATM   19  C   UNL     1       7.682  22.304  52.939  1.00  0.00     0.014 A 
HETATM   20  C   UNL     1       8.313  21.181  55.394  1.00  0.00     0.012 A 
HETATM   21  C   UNL     1       7.980  23.304  56.502  1.00  0.00     0.012 A 
HETATM   22  C   UNL     1       8.330  20.387  54.252  1.00  0.00     0.001 A 
HETATM   23  C   UNL     1       8.017  20.948  53.024  1.00  0.00     0.001 A 
HETATM   24  C   UNL     1       7.655  24.654  56.475  1.00  0.00     0.003 A 
HETATM   25  C   UNL     1       7.320  25.264  55.270  1.00  0.00     0.030 A 
ENDBRANCH   2  16
TORSDOF 5
ENDMDL
MODEL 9
REMARK VINA RESULT:      -8.5      4.721      7.246
REMARK  5 active torsions:
REMARK  status: ('A' for Active; 'I' for Inactive)
REMARK    1  A    between atoms: O_2  and  C_3 
REMARK    2  A    between atoms: C_4  and  N_5 
REMARK    3  A    between atoms: N_5  and  C_6 
REMARK    4  A    between atoms: C_6  and  C_7 
REMARK       I    between atoms: C_7  and  N_8 
REMARK    5  A    between atoms: N_8  and  C_9 
ROOT
HETATM    1  C   UNL     1       5.839  32.189  58.723  1.00  0.00     0.235 C 
HETATM    2  N   UNL     1       6.297  30.912  59.005  1.00  0.00    -0.325 N 
HETATM    3  O   UNL     1       5.786  32.719  57.614  1.00  0.00    -0.272 OA
HETATM    4  H   UNL     1       6.111  30.576  59.938  1.00  0.00     0.169 HD
ENDROOT
BRANCH   1   5
HETATM    5  C   UNL     1       5.336  32.953  59.960  1.00  0.00     0.195 C 
BRANCH   5   6
HETATM    6  N   UNL     1       5.271  32.041  61.111  1.00  0.00    -0.282 NA
HETATM    7  H   UNL     1       4.295  31.912  61.409  1.00  0.00     0.128 HD
BRANCH   6   8
HETATM    8  C   UNL     1       5.984  32.500  62.244  1.00  0.00     0.042 A 
HETATM    9  C   UNL     1       7.299  32.051  62.469  1.00  0.00     0.089 A 
HETATM   10  C   UNL     1       8.045  32.502  63.558  1.00  0.00     0.038 A 
HETATM   11  C   UNL     1       7.471  33.399  64.456  1.00  0.00     0.003 A 
HETATM   12  C   UNL     1       6.166  33.852  64.250  1.00  0.00     0.002 A 
HETATM   13  C   UNL     1       5.429  33.411  63.147  1.00  0.00     0.026 A 
BRANCH   9  14
HETATM   14  O   UNL     1       7.861  31.177  61.569  1.00  0.00    -0.354 OA
HETATM   15  C   UNL     1       8.945  30.473  62.178  1.00  0.00     0.210 C 
ENDBRANCH   9  14
ENDBRANCH   6   8
ENDBRANCH   5   6
ENDBRANCH   1   5
BRANCH   2  16
HETATM   16  C   UNL     1       6.918  29.992  58.117  1.00  0.00     0.045 A 
HETATM   17  C   UNL     1       8.326  30.094  57.861  1.00  0.00     0.001 A 
HETATM   18  C   UNL     1       8.914  29.184  56.941  1.00  0.00    -0.024 A 
HETATM   19  C   UNL     1       9.198  31.041  58.461  1.00  0.00     0.014 A 
HETATM   20  C   UNL     1      10.287  29.245  56.652  1.00  0.00     0.012 A 
HETATM   21  C   UNL     1       8.129  28.209  56.311  1.00  0.00     0.012 A 
HETATM   22  C   UNL     1      11.108  30.192  57.257  1.00  0.00     0.001 A 
HETATM   23  C   UNL     1      10.565  31.089  58.163  1.00  0.00     0.001 A 
HETATM   24  C   UNL     1       6.768  28.118  56.571  1.00  0.00     0.003 A 
HETATM   25  C   UNL     1       6.170  29.003  57.463  1.00  0.00     0.030 A 
ENDBRANCH   2  16
TORSDOF 5
ENDMDL
MODEL 10
REMARK VINA RESULT:      -8.5      5.364     10.015
REMARK  5 active torsions:
REMARK  status: ('A' for Active; 'I' for Inactive)
REMARK    1  A    between atoms: O_2  and  C_3 
REMARK    2  A    between atoms: C_4  and  N_5 
REMARK    3  A    between atoms: N_5  and  C_6 
REMARK    4  A    between atoms: C_6  and  C_7 
REMARK       I    between atoms: C_7  and  N_8 
REMARK    5  A    between atoms: N_8  and  C_9 
ROOT
HETATM    1  C   UNL     1       5.681  32.371  59.256  1.00  0.00     0.235 C 
HETATM    2  N   UNL     1       5.507  31.957  60.567  1.00  0.00    -0.325 N 
HETATM    3  O   UNL     1       5.459  33.494  58.806  1.00  0.00    -0.272 OA
HETATM    4  H   UNL     1       5.897  31.057  60.797  1.00  0.00     0.169 HD
ENDROOT
BRANCH   1   5
HETATM    5  C   UNL     1       6.234  31.273  58.329  1.00  0.00     0.195 C 
BRANCH   5   6
HETATM    6  N   UNL     1       7.214  30.457  59.061  1.00  0.00    -0.282 NA
HETATM    7  H   UNL     1       7.472  30.917  59.944  1.00  0.00     0.128 HD
BRANCH   6   8
HETATM    8  C   UNL     1       8.417  30.236  58.351  1.00  0.00     0.042 A 
HETATM    9  C   UNL     1       9.456  31.182  58.426  1.00  0.00     0.089 A 
HETATM   10  C   UNL     1      10.668  30.987  57.764  1.00  0.00     0.038 A 
HETATM   11  C   UNL     1      10.848  29.840  56.992  1.00  0.00     0.003 A 
HETATM   12  C   UNL     1       9.827  28.892  56.904  1.00  0.00     0.002 A 
HETATM   13  C   UNL     1       8.621  29.085  57.585  1.00  0.00     0.026 A 
BRANCH   9  14
HETATM   14  O   UNL     1       9.273  32.303  59.201  1.00  0.00    -0.354 OA
HETATM   15  C   UNL     1       9.707  32.053  60.539  1.00  0.00     0.210 C 
ENDBRANCH   9  14
ENDBRANCH   6   8
ENDBRANCH   5   6
ENDBRANCH   1   5
BRANCH   2  16
HETATM   16  C   UNL     1       4.923  32.684  61.641  1.00  0.00     0.045 A 
HETATM   17  C   UNL     1       5.717  33.007  62.791  1.00  0.00     0.001 A 
HETATM   18  C   UNL     1       5.098  33.702  63.865  1.00  0.00    -0.024 A 
HETATM   19  C   UNL     1       7.092  32.692  62.949  1.00  0.00     0.014 A 
HETATM   20  C   UNL     1       5.830  34.039  65.016  1.00  0.00     0.012 A 
HETATM   21  C   UNL     1       3.747  34.063  63.790  1.00  0.00     0.012 A 
HETATM   22  C   UNL     1       7.176  33.707  65.135  1.00  0.00     0.001 A 
HETATM   23  C   UNL     1       7.808  33.035  64.102  1.00  0.00     0.001 A 
HETATM   24  C   UNL     1       2.990  33.747  62.669  1.00  0.00     0.003 A 
HETATM   25  C   UNL     1       3.573  33.062  61.607  1.00  0.00     0.030 A 
ENDBRANCH   2  16
TORSDOF 5
ENDMDL
