MODEL 1
REMARK VINA RESULT:      -9.7      0.000      0.000
REMARK  6 active torsions:
REMARK  status: ('A' for Active; 'I' for Inactive)
REMARK    1  A    between atoms: C_2  and  C_3 
REMARK       I    between atoms: C_3  and  N_4 
REMARK    2  A    between atoms: N_4  and  C_5 
REMARK    3  A    between atoms: C_7  and  N_8 
REMARK       I    between atoms: N_8  and  C_9 
REMARK    4  A    between atoms: C_9  and  C_10 
REMARK    5  A    between atoms: C_12  and  O_13 
REMARK    6  A    between atoms: O_13  and  C_14 
ROOT
HETATM    1  N   UNL     1       7.535  28.044  55.856  1.00  0.00    -0.322 N 
HETATM    2  C   UNL     1       8.055  28.074  57.140  1.00  0.00     0.256 C 
HETATM    3  O   UNL     1       7.871  27.213  57.995  1.00  0.00    -0.267 OA
HETATM    4  H   UNL     1       7.529  28.896  55.319  1.00  0.00     0.169 HD
ENDROOT
BRANCH   1   5
HETATM    5  C   UNL     1       6.961  26.912  55.220  1.00  0.00     0.043 A 
HETATM    6  C   UNL     1       7.714  25.747  54.983  1.00  0.00     0.059 A 
HETATM    7  C   UNL     1       7.177  24.658  54.291  1.00  0.00     0.036 A 
HETATM    8  C   UNL     1       5.853  24.726  53.856  1.00  0.00     0.030 A 
HETATM    9  C   UNL     1       5.092  25.875  54.078  1.00  0.00     0.011 A 
HETATM   10  C   UNL     1       5.633  26.979  54.757  1.00  0.00    -0.035 A 
HETATM   11  C   UNL     1       4.764  28.191  54.951  1.00  0.00     0.050 C 
BRANCH   7  12
HETATM   12  N   UNL     1       7.894  23.479  53.993  1.00  0.00    -0.327 N 
HETATM   13  C   UNL     1       8.020  22.346  54.778  1.00  0.00     0.221 C 
HETATM   14  O   UNL     1       7.600  22.193  55.921  1.00  0.00    -0.273 OA
HETATM   15  H   UNL     1       8.426  23.492  53.132  1.00  0.00     0.169 HD
BRANCH  13  16
HETATM   16  C   UNL     1       8.828  21.246  54.109  1.00  0.00     0.098 C 
HETATM   17  C   UNL     1       8.073  20.562  52.984  1.00  0.00     0.014 C 
ENDBRANCH  13  16
ENDBRANCH   7  12
ENDBRANCH   1   5
BRANCH   2  18
HETATM   18  C   UNL     1       8.893  29.249  57.520  1.00  0.00     0.037 A 
HETATM   19  C   UNL     1       8.469  30.279  58.359  1.00  0.00     0.075 A 
HETATM   20  C   UNL     1       9.349  31.323  58.591  1.00  0.00     0.165 A 
HETATM   21  N   UNL     1      10.587  31.407  58.066  1.00  0.00    -0.237 NA
HETATM   22  C   UNL     1      10.980  30.395  57.270  1.00  0.00     0.120 A 
HETATM   23  C   UNL     1      10.180  29.310  56.972  1.00  0.00     0.036 A 
BRANCH  20  24
HETATM   24  O   UNL     1       8.906  32.337  59.421  1.00  0.00    -0.329 OA
BRANCH  24  25
HETATM   25  C   UNL     1       8.324  31.912  60.675  1.00  0.00     0.130 C 
HETATM   26  C   UNL     1       7.596  32.992  61.520  1.00  0.00     0.032 C 
HETATM   27  C   UNL     1       8.206  32.333  62.770  1.00  0.00     0.005 C 
HETATM   28  C   UNL     1       9.324  31.799  61.856  1.00  0.00     0.032 C 
ENDBRANCH  24  25
ENDBRANCH  20  24
ENDBRANCH   2  18
TORSDOF 6
ENDMDL
MODEL 2
REMARK VINA RESULT:      -9.1      1.627      9.454
REMARK  6 active torsions:
REMARK  status: ('A' for Active; 'I' for Inactive)
REMARK    1  A    between atoms: C_2  and  C_3 
REMARK       I    between atoms: C_3  and  N_4 
REMARK    2  A    between atoms: N_4  and  C_5 
REMARK    3  A    between atoms: C_7  and  N_8 
REMARK       I    between atoms: N_8  and  C_9 
REMARK    4  A    between atoms: C_9  and  C_10 
REMARK    5  A    between atoms: C_12  and  O_13 
REMARK    6  A    between atoms: O_13  and  C_14 
ROOT
HETATM    1  N   UNL     1       7.961  28.457  57.457  1.00  0.00    -0.322 N 
HETATM    2  C   UNL     1       7.058  28.498  56.407  1.00  0.00     0.256 C 
HETATM    3  O   UNL     1       6.478  29.506  56.014  1.00  0.00    -0.267 OA
HETATM    4  H   UNL     1       8.188  27.565  57.862  1.00  0.00     0.169 HD
ENDROOT
BRANCH   1   5
HETATM    5  C   UNL     1       8.584  29.583  58.058  1.00  0.00     0.043 A 
HETATM    6  C   UNL     1       7.957  30.299  59.094  1.00  0.00     0.059 A 
HETATM    7  C   UNL     1       8.532  31.451  59.637  1.00  0.00     0.036 A 
HETATM    8  C   UNL     1       9.769  31.877  59.153  1.00  0.00     0.030 A 
HETATM    9  C   UNL     1      10.404  31.182  58.122  1.00  0.00     0.011 A 
HETATM   10  C   UNL     1       9.822  30.034  57.560  1.00  0.00    -0.035 A 
HETATM   11  C   UNL     1      10.552  29.339  56.444  1.00  0.00     0.050 C 
BRANCH   7  12
HETATM   12  N   UNL     1       7.933  32.230  60.652  1.00  0.00    -0.327 N 
HETATM   13  C   UNL     1       8.001  32.029  62.020  1.00  0.00     0.221 C 
HETATM   14  O   UNL     1       8.523  31.081  62.599  1.00  0.00    -0.273 OA
HETATM   15  H   UNL     1       7.339  32.985  60.336  1.00  0.00     0.169 HD
BRANCH  13  16
HETATM   16  C   UNL     1       7.275  33.101  62.814  1.00  0.00     0.098 C 
HETATM   17  C   UNL     1       7.624  33.077  64.291  1.00  0.00     0.014 C 
ENDBRANCH  13  16
ENDBRANCH   7  12
ENDBRANCH   1   5
BRANCH   2  18
HETATM   18  C   UNL     1       6.754  27.216  55.706  1.00  0.00     0.037 A 
HETATM   19  C   UNL     1       7.509  26.050  55.835  1.00  0.00     0.075 A 
HETATM   20  C   UNL     1       7.122  24.948  55.091  1.00  0.00     0.165 A 
HETATM   21  N   UNL     1       6.064  24.926  54.256  1.00  0.00    -0.237 NA
HETATM   22  C   UNL     1       5.343  26.058  54.156  1.00  0.00     0.120 A 
HETATM   23  C   UNL     1       5.644  27.212  54.852  1.00  0.00     0.036 A 
BRANCH  20  24
HETATM   24  O   UNL     1       7.887  23.804  55.230  1.00  0.00    -0.329 OA
BRANCH  24  25
HETATM   25  C   UNL     1       7.463  22.667  54.444  1.00  0.00     0.130 C 
HETATM   26  C   UNL     1       7.918  21.263  54.928  1.00  0.00     0.032 C 
HETATM   27  C   UNL     1       8.131  20.893  53.449  1.00  0.00     0.005 C 
HETATM   28  C   UNL     1       8.310  22.398  53.172  1.00  0.00     0.032 C 
ENDBRANCH  24  25
ENDBRANCH  20  24
ENDBRANCH   2  18
TORSDOF 6
ENDMDL
MODEL 3
REMARK VINA RESULT:      -8.7      3.276      5.910
REMARK  6 active torsions:
REMARK  status: ('A' for Active; 'I' for Inactive)
REMARK    1  A    between atoms: C_2  and  C_3 
REMARK       I    between atoms: C_3  and  N_4 
REMARK    2  A    between atoms: N_4  and  C_5 
REMARK    3  A    between atoms: C_7  and  N_8 
REMARK       I    between atoms: N_8  and  C_9 
REMARK    4  A    between atoms: C_9  and  C_10 
REMARK    5  A    between atoms: C_12  and  O_13 
REMARK    6  A    between atoms: O_13  and  C_14 
ROOT
HETATM    1  N   UNL     1       7.211  31.039  59.690  1.00  0.00    -0.322 N 
HETATM    2  C   UNL     1       6.291  32.030  59.392  1.00  0.00     0.256 C 
HETATM    3  O   UNL     1       6.189  32.596  58.308  1.00  0.00    -0.267 OA
HETATM    4  H   UNL     1       7.385  30.817  60.656  1.00  0.00     0.169 HD
ENDROOT
BRANCH   1   5
HETATM    5  C   UNL     1       7.982  30.313  58.743  1.00  0.00     0.043 A 
HETATM    6  C   UNL     1       7.471  29.165  58.110  1.00  0.00     0.059 A 
HETATM    7  C   UNL     1       8.251  28.404  57.236  1.00  0.00     0.036 A 
HETATM    8  C   UNL     1       9.557  28.818  56.968  1.00  0.00     0.030 A 
HETATM    9  C   UNL     1      10.082  29.952  57.589  1.00  0.00     0.011 A 
HETATM   10  C   UNL     1       9.308  30.710  58.483  1.00  0.00    -0.035 A 
HETATM   11  C   UNL     1       9.939  31.912  59.129  1.00  0.00     0.050 C 
BRANCH   7  12
HETATM   12  N   UNL     1       7.805  27.225  56.600  1.00  0.00    -0.327 N 
HETATM   13  C   UNL     1       7.801  25.939  57.112  1.00  0.00     0.221 C 
HETATM   14  O   UNL     1       8.269  25.575  58.187  1.00  0.00    -0.273 OA
HETATM   15  H   UNL     1       7.511  27.328  55.637  1.00  0.00     0.169 HD
BRANCH  13  16
HETATM   16  C   UNL     1       7.196  24.922  56.160  1.00  0.00     0.098 C 
HETATM   17  C   UNL     1       5.891  25.395  55.546  1.00  0.00     0.014 C 
ENDBRANCH  13  16
ENDBRANCH   7  12
ENDBRANCH   1   5
BRANCH   2  18
HETATM   18  C   UNL     1       5.356  32.454  60.476  1.00  0.00     0.037 A 
HETATM   19  C   UNL     1       5.604  32.288  61.839  1.00  0.00     0.075 A 
HETATM   20  C   UNL     1       4.624  32.700  62.726  1.00  0.00     0.165 A 
HETATM   21  N   UNL     1       3.451  33.255  62.361  1.00  0.00    -0.237 NA
HETATM   22  C   UNL     1       3.239  33.417  61.043  1.00  0.00     0.120 A 
HETATM   23  C   UNL     1       4.148  33.038  60.076  1.00  0.00     0.036 A 
BRANCH  20  24
HETATM   24  O   UNL     1       4.888  32.522  64.072  1.00  0.00    -0.329 OA
BRANCH  24  25
HETATM   25  C   UNL     1       5.518  33.638  64.741  1.00  0.00     0.130 C 
HETATM   26  C   UNL     1       6.976  33.435  65.238  1.00  0.00     0.032 C 
HETATM   27  C   UNL     1       6.590  34.236  66.494  1.00  0.00     0.005 C 
HETATM   28  C   UNL     1       5.134  33.808  66.234  1.00  0.00     0.032 C 
ENDBRANCH  24  25
ENDBRANCH  20  24
ENDBRANCH   2  18
TORSDOF 6
ENDMDL
MODEL 4
REMARK VINA RESULT:      -8.5      1.710      8.798
REMARK  6 active torsions:
REMARK  status: ('A' for Active; 'I' for Inactive)
REMARK    1  A    between atoms: C_2  and  C_3 
REMARK       I    between atoms: C_3  and  N_4 
REMARK    2  A    between atoms: N_4  and  C_5 
REMARK    3  A    between atoms: C_7  and  N_8 
REMARK       I    between atoms: N_8  and  C_9 
REMARK    4  A    between atoms: C_9  and  C_10 
REMARK    5  A    between atoms: C_12  and  O_13 
REMARK    6  A    between atoms: O_13  and  C_14 
ROOT
HETATM    1  N   UNL     1       7.525  27.598  55.668  1.00  0.00    -0.322 N 
HETATM    2  C   UNL     1       6.865  26.381  55.647  1.00  0.00     0.256 C 
HETATM    3  O   UNL     1       6.045  26.009  56.482  1.00  0.00    -0.267 OA
HETATM    4  H   UNL     1       8.347  27.710  55.098  1.00  0.00     0.169 HD
ENDROOT
BRANCH   1   5
HETATM    5  C   UNL     1       7.170  28.720  56.463  1.00  0.00     0.043 A 
HETATM    6  C   UNL     1       7.862  29.025  57.649  1.00  0.00     0.059 A 
HETATM    7  C   UNL     1       7.469  30.082  58.473  1.00  0.00     0.036 A 
HETATM    8  C   UNL     1       6.382  30.866  58.087  1.00  0.00     0.030 A 
HETATM    9  C   UNL     1       5.680  30.576  56.916  1.00  0.00     0.011 A 
HETATM   10  C   UNL     1       6.059  29.504  56.093  1.00  0.00    -0.035 A 
HETATM   11  C   UNL     1       5.252  29.238  54.852  1.00  0.00     0.050 C 
BRANCH   7  12
HETATM   12  N   UNL     1       8.103  30.413  59.692  1.00  0.00    -0.327 N 
HETATM   13  C   UNL     1       8.936  31.488  59.945  1.00  0.00     0.221 C 
HETATM   14  O   UNL     1       9.349  32.306  59.129  1.00  0.00    -0.273 OA
HETATM   15  H   UNL     1       7.978  29.751  60.447  1.00  0.00     0.169 HD
BRANCH  13  16
HETATM   16  C   UNL     1       9.395  31.556  61.392  1.00  0.00     0.098 C 
HETATM   17  C   UNL     1       9.295  30.220  62.104  1.00  0.00     0.014 C 
ENDBRANCH  13  16
ENDBRANCH   7  12
ENDBRANCH   1   5
BRANCH   2  18
HETATM   18  C   UNL     1       7.183  25.440  54.533  1.00  0.00     0.037 A 
HETATM   19  C   UNL     1       7.013  24.058  54.597  1.00  0.00     0.075 A 
HETATM   20  C   UNL     1       7.386  23.311  53.493  1.00  0.00     0.165 A 
HETATM   21  N   UNL     1       7.898  23.831  52.359  1.00  0.00    -0.237 NA
HETATM   22  C   UNL     1       8.041  25.169  52.314  1.00  0.00     0.120 A 
HETATM   23  C   UNL     1       7.702  26.003  53.361  1.00  0.00     0.036 A 
BRANCH  20  24
HETATM   24  O   UNL     1       7.214  21.942  53.580  1.00  0.00    -0.329 OA
BRANCH  24  25
HETATM   25  C   UNL     1       8.329  21.203  54.128  1.00  0.00     0.130 C 
HETATM   26  C   UNL     1       8.052  20.328  55.381  1.00  0.00     0.032 C 
HETATM   27  C   UNL     1       9.422  20.777  55.919  1.00  0.00     0.005 C 
HETATM   28  C   UNL     1       9.280  22.030  55.035  1.00  0.00     0.032 C 
ENDBRANCH  24  25
ENDBRANCH  20  24
ENDBRANCH   2  18
TORSDOF 6
ENDMDL
MODEL 5
REMARK VINA RESULT:      -8.3      3.090      5.813
REMARK  6 active torsions:
REMARK  status: ('A' for Active; 'I' for Inactive)
REMARK    1  A    between atoms: C_2  and  C_3 
REMARK       I    between atoms: C_3  and  N_4 
REMARK    2  A    between atoms: N_4  and  C_5 
REMARK    3  A    between atoms: C_7  and  N_8 
REMARK       I    between atoms: N_8  and  C_9 
REMARK    4  A    between atoms: C_9  and  C_10 
REMARK    5  A    between atoms: C_12  and  O_13 
REMARK    6  A    between atoms: O_13  and  C_14 
ROOT
HETATM    1  N   UNL     1       7.620  30.706  60.031  1.00  0.00    -0.322 N 
HETATM    2  C   UNL     1       8.135  30.695  61.317  1.00  0.00     0.256 C 
HETATM    3  O   UNL     1       9.067  29.993  61.698  1.00  0.00    -0.267 OA
HETATM    4  H   UNL     1       6.714  31.117  59.878  1.00  0.00     0.169 HD
ENDROOT
BRANCH   1   5
HETATM    5  C   UNL     1       8.243  30.146  58.884  1.00  0.00     0.043 A 
HETATM    6  C   UNL     1       7.731  28.992  58.264  1.00  0.00     0.059 A 
HETATM    7  C   UNL     1       8.382  28.394  57.182  1.00  0.00     0.036 A 
HETATM    8  C   UNL     1       9.551  28.980  56.695  1.00  0.00     0.030 A 
HETATM    9  C   UNL     1      10.077  30.122  57.301  1.00  0.00     0.011 A 
HETATM   10  C   UNL     1       9.437  30.717  58.400  1.00  0.00    -0.035 A 
HETATM   11  C   UNL     1      10.063  31.938  59.014  1.00  0.00     0.050 C 
BRANCH   7  12
HETATM   12  N   UNL     1       7.935  27.217  56.542  1.00  0.00    -0.327 N 
HETATM   13  C   UNL     1       7.906  25.934  57.059  1.00  0.00     0.221 C 
HETATM   14  O   UNL     1       8.349  25.569  58.144  1.00  0.00    -0.273 OA
HETATM   15  H   UNL     1       7.661  27.319  55.573  1.00  0.00     0.169 HD
BRANCH  13  16
HETATM   16  C   UNL     1       7.309  24.919  56.099  1.00  0.00     0.098 C 
HETATM   17  C   UNL     1       7.825  25.077  54.681  1.00  0.00     0.014 C 
ENDBRANCH  13  16
ENDBRANCH   7  12
ENDBRANCH   1   5
BRANCH   2  18
HETATM   18  C   UNL     1       7.501  31.597  62.323  1.00  0.00     0.037 A 
HETATM   19  C   UNL     1       6.125  31.730  62.505  1.00  0.00     0.075 A 
HETATM   20  C   UNL     1       5.686  32.636  63.456  1.00  0.00     0.165 A 
HETATM   21  N   UNL     1       6.498  33.391  64.221  1.00  0.00    -0.237 NA
HETATM   22  C   UNL     1       7.823  33.237  64.038  1.00  0.00     0.120 A 
HETATM   23  C   UNL     1       8.364  32.364  63.115  1.00  0.00     0.036 A 
BRANCH  20  24
HETATM   24  O   UNL     1       4.317  32.756  63.616  1.00  0.00    -0.329 OA
BRANCH  24  25
HETATM   25  C   UNL     1       3.619  33.437  62.549  1.00  0.00     0.130 C 
HETATM   26  C   UNL     1       4.178  34.815  62.102  1.00  0.00     0.032 C 
HETATM   27  C   UNL     1       2.721  35.289  61.961  1.00  0.00     0.005 C 
HETATM   28  C   UNL     1       2.343  34.204  62.987  1.00  0.00     0.032 C 
ENDBRANCH  24  25
ENDBRANCH  20  24
ENDBRANCH   2  18
TORSDOF 6
ENDMDL
MODEL 6
REMARK VINA RESULT:      -8.3      3.116     10.227
REMARK  6 active torsions:
REMARK  status: ('A' for Active; 'I' for Inactive)
REMARK    1  A    between atoms: C_2  and  C_3 
REMARK       I    between atoms: C_3  and  N_4 
REMARK    2  A    between atoms: N_4  and  C_5 
REMARK    3  A    between atoms: C_7  and  N_8 
REMARK       I    between atoms: N_8  and  C_9 
REMARK    4  A    between atoms: C_9  and  C_10 
REMARK    5  A    between atoms: C_12  and  O_13 
REMARK    6  A    between atoms: O_13  and  C_14 
ROOT
HETATM    1  N   UNL     1       7.273  31.196  60.288  1.00  0.00    -0.322 N 
HETATM    2  C   UNL     1       8.215  31.374  59.288  1.00  0.00     0.256 C 
HETATM    3  O   UNL     1       8.946  32.354  59.174  1.00  0.00    -0.267 OA
HETATM    4  H   UNL     1       6.561  30.497  60.160  1.00  0.00     0.169 HD
ENDROOT
BRANCH   1   5
HETATM    5  C   UNL     1       7.189  31.948  61.490  1.00  0.00     0.043 A 
HETATM    6  C   UNL     1       6.304  33.035  61.612  1.00  0.00     0.059 A 
HETATM    7  C   UNL     1       6.270  33.824  62.764  1.00  0.00     0.036 A 
HETATM    8  C   UNL     1       7.118  33.501  63.824  1.00  0.00     0.030 A 
HETATM    9  C   UNL     1       8.006  32.429  63.720  1.00  0.00     0.011 A 
HETATM   10  C   UNL     1       8.057  31.644  62.557  1.00  0.00    -0.035 A 
HETATM   11  C   UNL     1       9.046  30.512  62.504  1.00  0.00     0.050 C 
BRANCH   7  12
HETATM   12  N   UNL     1       5.429  34.947  62.930  1.00  0.00    -0.327 N 
HETATM   13  C   UNL     1       4.183  34.986  63.529  1.00  0.00     0.221 C 
HETATM   14  O   UNL     1       3.539  34.031  63.950  1.00  0.00    -0.273 OA
HETATM   15  H   UNL     1       5.754  35.806  62.507  1.00  0.00     0.169 HD
BRANCH  13  16
HETATM   16  C   UNL     1       3.590  36.385  63.575  1.00  0.00     0.098 C 
HETATM   17  C   UNL     1       3.296  36.944  62.195  1.00  0.00     0.014 C 
ENDBRANCH  13  16
ENDBRANCH   7  12
ENDBRANCH   1   5
BRANCH   2  18
HETATM   18  C   UNL     1       8.344  30.300  58.261  1.00  0.00     0.037 A 
HETATM   19  C   UNL     1       7.390  29.309  58.033  1.00  0.00     0.075 A 
HETATM   20  C   UNL     1       7.668  28.357  57.067  1.00  0.00     0.165 A 
HETATM   21  N   UNL     1       8.796  28.327  56.330  1.00  0.00    -0.237 NA
HETATM   22  C   UNL     1       9.698  29.300  56.557  1.00  0.00     0.120 A 
HETATM   23  C   UNL     1       9.519  30.294  57.498  1.00  0.00     0.036 A 
BRANCH  20  24
HETATM   24  O   UNL     1       6.710  27.381  56.861  1.00  0.00    -0.329 OA
BRANCH  24  25
HETATM   25  C   UNL     1       7.130  26.247  56.068  1.00  0.00     0.130 C 
HETATM   26  C   UNL     1       6.018  25.433  55.352  1.00  0.00     0.032 C 
HETATM   27  C   UNL     1       6.810  24.162  55.706  1.00  0.00     0.005 C 
HETATM   28  C   UNL     1       7.423  24.955  56.876  1.00  0.00     0.032 C 
ENDBRANCH  24  25
ENDBRANCH  20  24
ENDBRANCH   2  18
TORSDOF 6
ENDMDL
MODEL 7
REMARK VINA RESULT:      -8.2      3.322      4.285
REMARK  6 active torsions:
REMARK  status: ('A' for Active; 'I' for Inactive)
REMARK    1  A    between atoms: C_2  and  C_3 
REMARK       I    between atoms: C_3  and  N_4 
REMARK    2  A    between atoms: N_4  and  C_5 
REMARK    3  A    between atoms: C_7  and  N_8 
REMARK       I    between atoms: N_8  and  C_9 
REMARK    4  A    between atoms: C_9  and  C_10 
REMARK    5  A    between atoms: C_12  and  O_13 
REMARK    6  A    between atoms: O_13  and  C_14 
ROOT
HETATM    1  N   UNL     1       7.616  27.456  54.232  1.00  0.00    -0.322 N 
HETATM    2  C   UNL     1       7.198  28.457  55.093  1.00  0.00     0.256 C 
HETATM    3  O   UNL     1       6.075  28.951  55.106  1.00  0.00    -0.267 OA
HETATM    4  H   UNL     1       8.604  27.294  54.125  1.00  0.00     0.169 HD
ENDROOT
BRANCH   1   5
HETATM    5  C   UNL     1       6.769  26.640  53.436  1.00  0.00     0.043 A 
HETATM    6  C   UNL     1       6.473  26.976  52.102  1.00  0.00     0.059 A 
HETATM    7  C   UNL     1       5.581  26.219  51.338  1.00  0.00     0.036 A 
HETATM    8  C   UNL     1       4.999  25.089  51.911  1.00  0.00     0.030 A 
HETATM    9  C   UNL     1       5.277  24.742  53.235  1.00  0.00     0.011 A 
HETATM   10  C   UNL     1       6.158  25.510  54.012  1.00  0.00    -0.035 A 
HETATM   11  C   UNL     1       6.405  25.089  55.435  1.00  0.00     0.050 C 
BRANCH   7  12
HETATM   12  N   UNL     1       5.219  26.528  50.008  1.00  0.00    -0.327 N 
HETATM   13  C   UNL     1       4.288  27.458  49.582  1.00  0.00     0.221 C 
HETATM   14  O   UNL     1       3.539  28.127  50.288  1.00  0.00    -0.273 OA
HETATM   15  H   UNL     1       5.649  25.958  49.291  1.00  0.00     0.169 HD
BRANCH  13  16
HETATM   16  C   UNL     1       4.198  27.558  48.068  1.00  0.00     0.098 C 
HETATM   17  C   UNL     1       5.547  27.793  47.413  1.00  0.00     0.014 C 
ENDBRANCH  13  16
ENDBRANCH   7  12
ENDBRANCH   1   5
BRANCH   2  18
HETATM   18  C   UNL     1       8.191  28.987  56.072  1.00  0.00     0.037 A 
HETATM   19  C   UNL     1       7.941  29.156  57.434  1.00  0.00     0.075 A 
HETATM   20  C   UNL     1       8.953  29.694  58.212  1.00  0.00     0.165 A 
HETATM   21  N   UNL     1      10.162  30.060  57.743  1.00  0.00    -0.237 NA
HETATM   22  C   UNL     1      10.386  29.876  56.429  1.00  0.00     0.120 A 
HETATM   23  C   UNL     1       9.445  29.350  55.565  1.00  0.00     0.036 A 
BRANCH  20  24
HETATM   24  O   UNL     1       8.682  29.858  59.558  1.00  0.00    -0.329 OA
BRANCH  24  25
HETATM   25  C   UNL     1       8.731  31.218  60.047  1.00  0.00     0.130 C 
HETATM   26  C   UNL     1       8.916  31.414  61.577  1.00  0.00     0.032 C 
HETATM   27  C   UNL     1       7.918  32.582  61.482  1.00  0.00     0.005 C 
HETATM   28  C   UNL     1       7.349  31.901  60.223  1.00  0.00     0.032 C 
ENDBRANCH  24  25
ENDBRANCH  20  24
ENDBRANCH   2  18
TORSDOF 6
ENDMDL
MODEL 8
REMARK VINA RESULT:      -7.8      4.285      7.924
REMARK  6 active torsions:
REMARK  status: ('A' for Active; 'I' for Inactive)
REMARK    1  A    between atoms: C_2  and  C_3 
REMARK       I    between atoms: C_3  and  N_4 
REMARK    2  A    between atoms: N_4  and  C_5 
REMARK    3  A    between atoms: C_7  and  N_8 
REMARK       I    between atoms: N_8  and  C_9 
REMARK    4  A    between atoms: C_9  and  C_10 
REMARK    5  A    between atoms: C_12  and  O_13 
REMARK    6  A    between atoms: O_13  and  C_14 
ROOT
HETATM    1  N   UNL     1       6.125  27.519  54.583  1.00  0.00    -0.322 N 
HETATM    2  C   UNL     1       5.883  26.674  55.654  1.00  0.00     0.256 C 
HETATM    3  O   UNL     1       4.831  26.618  56.284  1.00  0.00    -0.267 OA
HETATM    4  H   UNL     1       7.078  27.673  54.297  1.00  0.00     0.169 HD
ENDROOT
BRANCH   1   5
HETATM    5  C   UNL     1       5.140  28.237  53.855  1.00  0.00     0.043 A 
HETATM    6  C   UNL     1       4.634  27.751  52.635  1.00  0.00     0.059 A 
HETATM    7  C   UNL     1       3.721  28.489  51.878  1.00  0.00     0.036 A 
HETATM    8  C   UNL     1       3.285  29.721  52.365  1.00  0.00     0.030 A 
HETATM    9  C   UNL     1       3.779  30.221  53.571  1.00  0.00     0.011 A 
HETATM   10  C   UNL     1       4.711  29.492  54.328  1.00  0.00    -0.035 A 
HETATM   11  C   UNL     1       5.213  30.094  55.611  1.00  0.00     0.050 C 
BRANCH   7  12
HETATM   12  N   UNL     1       3.206  28.070  50.631  1.00  0.00    -0.327 N 
HETATM   13  C   UNL     1       3.917  27.780  49.479  1.00  0.00     0.221 C 
HETATM   14  O   UNL     1       5.123  27.919  49.305  1.00  0.00    -0.273 OA
HETATM   15  H   UNL     1       2.198  28.038  50.559  1.00  0.00     0.169 HD
BRANCH  13  16
HETATM   16  C   UNL     1       3.031  27.306  48.339  1.00  0.00     0.098 C 
HETATM   17  C   UNL     1       3.511  26.004  47.723  1.00  0.00     0.014 C 
ENDBRANCH  13  16
ENDBRANCH   7  12
ENDBRANCH   1   5
BRANCH   2  18
HETATM   18  C   UNL     1       6.989  25.770  56.087  1.00  0.00     0.037 A 
HETATM   19  C   UNL     1       7.536  24.760  55.295  1.00  0.00     0.075 A 
HETATM   20  C   UNL     1       8.536  23.979  55.850  1.00  0.00     0.165 A 
HETATM   21  N   UNL     1       9.019  24.132  57.098  1.00  0.00    -0.237 NA
HETATM   22  C   UNL     1       8.486  25.121  57.839  1.00  0.00     0.120 A 
HETATM   23  C   UNL     1       7.484  25.955  57.384  1.00  0.00     0.036 A 
BRANCH  20  24
HETATM   24  O   UNL     1       9.060  22.980  55.049  1.00  0.00    -0.329 OA
BRANCH  24  25
HETATM   25  C   UNL     1       8.105  22.025  54.532  1.00  0.00     0.130 C 
HETATM   26  C   UNL     1       8.581  20.553  54.390  1.00  0.00     0.032 C 
HETATM   27  C   UNL     1       7.794  20.494  53.069  1.00  0.00     0.005 C 
HETATM   28  C   UNL     1       7.952  22.024  52.987  1.00  0.00     0.032 C 
ENDBRANCH  24  25
ENDBRANCH  20  24
ENDBRANCH   2  18
TORSDOF 6
ENDMDL
MODEL 9
REMARK VINA RESULT:      -7.7      3.309      5.898
REMARK  6 active torsions:
REMARK  status: ('A' for Active; 'I' for Inactive)
REMARK    1  A    between atoms: C_2  and  C_3 
REMARK       I    between atoms: C_3  and  N_4 
REMARK    2  A    between atoms: N_4  and  C_5 
REMARK    3  A    between atoms: C_7  and  N_8 
REMARK       I    between atoms: N_8  and  C_9 
REMARK    4  A    between atoms: C_9  and  C_10 
REMARK    5  A    between atoms: C_12  and  O_13 
REMARK    6  A    between atoms: O_13  and  C_14 
ROOT
HETATM    1  N   UNL     1       7.689  30.992  59.860  1.00  0.00    -0.322 N 
HETATM    2  C   UNL     1       6.788  32.037  59.741  1.00  0.00     0.256 C 
HETATM    3  O   UNL     1       6.489  32.596  58.690  1.00  0.00    -0.267 OA
HETATM    4  H   UNL     1       8.054  30.772  60.771  1.00  0.00     0.169 HD
ENDROOT
BRANCH   1   5
HETATM    5  C   UNL     1       8.191  30.206  58.789  1.00  0.00     0.043 A 
HETATM    6  C   UNL     1       7.498  29.071  58.328  1.00  0.00     0.059 A 
HETATM    7  C   UNL     1       8.024  28.252  57.326  1.00  0.00     0.036 A 
HETATM    8  C   UNL     1       9.251  28.591  56.756  1.00  0.00     0.030 A 
HETATM    9  C   UNL     1       9.955  29.710  57.204  1.00  0.00     0.011 A 
HETATM   10  C   UNL     1       9.440  30.527  58.223  1.00  0.00    -0.035 A 
HETATM   11  C   UNL     1      10.256  31.710  58.668  1.00  0.00     0.050 C 
BRANCH   7  12
HETATM   12  N   UNL     1       7.392  27.082  56.848  1.00  0.00    -0.327 N 
HETATM   13  C   UNL     1       7.544  25.789  57.317  1.00  0.00     0.221 C 
HETATM   14  O   UNL     1       8.327  25.407  58.181  1.00  0.00    -0.273 OA
HETATM   15  H   UNL     1       6.808  27.200  56.031  1.00  0.00     0.169 HD
BRANCH  13  16
HETATM   16  C   UNL     1       6.661  24.787  56.592  1.00  0.00     0.098 C 
HETATM   17  C   UNL     1       6.800  24.865  55.082  1.00  0.00     0.014 C 
ENDBRANCH  13  16
ENDBRANCH   7  12
ENDBRANCH   1   5
BRANCH   2  18
HETATM   18  C   UNL     1       6.139  32.536  60.989  1.00  0.00     0.037 A 
HETATM   19  C   UNL     1       5.679  33.840  61.171  1.00  0.00     0.075 A 
HETATM   20  C   UNL     1       5.130  34.163  62.400  1.00  0.00     0.165 A 
HETATM   21  N   UNL     1       5.005  33.301  63.430  1.00  0.00    -0.237 NA
HETATM   22  C   UNL     1       5.444  32.045  63.228  1.00  0.00     0.120 A 
HETATM   23  C   UNL     1       6.009  31.621  62.042  1.00  0.00     0.036 A 
BRANCH  20  24
HETATM   24  O   UNL     1       4.685  35.463  62.561  1.00  0.00    -0.329 OA
BRANCH  24  25
HETATM   25  C   UNL     1       5.625  36.376  63.172  1.00  0.00     0.130 C 
HETATM   26  C   UNL     1       5.060  37.383  64.211  1.00  0.00     0.032 C 
HETATM   27  C   UNL     1       6.014  38.433  63.616  1.00  0.00     0.005 C 
HETATM   28  C   UNL     1       5.988  37.615  62.311  1.00  0.00     0.032 C 
ENDBRANCH  24  25
ENDBRANCH  20  24
ENDBRANCH   2  18
TORSDOF 6
ENDMDL
MODEL 10
REMARK VINA RESULT:      -7.7      5.377      9.326
REMARK  6 active torsions:
REMARK  status: ('A' for Active; 'I' for Inactive)
REMARK    1  A    between atoms: C_2  and  C_3 
REMARK       I    between atoms: C_3  and  N_4 
REMARK    2  A    between atoms: N_4  and  C_5 
REMARK    3  A    between atoms: C_7  and  N_8 
REMARK       I    between atoms: N_8  and  C_9 
REMARK    4  A    between atoms: C_9  and  C_10 
REMARK    5  A    between atoms: C_12  and  O_13 
REMARK    6  A    between atoms: O_13  and  C_14 
ROOT
HETATM    1  N   UNL     1       6.476  26.442  51.939  1.00  0.00    -0.322 N 
HETATM    2  C   UNL     1       5.351  26.142  51.188  1.00  0.00     0.256 C 
HETATM    3  O   UNL     1       4.632  25.161  51.354  1.00  0.00    -0.267 OA
HETATM    4  H   UNL     1       7.131  27.114  51.577  1.00  0.00     0.169 HD
ENDROOT
BRANCH   1   5
HETATM    5  C   UNL     1       6.822  25.851  53.183  1.00  0.00     0.043 A 
HETATM    6  C   UNL     1       7.010  24.462  53.306  1.00  0.00     0.059 A 
HETATM    7  C   UNL     1       7.277  23.868  54.542  1.00  0.00     0.036 A 
HETATM    8  C   UNL     1       7.386  24.682  55.669  1.00  0.00     0.030 A 
HETATM    9  C   UNL     1       7.197  26.061  55.568  1.00  0.00     0.011 A 
HETATM   10  C   UNL     1       6.911  26.662  54.331  1.00  0.00    -0.035 A 
HETATM   11  C   UNL     1       6.707  28.152  54.293  1.00  0.00     0.050 C 
BRANCH   7  12
HETATM   12  N   UNL     1       7.440  22.477  54.732  1.00  0.00    -0.327 N 
HETATM   13  C   UNL     1       8.464  21.676  54.260  1.00  0.00     0.221 C 
HETATM   14  O   UNL     1       9.377  22.013  53.512  1.00  0.00    -0.273 OA
HETATM   15  H   UNL     1       6.687  22.008  55.218  1.00  0.00     0.169 HD
BRANCH  13  16
HETATM   16  C   UNL     1       8.340  20.229  54.706  1.00  0.00     0.098 C 
HETATM   17  C   UNL     1       8.125  20.091  56.203  1.00  0.00     0.014 C 
ENDBRANCH  13  16
ENDBRANCH   7  12
ENDBRANCH   1   5
BRANCH   2  18
HETATM   18  C   UNL     1       4.990  27.075  50.080  1.00  0.00     0.037 A 
HETATM   19  C   UNL     1       4.093  26.772  49.056  1.00  0.00     0.075 A 
HETATM   20  C   UNL     1       3.887  27.730  48.078  1.00  0.00     0.165 A 
HETATM   21  N   UNL     1       4.489  28.935  48.051  1.00  0.00    -0.237 NA
HETATM   22  C   UNL     1       5.341  29.211  49.056  1.00  0.00     0.120 A 
HETATM   23  C   UNL     1       5.620  28.326  50.079  1.00  0.00     0.036 A 
BRANCH  20  24
HETATM   24  O   UNL     1       2.997  27.407  47.069  1.00  0.00    -0.329 OA
BRANCH  24  25
HETATM   25  C   UNL     1       1.627  27.815  47.286  1.00  0.00     0.130 C 
HETATM   26  C   UNL     1       0.544  27.173  46.377  1.00  0.00     0.032 C 
HETATM   27  C   UNL     1      -0.142  28.549  46.331  1.00  0.00     0.005 C 
HETATM   28  C   UNL     1       1.236  29.167  46.634  1.00  0.00     0.032 C 
ENDBRANCH  24  25
ENDBRANCH  20  24
ENDBRANCH   2  18
TORSDOF 6
ENDMDL
