MODEL 1
REMARK VINA RESULT:      -9.3      0.000      0.000
REMARK  3 active torsions:
REMARK  status: ('A' for Active; 'I' for Inactive)
REMARK    1  A    between atoms: C_6  and  N_7 
REMARK       I    between atoms: N_7  and  C_8 
REMARK    2  A    between atoms: C_8  and  C_9 
REMARK    3  A    between atoms: C_9  and  C_10 
ROOT
HETATM    1  C   UNL     1       7.929  28.133  56.663  1.00  0.00     0.286 C 
HETATM    2  N   UNL     1       7.733  28.660  58.093  1.00  0.00    -0.056 N 
HETATM    3  H   UNL     1       6.714  28.707  58.289  1.00  0.00     0.278 HD
HETATM    4  H   UNL     1       8.130  27.992  58.766  1.00  0.00     0.278 HD
HETATM    5  C   UNL     1       8.258  30.051  58.344  1.00  0.00     0.209 C 
HETATM    6  C   UNL     1       9.685  30.171  57.776  1.00  0.00     0.115 C 
HETATM    7  N   UNL     1       9.685  29.884  56.351  1.00  0.00    -0.353 N 
HETATM    8  C   UNL     1       8.894  28.935  55.763  1.00  0.00     0.249 C 
HETATM    9  O   UNL     1       8.970  28.732  54.555  1.00  0.00    -0.271 OA
HETATM   10  C   UNL     1       8.212  30.347  59.838  1.00  0.00     0.035 C 
HETATM   11  C   UNL     1       8.775  31.739  60.121  1.00  0.00     0.002 C 
HETATM   12  C   UNL     1      10.181  31.909  59.546  1.00  0.00     0.002 C 
HETATM   13  C   UNL     1      10.245  31.568  58.058  1.00  0.00     0.027 C 
HETATM   14  H   UNL     1      10.365  30.326  55.735  1.00  0.00     0.163 HD
ENDROOT
BRANCH   1  15
HETATM   15  C   UNL     1       6.587  27.924  55.952  1.00  0.00     0.146 C 
BRANCH  15  16
HETATM   16  C   UNL     1       6.423  26.450  55.686  1.00  0.00     0.224 C 
HETATM   17  N   UNL     1       7.573  25.808  55.297  1.00  0.00    -0.327 N 
HETATM   18  H   UNL     1       8.451  26.303  55.419  1.00  0.00     0.169 HD
HETATM   19  O   UNL     1       5.279  25.996  55.730  1.00  0.00    -0.273 OA
BRANCH  17  20
HETATM   20  C   UNL     1       7.692  24.498  54.768  1.00  0.00     0.040 A 
HETATM   21  C   UNL     1       7.823  24.335  53.372  1.00  0.00    -0.035 A 
HETATM   22  C   UNL     1       7.909  23.037  52.831  1.00  0.00     0.015 A 
HETATM   23  C   UNL     1       7.894  25.502  52.421  1.00  0.00     0.050 C 
HETATM   24  C   UNL     1       7.854  21.904  53.646  1.00  0.00    -0.061 A 
HETATM   25  C   UNL     1       7.981  20.527  53.064  1.00  0.00     0.048 C 
HETATM   26  C   UNL     1       7.735  22.075  55.025  1.00  0.00     0.009 A 
HETATM   27  C   UNL     1       7.653  23.357  55.578  1.00  0.00     0.030 A 
ENDBRANCH  17  20
ENDBRANCH  15  16
ENDBRANCH   1  15
TORSDOF 3
ENDMDL
MODEL 2
REMARK VINA RESULT:      -9.1      3.851      6.957
REMARK  3 active torsions:
REMARK  status: ('A' for Active; 'I' for Inactive)
REMARK    1  A    between atoms: C_6  and  N_7 
REMARK       I    between atoms: N_7  and  C_8 
REMARK    2  A    between atoms: C_8  and  C_9 
REMARK    3  A    between atoms: C_9  and  C_10 
ROOT
HETATM    1  C   UNL     1       7.932  25.593  55.838  1.00  0.00     0.286 C 
HETATM    2  N   UNL     1       7.925  24.513  54.744  1.00  0.00    -0.056 N 
HETATM    3  H   UNL     1       7.161  24.729  54.074  1.00  0.00     0.278 HD
HETATM    4  H   UNL     1       8.803  24.556  54.210  1.00  0.00     0.278 HD
HETATM    5  C   UNL     1       7.658  23.110  55.226  1.00  0.00     0.209 C 
HETATM    6  C   UNL     1       8.538  22.813  56.455  1.00  0.00     0.115 C 
HETATM    7  N   UNL     1       8.262  23.768  57.514  1.00  0.00    -0.353 N 
HETATM    8  C   UNL     1       7.980  25.089  57.297  1.00  0.00     0.249 C 
HETATM    9  O   UNL     1       7.783  25.842  58.246  1.00  0.00    -0.271 OA
HETATM   10  C   UNL     1       7.914  22.128  54.089  1.00  0.00     0.035 C 
HETATM   11  C   UNL     1       7.685  20.694  54.566  1.00  0.00     0.002 C 
HETATM   12  C   UNL     1       8.519  20.367  55.804  1.00  0.00     0.002 C 
HETATM   13  C   UNL     1       8.304  21.377  56.931  1.00  0.00     0.027 C 
HETATM   14  H   UNL     1       8.368  23.502  58.492  1.00  0.00     0.163 HD
ENDROOT
BRANCH   1  15
HETATM   15  C   UNL     1       6.779  26.586  55.654  1.00  0.00     0.146 C 
BRANCH  15  16
HETATM   16  C   UNL     1       6.821  27.095  54.237  1.00  0.00     0.224 C 
HETATM   17  N   UNL     1       5.612  27.077  53.587  1.00  0.00    -0.327 N 
HETATM   18  H   UNL     1       4.778  26.934  54.150  1.00  0.00     0.169 HD
HETATM   19  O   UNL     1       7.929  27.362  53.769  1.00  0.00    -0.273 OA
BRANCH  17  20
HETATM   20  C   UNL     1       5.373  27.276  52.203  1.00  0.00     0.040 A 
HETATM   21  C   UNL     1       5.078  26.157  51.395  1.00  0.00    -0.035 A 
HETATM   22  C   UNL     1       4.872  26.336  50.012  1.00  0.00     0.015 A 
HETATM   23  C   UNL     1       4.955  24.762  51.952  1.00  0.00     0.050 C 
HETATM   24  C   UNL     1       4.966  27.599  49.420  1.00  0.00    -0.061 A 
HETATM   25  C   UNL     1       4.711  27.784  47.953  1.00  0.00     0.048 C 
HETATM   26  C   UNL     1       5.248  28.699  50.229  1.00  0.00     0.009 A 
HETATM   27  C   UNL     1       5.450  28.539  51.603  1.00  0.00     0.030 A 
ENDBRANCH  17  20
ENDBRANCH  15  16
ENDBRANCH   1  15
TORSDOF 3
ENDMDL
MODEL 3
REMARK VINA RESULT:      -9.0      4.547      7.889
REMARK  3 active torsions:
REMARK  status: ('A' for Active; 'I' for Inactive)
REMARK    1  A    between atoms: C_6  and  N_7 
REMARK       I    between atoms: N_7  and  C_8 
REMARK    2  A    between atoms: C_8  and  C_9 
REMARK    3  A    between atoms: C_9  and  C_10 
ROOT
HETATM    1  C   UNL     1       5.083  26.944  51.291  1.00  0.00     0.286 C 
HETATM    2  N   UNL     1       4.365  25.914  50.405  1.00  0.00    -0.056 N 
HETATM    3  H   UNL     1       4.982  25.086  50.298  1.00  0.00     0.278 HD
HETATM    4  H   UNL     1       3.513  25.586  50.877  1.00  0.00     0.278 HD
HETATM    5  C   UNL     1       4.058  26.375  49.002  1.00  0.00     0.209 C 
HETATM    6  C   UNL     1       3.422  27.778  49.050  1.00  0.00     0.115 C 
HETATM    7  N   UNL     1       4.320  28.716  49.701  1.00  0.00    -0.353 N 
HETATM    8  C   UNL     1       5.121  28.395  50.763  1.00  0.00     0.249 C 
HETATM    9  O   UNL     1       5.835  29.251  51.278  1.00  0.00    -0.271 OA
HETATM   10  C   UNL     1       3.149  25.358  48.324  1.00  0.00     0.035 C 
HETATM   11  C   UNL     1       2.793  25.823  46.912  1.00  0.00     0.002 C 
HETATM   12  C   UNL     1       2.185  27.225  46.913  1.00  0.00     0.002 C 
HETATM   13  C   UNL     1       3.070  28.241  47.634  1.00  0.00     0.027 C 
HETATM   14  H   UNL     1       4.314  29.701  49.444  1.00  0.00     0.163 HD
ENDROOT
BRANCH   1  15
HETATM   15  C   UNL     1       6.494  26.476  51.667  1.00  0.00     0.146 C 
BRANCH  15  16
HETATM   16  C   UNL     1       6.364  25.334  52.640  1.00  0.00     0.224 C 
HETATM   17  N   UNL     1       7.555  24.753  53.001  1.00  0.00    -0.327 N 
HETATM   18  H   UNL     1       8.410  25.250  52.766  1.00  0.00     0.169 HD
HETATM   19  O   UNL     1       5.224  24.963  52.922  1.00  0.00    -0.273 OA
BRANCH  17  20
HETATM   20  C   UNL     1       7.743  23.538  53.708  1.00  0.00     0.040 A 
HETATM   21  C   UNL     1       7.887  23.583  55.112  1.00  0.00    -0.035 A 
HETATM   22  C   UNL     1       8.109  22.386  55.823  1.00  0.00     0.015 A 
HETATM   23  C   UNL     1       7.798  24.865  55.898  1.00  0.00     0.050 C 
HETATM   24  C   UNL     1       8.202  21.156  55.167  1.00  0.00    -0.061 A 
HETATM   25  C   UNL     1       8.403  19.884  55.937  1.00  0.00     0.048 C 
HETATM   26  C   UNL     1       8.048  21.122  53.782  1.00  0.00     0.009 A 
HETATM   27  C   UNL     1       7.823  22.299  53.062  1.00  0.00     0.030 A 
ENDBRANCH  17  20
ENDBRANCH  15  16
ENDBRANCH   1  15
TORSDOF 3
ENDMDL
MODEL 4
REMARK VINA RESULT:      -9.0      3.222      4.960
REMARK  3 active torsions:
REMARK  status: ('A' for Active; 'I' for Inactive)
REMARK    1  A    between atoms: C_6  and  N_7 
REMARK       I    between atoms: N_7  and  C_8 
REMARK    2  A    between atoms: C_8  and  C_9 
REMARK    3  A    between atoms: C_9  and  C_10 
ROOT
HETATM    1  C   UNL     1       5.387  27.723  55.899  1.00  0.00     0.286 C 
HETATM    2  N   UNL     1       4.923  26.762  54.793  1.00  0.00    -0.056 N 
HETATM    3  H   UNL     1       5.352  25.832  54.964  1.00  0.00     0.278 HD
HETATM    4  H   UNL     1       3.905  26.630  54.854  1.00  0.00     0.278 HD
HETATM    5  C   UNL     1       5.331  27.146  53.393  1.00  0.00     0.209 C 
HETATM    6  C   UNL     1       5.022  28.637  53.159  1.00  0.00     0.115 C 
HETATM    7  N   UNL     1       5.728  29.455  54.130  1.00  0.00    -0.353 N 
HETATM    8  C   UNL     1       5.927  29.093  55.434  1.00  0.00     0.249 C 
HETATM    9  O   UNL     1       6.511  29.852  56.203  1.00  0.00    -0.271 OA
HETATM   10  C   UNL     1       4.612  26.249  52.393  1.00  0.00     0.035 C 
HETATM   11  C   UNL     1       4.982  26.644  50.964  1.00  0.00     0.002 C 
HETATM   12  C   UNL     1       4.718  28.126  50.699  1.00  0.00     0.002 C 
HETATM   13  C   UNL     1       5.397  29.030  51.728  1.00  0.00     0.027 C 
HETATM   14  H   UNL     1       6.023  30.401  53.892  1.00  0.00     0.163 HD
ENDROOT
BRANCH   1  15
HETATM   15  C   UNL     1       6.388  27.049  56.845  1.00  0.00     0.146 C 
BRANCH  15  16
HETATM   16  C   UNL     1       6.459  25.588  56.488  1.00  0.00     0.224 C 
HETATM   17  N   UNL     1       7.524  25.245  55.692  1.00  0.00    -0.327 N 
HETATM   18  H   UNL     1       8.270  25.928  55.586  1.00  0.00     0.169 HD
HETATM   19  O   UNL     1       5.515  24.878  56.837  1.00  0.00    -0.273 OA
BRANCH  17  20
HETATM   20  C   UNL     1       7.736  24.017  55.014  1.00  0.00     0.040 A 
HETATM   21  C   UNL     1       7.947  24.036  53.619  1.00  0.00    -0.035 A 
HETATM   22  C   UNL     1       8.124  22.820  52.929  1.00  0.00     0.015 A 
HETATM   23  C   UNL     1       8.008  25.315  52.823  1.00  0.00     0.050 C 
HETATM   24  C   UNL     1       8.083  21.593  53.595  1.00  0.00    -0.061 A 
HETATM   25  C   UNL     1       8.308  20.306  52.857  1.00  0.00     0.048 C 
HETATM   26  C   UNL     1       7.884  21.585  54.975  1.00  0.00     0.009 A 
HETATM   27  C   UNL     1       7.711  22.783  55.675  1.00  0.00     0.030 A 
ENDBRANCH  17  20
ENDBRANCH  15  16
ENDBRANCH   1  15
TORSDOF 3
ENDMDL
MODEL 5
REMARK VINA RESULT:      -8.8      1.469      7.921
REMARK  3 active torsions:
REMARK  status: ('A' for Active; 'I' for Inactive)
REMARK    1  A    between atoms: C_6  and  N_7 
REMARK       I    between atoms: N_7  and  C_8 
REMARK    2  A    between atoms: C_8  and  C_9 
REMARK    3  A    between atoms: C_9  and  C_10 
ROOT
HETATM    1  C   UNL     1       7.498  25.505  55.219  1.00  0.00     0.286 C 
HETATM    2  N   UNL     1       7.901  24.640  54.015  1.00  0.00    -0.056 N 
HETATM    3  H   UNL     1       7.391  24.985  53.178  1.00  0.00     0.278 HD
HETATM    4  H   UNL     1       8.902  24.763  53.819  1.00  0.00     0.278 HD
HETATM    5  C   UNL     1       7.552  23.177  54.128  1.00  0.00     0.209 C 
HETATM    6  C   UNL     1       7.990  22.650  55.508  1.00  0.00     0.115 C 
HETATM    7  N   UNL     1       7.338  23.405  56.565  1.00  0.00    -0.353 N 
HETATM    8  C   UNL     1       7.084  24.748  56.500  1.00  0.00     0.249 C 
HETATM    9  O   UNL     1       6.553  25.321  57.446  1.00  0.00    -0.271 OA
HETATM   10  C   UNL     1       8.211  22.411  52.988  1.00  0.00     0.035 C 
HETATM   11  C   UNL     1       7.903  20.919  53.104  1.00  0.00     0.002 C 
HETATM   12  C   UNL     1       8.296  20.362  54.472  1.00  0.00     0.002 C 
HETATM   13  C   UNL     1       7.676  21.156  55.621  1.00  0.00     0.027 C 
HETATM   14  H   UNL     1       7.128  22.966  57.460  1.00  0.00     0.163 HD
ENDROOT
BRANCH   1  15
HETATM   15  C   UNL     1       6.427  26.535  54.840  1.00  0.00     0.146 C 
BRANCH  15  16
HETATM   16  C   UNL     1       6.845  27.871  55.395  1.00  0.00     0.224 C 
HETATM   17  N   UNL     1       7.857  27.814  56.321  1.00  0.00    -0.327 N 
HETATM   18  H   UNL     1       8.372  26.942  56.400  1.00  0.00     0.169 HD
HETATM   19  O   UNL     1       6.177  28.851  55.062  1.00  0.00    -0.273 OA
BRANCH  17  20
HETATM   20  C   UNL     1       8.306  28.854  57.174  1.00  0.00     0.040 A 
HETATM   21  C   UNL     1       9.422  29.624  56.779  1.00  0.00    -0.035 A 
HETATM   22  C   UNL     1       9.900  30.638  57.633  1.00  0.00     0.015 A 
HETATM   23  C   UNL     1      10.127  29.419  55.463  1.00  0.00     0.050 C 
HETATM   24  C   UNL     1       9.300  30.892  58.869  1.00  0.00    -0.061 A 
HETATM   25  C   UNL     1       9.795  31.998  59.755  1.00  0.00     0.048 C 
HETATM   26  C   UNL     1       8.192  30.133  59.245  1.00  0.00     0.009 A 
HETATM   27  C   UNL     1       7.703  29.126  58.407  1.00  0.00     0.030 A 
ENDBRANCH  17  20
ENDBRANCH  15  16
ENDBRANCH   1  15
TORSDOF 3
ENDMDL
MODEL 6
REMARK VINA RESULT:      -8.8      1.561      2.475
REMARK  3 active torsions:
REMARK  status: ('A' for Active; 'I' for Inactive)
REMARK    1  A    between atoms: C_6  and  N_7 
REMARK       I    between atoms: N_7  and  C_8 
REMARK    2  A    between atoms: C_8  and  C_9 
REMARK    3  A    between atoms: C_9  and  C_10 
ROOT
HETATM    1  C   UNL     1       5.827  29.201  55.720  1.00  0.00     0.286 C 
HETATM    2  N   UNL     1       7.281  29.193  55.222  1.00  0.00    -0.056 N 
HETATM    3  H   UNL     1       7.431  28.332  54.661  1.00  0.00     0.278 HD
HETATM    4  H   UNL     1       7.435  29.987  54.588  1.00  0.00     0.278 HD
HETATM    5  C   UNL     1       8.331  29.159  56.304  1.00  0.00     0.209 C 
HETATM    6  C   UNL     1       7.997  30.213  57.377  1.00  0.00     0.115 C 
HETATM    7  N   UNL     1       6.685  29.953  57.944  1.00  0.00    -0.353 N 
HETATM    8  C   UNL     1       5.619  29.488  57.223  1.00  0.00     0.249 C 
HETATM    9  O   UNL     1       4.532  29.319  57.769  1.00  0.00    -0.271 OA
HETATM   10  C   UNL     1       9.703  29.392  55.683  1.00  0.00     0.035 C 
HETATM   11  C   UNL     1      10.781  29.399  56.766  1.00  0.00     0.002 C 
HETATM   12  C   UNL     1      10.471  30.412  57.868  1.00  0.00     0.002 C 
HETATM   13  C   UNL     1       9.077  30.215  58.462  1.00  0.00     0.027 C 
HETATM   14  H   UNL     1       6.478  30.210  58.909  1.00  0.00     0.163 HD
ENDROOT
BRANCH   1  15
HETATM   15  C   UNL     1       5.086  27.922  55.314  1.00  0.00     0.146 C 
BRANCH  15  16
HETATM   16  C   UNL     1       6.018  26.757  55.517  1.00  0.00     0.224 C 
HETATM   17  N   UNL     1       6.225  25.989  54.398  1.00  0.00    -0.327 N 
HETATM   18  H   UNL     1       5.923  26.369  53.505  1.00  0.00     0.169 HD
HETATM   19  O   UNL     1       6.403  26.540  56.667  1.00  0.00    -0.273 OA
BRANCH  17  20
HETATM   20  C   UNL     1       6.857  24.721  54.326  1.00  0.00     0.040 A 
HETATM   21  C   UNL     1       7.394  24.296  53.092  1.00  0.00    -0.035 A 
HETATM   22  C   UNL     1       7.994  23.024  52.999  1.00  0.00     0.015 A 
HETATM   23  C   UNL     1       7.370  25.157  51.855  1.00  0.00     0.050 C 
HETATM   24  C   UNL     1       8.058  22.168  54.101  1.00  0.00    -0.061 A 
HETATM   25  C   UNL     1       8.730  20.830  54.001  1.00  0.00     0.048 C 
HETATM   26  C   UNL     1       7.534  22.601  55.318  1.00  0.00     0.009 A 
HETATM   27  C   UNL     1       6.939  23.862  55.428  1.00  0.00     0.030 A 
ENDBRANCH  17  20
ENDBRANCH  15  16
ENDBRANCH   1  15
TORSDOF 3
ENDMDL
MODEL 7
REMARK VINA RESULT:      -8.8      1.533      2.276
REMARK  3 active torsions:
REMARK  status: ('A' for Active; 'I' for Inactive)
REMARK    1  A    between atoms: C_6  and  N_7 
REMARK       I    between atoms: N_7  and  C_8 
REMARK    2  A    between atoms: C_8  and  C_9 
REMARK    3  A    between atoms: C_9  and  C_10 
ROOT
HETATM    1  C   UNL     1       6.735  28.366  57.196  1.00  0.00     0.286 C 
HETATM    2  N   UNL     1       5.716  29.409  57.683  1.00  0.00    -0.056 N 
HETATM    3  H   UNL     1       5.087  29.647  56.891  1.00  0.00     0.278 HD
HETATM    4  H   UNL     1       5.123  28.998  58.415  1.00  0.00     0.278 HD
HETATM    5  C   UNL     1       6.305  30.719  58.141  1.00  0.00     0.209 C 
HETATM    6  C   UNL     1       7.489  30.447  59.089  1.00  0.00     0.115 C 
HETATM    7  N   UNL     1       8.500  29.651  58.414  1.00  0.00    -0.353 N 
HETATM    8  C   UNL     1       8.217  28.653  57.521  1.00  0.00     0.249 C 
HETATM    9  O   UNL     1       9.128  28.006  57.011  1.00  0.00    -0.271 OA
HETATM   10  C   UNL     1       5.219  31.554  58.809  1.00  0.00     0.035 C 
HETATM   11  C   UNL     1       5.801  32.873  59.316  1.00  0.00     0.002 C 
HETATM   12  C   UNL     1       6.999  32.648  60.238  1.00  0.00     0.002 C 
HETATM   13  C   UNL     1       8.071  31.770  59.592  1.00  0.00     0.027 C 
HETATM   14  H   UNL     1       9.484  29.746  58.663  1.00  0.00     0.163 HD
ENDROOT
BRANCH   1  15
HETATM   15  C   UNL     1       6.566  28.069  55.702  1.00  0.00     0.146 C 
BRANCH  15  16
HETATM   16  C   UNL     1       6.497  26.574  55.527  1.00  0.00     0.224 C 
HETATM   17  N   UNL     1       7.636  26.005  55.013  1.00  0.00    -0.327 N 
HETATM   18  H   UNL     1       8.477  26.575  54.993  1.00  0.00     0.169 HD
HETATM   19  O   UNL     1       5.412  26.033  55.746  1.00  0.00    -0.273 OA
BRANCH  17  20
HETATM   20  C   UNL     1       7.798  24.681  54.532  1.00  0.00     0.040 A 
HETATM   21  C   UNL     1       8.376  23.713  55.382  1.00  0.00    -0.035 A 
HETATM   22  C   UNL     1       8.573  22.402  54.905  1.00  0.00     0.015 A 
HETATM   23  C   UNL     1       8.782  24.016  56.801  1.00  0.00     0.050 C 
HETATM   24  C   UNL     1       8.220  22.041  53.602  1.00  0.00    -0.061 A 
HETATM   25  C   UNL     1       8.403  20.634  53.114  1.00  0.00     0.048 C 
HETATM   26  C   UNL     1       7.641  23.002  52.774  1.00  0.00     0.009 A 
HETATM   27  C   UNL     1       7.434  24.306  53.233  1.00  0.00     0.030 A 
ENDBRANCH  17  20
ENDBRANCH  15  16
ENDBRANCH   1  15
TORSDOF 3
ENDMDL
MODEL 8
REMARK VINA RESULT:      -8.7      2.233      3.384
REMARK  3 active torsions:
REMARK  status: ('A' for Active; 'I' for Inactive)
REMARK    1  A    between atoms: C_6  and  N_7 
REMARK       I    between atoms: N_7  and  C_8 
REMARK    2  A    between atoms: C_8  and  C_9 
REMARK    3  A    between atoms: C_9  and  C_10 
ROOT
HETATM    1  C   UNL     1       5.002  30.042  56.073  1.00  0.00     0.286 C 
HETATM    2  N   UNL     1       6.399  29.673  55.547  1.00  0.00    -0.056 N 
HETATM    3  H   UNL     1       6.316  28.811  54.974  1.00  0.00     0.278 HD
HETATM    4  H   UNL     1       6.738  30.412  54.918  1.00  0.00     0.278 HD
HETATM    5  C   UNL     1       7.423  29.359  56.608  1.00  0.00     0.209 C 
HETATM    6  C   UNL     1       7.384  30.448  57.698  1.00  0.00     0.115 C 
HETATM    7  N   UNL     1       6.058  30.521  58.288  1.00  0.00    -0.353 N 
HETATM    8  C   UNL     1       4.898  30.350  57.583  1.00  0.00     0.249 C 
HETATM    9  O   UNL     1       3.812  30.454  58.147  1.00  0.00    -0.271 OA
HETATM   10  C   UNL     1       8.799  29.246  55.963  1.00  0.00     0.035 C 
HETATM   11  C   UNL     1       9.861  28.965  57.025  1.00  0.00     0.002 C 
HETATM   12  C   UNL     1       9.836  30.008  58.143  1.00  0.00     0.002 C 
HETATM   13  C   UNL     1       8.447  30.161  58.762  1.00  0.00     0.027 C 
HETATM   14  H   UNL     1       5.939  30.807  59.258  1.00  0.00     0.163 HD
ENDROOT
BRANCH   1  15
HETATM   15  C   UNL     1       3.955  28.998  55.668  1.00  0.00     0.146 C 
BRANCH  15  16
HETATM   16  C   UNL     1       4.619  27.999  54.757  1.00  0.00     0.224 C 
HETATM   17  N   UNL     1       4.924  26.799  55.351  1.00  0.00    -0.327 N 
HETATM   18  H   UNL     1       4.506  26.603  56.256  1.00  0.00     0.169 HD
HETATM   19  O   UNL     1       4.922  28.384  53.628  1.00  0.00    -0.273 OA
BRANCH  17  20
HETATM   20  C   UNL     1       5.738  25.761  54.830  1.00  0.00     0.040 A 
HETATM   21  C   UNL     1       6.807  25.275  55.614  1.00  0.00    -0.035 A 
HETATM   22  C   UNL     1       7.644  24.267  55.094  1.00  0.00     0.015 A 
HETATM   23  C   UNL     1       7.088  25.777  57.006  1.00  0.00     0.050 C 
HETATM   24  C   UNL     1       7.447  23.747  53.813  1.00  0.00    -0.061 A 
HETATM   25  C   UNL     1       8.323  22.650  53.282  1.00  0.00     0.048 C 
HETATM   26  C   UNL     1       6.383  24.227  53.050  1.00  0.00     0.009 A 
HETATM   27  C   UNL     1       5.540  25.223  53.553  1.00  0.00     0.030 A 
ENDBRANCH  17  20
ENDBRANCH  15  16
ENDBRANCH   1  15
TORSDOF 3
ENDMDL
MODEL 9
REMARK VINA RESULT:      -8.7      1.718      8.271
REMARK  3 active torsions:
REMARK  status: ('A' for Active; 'I' for Inactive)
REMARK    1  A    between atoms: C_6  and  N_7 
REMARK       I    between atoms: N_7  and  C_8 
REMARK    2  A    between atoms: C_8  and  C_9 
REMARK    3  A    between atoms: C_9  and  C_10 
ROOT
HETATM    1  C   UNL     1       7.424  27.233  55.726  1.00  0.00     0.286 C 
HETATM    2  N   UNL     1       7.786  25.859  56.312  1.00  0.00    -0.056 N 
HETATM    3  H   UNL     1       8.594  25.979  56.953  1.00  0.00     0.278 HD
HETATM    4  H   UNL     1       7.006  25.510  56.884  1.00  0.00     0.278 HD
HETATM    5  C   UNL     1       8.218  24.824  55.304  1.00  0.00     0.209 C 
HETATM    6  C   UNL     1       7.225  24.809  54.125  1.00  0.00     0.115 C 
HETATM    7  N   UNL     1       7.165  26.121  53.503  1.00  0.00    -0.353 N 
HETATM    8  C   UNL     1       7.242  27.299  54.194  1.00  0.00     0.249 C 
HETATM    9  O   UNL     1       7.156  28.370  53.599  1.00  0.00    -0.271 OA
HETATM   10  C   UNL     1       8.314  23.465  55.987  1.00  0.00     0.035 C 
HETATM   11  C   UNL     1       8.715  22.391  54.975  1.00  0.00     0.002 C 
HETATM   12  C   UNL     1       7.771  22.363  53.773  1.00  0.00     0.002 C 
HETATM   13  C   UNL     1       7.631  23.735  53.113  1.00  0.00     0.027 C 
HETATM   14  H   UNL     1       6.959  26.212  52.509  1.00  0.00     0.163 HD
ENDROOT
BRANCH   1  15
HETATM   15  C   UNL     1       8.400  28.319  56.194  1.00  0.00     0.146 C 
BRANCH  15  16
HETATM   16  C   UNL     1       8.037  28.696  57.607  1.00  0.00     0.224 C 
HETATM   17  N   UNL     1       8.252  30.016  57.919  1.00  0.00    -0.327 N 
HETATM   18  H   UNL     1       8.426  30.658  57.151  1.00  0.00     0.169 HD
HETATM   19  O   UNL     1       7.702  27.783  58.363  1.00  0.00    -0.273 OA
BRANCH  17  20
HETATM   20  C   UNL     1       8.223  30.614  59.205  1.00  0.00     0.040 A 
HETATM   21  C   UNL     1       7.182  31.516  59.513  1.00  0.00    -0.035 A 
HETATM   22  C   UNL     1       7.161  32.144  60.775  1.00  0.00     0.015 A 
HETATM   23  C   UNL     1       6.068  31.832  58.549  1.00  0.00     0.050 C 
HETATM   24  C   UNL     1       8.157  31.901  61.725  1.00  0.00    -0.061 A 
HETATM   25  C   UNL     1       8.107  32.548  63.078  1.00  0.00     0.048 C 
HETATM   26  C   UNL     1       9.175  31.001  61.414  1.00  0.00     0.009 A 
HETATM   27  C   UNL     1       9.208  30.366  60.168  1.00  0.00     0.030 A 
ENDBRANCH  17  20
ENDBRANCH  15  16
ENDBRANCH   1  15
TORSDOF 3
ENDMDL
MODEL 10
REMARK VINA RESULT:      -8.7      5.007      8.192
REMARK  3 active torsions:
REMARK  status: ('A' for Active; 'I' for Inactive)
REMARK    1  A    between atoms: C_6  and  N_7 
REMARK       I    between atoms: N_7  and  C_8 
REMARK    2  A    between atoms: C_8  and  C_9 
REMARK    3  A    between atoms: C_9  and  C_10 
ROOT
HETATM    1  C   UNL     1       6.728  24.477  53.406  1.00  0.00     0.286 C 
HETATM    2  N   UNL     1       7.532  23.260  52.923  1.00  0.00    -0.056 N 
HETATM    3  H   UNL     1       7.052  22.856  52.096  1.00  0.00     0.278 HD
HETATM    4  H   UNL     1       8.461  23.563  52.604  1.00  0.00     0.278 HD
HETATM    5  C   UNL     1       7.648  22.130  53.916  1.00  0.00     0.209 C 
HETATM    6  C   UNL     1       8.049  22.695  55.292  1.00  0.00     0.115 C 
HETATM    7  N   UNL     1       7.064  23.662  55.745  1.00  0.00    -0.353 N 
HETATM    8  C   UNL     1       6.413  24.535  54.917  1.00  0.00     0.249 C 
HETATM    9  O   UNL     1       5.611  25.343  55.379  1.00  0.00    -0.271 OA
HETATM   10  C   UNL     1       8.655  21.108  53.403  1.00  0.00     0.035 C 
HETATM   11  C   UNL     1       8.817  19.971  54.411  1.00  0.00     0.002 C 
HETATM   12  C   UNL     1       9.187  20.493  55.800  1.00  0.00     0.002 C 
HETATM   13  C   UNL     1       8.208  21.554  56.300  1.00  0.00     0.027 C 
HETATM   14  H   UNL     1       6.889  23.795  56.740  1.00  0.00     0.163 HD
ENDROOT
BRANCH   1  15
HETATM   15  C   UNL     1       5.446  24.665  52.587  1.00  0.00     0.146 C 
BRANCH  15  16
HETATM   16  C   UNL     1       5.545  25.980  51.859  1.00  0.00     0.224 C 
HETATM   17  N   UNL     1       4.627  26.146  50.851  1.00  0.00    -0.327 N 
HETATM   18  H   UNL     1       3.848  25.496  50.814  1.00  0.00     0.169 HD
HETATM   19  O   UNL     1       6.491  26.714  52.151  1.00  0.00    -0.273 OA
BRANCH  17  20
HETATM   20  C   UNL     1       4.611  27.158  49.857  1.00  0.00     0.040 A 
HETATM   21  C   UNL     1       4.032  26.871  48.602  1.00  0.00    -0.035 A 
HETATM   22  C   UNL     1       4.040  27.856  47.594  1.00  0.00     0.015 A 
HETATM   23  C   UNL     1       3.383  25.547  48.290  1.00  0.00     0.050 C 
HETATM   24  C   UNL     1       4.620  29.109  47.806  1.00  0.00    -0.061 A 
HETATM   25  C   UNL     1       4.592  30.163  46.739  1.00  0.00     0.048 C 
HETATM   26  C   UNL     1       5.180  29.387  49.053  1.00  0.00     0.009 A 
HETATM   27  C   UNL     1       5.176  28.422  50.065  1.00  0.00     0.030 A 
ENDBRANCH  17  20
ENDBRANCH  15  16
ENDBRANCH   1  15
TORSDOF 3
ENDMDL
