MODEL 1
REMARK VINA RESULT:     -10.2      0.000      0.000
REMARK  1 active torsions:
REMARK  status: ('A' for Active; 'I' for Inactive)
REMARK    1  A    between atoms: C_8  and  C_9 
ROOT
HETATM    1  C   UNL     1       7.243  25.937  57.726  1.00  0.00     0.073 C 
HETATM    2  C   UNL     1       7.475  26.837  56.566  1.00  0.00     0.062 C 
HETATM    3  N   UNL     1       8.434  27.764  56.643  1.00  0.00    -0.178 NA
HETATM    4  N   UNL     1       8.415  28.345  55.441  1.00  0.00    -0.262 N 
HETATM    5  H   UNL     1       9.082  29.085  55.260  1.00  0.00     0.191 HD
HETATM    6  C   UNL     1       7.390  27.919  54.640  1.00  0.00     0.134 C 
HETATM    7  C   UNL     1       6.808  26.850  55.293  1.00  0.00     0.032 C 
HETATM    8  C   UNL     1       5.783  25.853  54.847  1.00  0.00     0.119 C 
HETATM    9  S   UNL     1       4.589  26.265  53.542  1.00  0.00    -0.141 SA
HETATM   10  C   UNL     1       4.674  28.067  53.406  1.00  0.00     0.136 C 
HETATM   11  C   UNL     1       4.253  28.838  54.651  1.00  0.00     0.031 C 
HETATM   12  C   UNL     1       5.970  28.544  52.760  1.00  0.00     0.236 C 
HETATM   13  O   UNL     1       5.965  29.052  51.633  1.00  0.00    -0.272 OA
HETATM   14  N   UNL     1       7.153  28.534  53.439  1.00  0.00    -0.311 N 
HETATM   15  H   UNL     1       7.875  29.091  52.997  1.00  0.00     0.170 HD
ENDROOT
BRANCH   8  16
HETATM   16  C   UNL     1       6.589  24.622  54.433  1.00  0.00    -0.039 A 
HETATM   17  C   UNL     1       6.780  23.532  55.307  1.00  0.00     0.021 A 
HETATM   18  C   UNL     1       7.534  22.408  54.936  1.00  0.00    -0.025 A 
HETATM   19  C   UNL     1       8.114  22.360  53.651  1.00  0.00    -0.026 A 
HETATM   20  C   UNL     1       7.726  21.333  55.820  1.00  0.00     0.012 A 
HETATM   21  C   UNL     1       7.929  23.442  52.776  1.00  0.00     0.013 A 
HETATM   22  C   UNL     1       8.868  21.233  53.281  1.00  0.00     0.012 A 
HETATM   23  C   UNL     1       7.182  24.560  53.162  1.00  0.00     0.009 A 
HETATM   24  C   UNL     1       9.050  20.172  54.170  1.00  0.00     0.001 A 
HETATM   25  C   UNL     1       8.481  20.223  55.439  1.00  0.00     0.001 A 
ENDBRANCH   8  16
TORSDOF 1
ENDMDL
MODEL 2
REMARK VINA RESULT:      -8.3      3.303      6.607
REMARK  1 active torsions:
REMARK  status: ('A' for Active; 'I' for Inactive)
REMARK    1  A    between atoms: C_8  and  C_9 
ROOT
HETATM    1  C   UNL     1       4.192  29.489  56.416  1.00  0.00     0.073 C 
HETATM    2  C   UNL     1       4.898  29.042  55.187  1.00  0.00     0.062 C 
HETATM    3  N   UNL     1       4.576  29.597  54.014  1.00  0.00    -0.178 NA
HETATM    4  N   UNL     1       5.418  29.025  53.149  1.00  0.00    -0.262 N 
HETATM    5  H   UNL     1       5.366  29.308  52.178  1.00  0.00     0.191 HD
HETATM    6  C   UNL     1       6.177  28.026  53.696  1.00  0.00     0.134 C 
HETATM    7  C   UNL     1       5.950  28.071  55.058  1.00  0.00     0.032 C 
HETATM    8  C   UNL     1       6.624  27.376  56.200  1.00  0.00     0.119 C 
HETATM    9  S   UNL     1       7.469  25.787  55.956  1.00  0.00    -0.141 SA
HETATM   10  C   UNL     1       6.861  25.195  54.358  1.00  0.00     0.136 C 
HETATM   11  C   UNL     1       5.365  24.916  54.290  1.00  0.00     0.031 C 
HETATM   12  C   UNL     1       7.421  25.994  53.186  1.00  0.00     0.236 C 
HETATM   13  O   UNL     1       8.227  25.483  52.400  1.00  0.00    -0.272 OA
HETATM   14  N   UNL     1       6.974  27.249  52.898  1.00  0.00    -0.311 N 
HETATM   15  H   UNL     1       7.239  27.569  51.973  1.00  0.00     0.170 HD
ENDROOT
BRANCH   8  16
HETATM   16  C   UNL     1       7.614  28.401  56.755  1.00  0.00    -0.039 A 
HETATM   17  C   UNL     1       7.413  29.026  58.003  1.00  0.00     0.021 A 
HETATM   18  C   UNL     1       8.311  29.980  58.506  1.00  0.00    -0.025 A 
HETATM   19  C   UNL     1       9.450  30.323  57.748  1.00  0.00    -0.026 A 
HETATM   20  C   UNL     1       8.095  30.603  59.747  1.00  0.00     0.012 A 
HETATM   21  C   UNL     1       9.655  29.707  56.504  1.00  0.00     0.013 A 
HETATM   22  C   UNL     1      10.347  31.279  58.254  1.00  0.00     0.012 A 
HETATM   23  C   UNL     1       8.747  28.764  56.010  1.00  0.00     0.009 A 
HETATM   24  C   UNL     1      10.119  31.890  59.489  1.00  0.00     0.001 A 
HETATM   25  C   UNL     1       8.993  31.553  60.233  1.00  0.00     0.001 A 
ENDBRANCH   8  16
TORSDOF 1
ENDMDL
MODEL 3
REMARK VINA RESULT:      -8.0      4.100      6.242
REMARK  1 active torsions:
REMARK  status: ('A' for Active; 'I' for Inactive)
REMARK    1  A    between atoms: C_8  and  C_9 
ROOT
HETATM    1  C   UNL     1       4.328  26.273  47.946  1.00  0.00     0.073 C 
HETATM    2  C   UNL     1       3.322  27.136  48.620  1.00  0.00     0.062 C 
HETATM    3  N   UNL     1       2.022  26.914  48.397  1.00  0.00    -0.178 NA
HETATM    4  N   UNL     1       1.408  27.804  49.181  1.00  0.00    -0.262 N 
HETATM    5  H   UNL     1       0.396  27.811  49.188  1.00  0.00     0.191 HD
HETATM    6  C   UNL     1       2.262  28.679  49.796  1.00  0.00     0.134 C 
HETATM    7  C   UNL     1       3.538  28.214  49.545  1.00  0.00     0.032 C 
HETATM    8  C   UNL     1       4.870  28.618  50.099  1.00  0.00     0.119 C 
HETATM    9  S   UNL     1       5.140  30.294  50.744  1.00  0.00    -0.141 SA
HETATM   10  C   UNL     1       3.745  31.253  50.105  1.00  0.00     0.136 C 
HETATM   11  C   UNL     1       3.672  31.369  48.588  1.00  0.00     0.031 C 
HETATM   12  C   UNL     1       2.429  30.899  50.788  1.00  0.00     0.236 C 
HETATM   13  O   UNL     1       1.870  31.704  51.542  1.00  0.00    -0.272 OA
HETATM   14  N   UNL     1       1.768  29.739  50.508  1.00  0.00    -0.311 N 
HETATM   15  H   UNL     1       0.808  29.735  50.833  1.00  0.00     0.170 HD
ENDROOT
BRANCH   8  16
HETATM   16  C   UNL     1       5.164  27.595  51.196  1.00  0.00    -0.039 A 
HETATM   17  C   UNL     1       6.185  26.632  51.056  1.00  0.00     0.021 A 
HETATM   18  C   UNL     1       6.447  25.679  52.054  1.00  0.00    -0.025 A 
HETATM   19  C   UNL     1       5.673  25.686  53.233  1.00  0.00    -0.026 A 
HETATM   20  C   UNL     1       7.460  24.718  51.898  1.00  0.00     0.012 A 
HETATM   21  C   UNL     1       4.654  26.640  53.378  1.00  0.00     0.013 A 
HETATM   22  C   UNL     1       5.936  24.732  54.231  1.00  0.00     0.012 A 
HETATM   23  C   UNL     1       4.399  27.578  52.372  1.00  0.00     0.009 A 
HETATM   24  C   UNL     1       6.947  23.783  54.062  1.00  0.00     0.001 A 
HETATM   25  C   UNL     1       7.706  23.776  52.896  1.00  0.00     0.001 A 
ENDBRANCH   8  16
TORSDOF 1
ENDMDL
MODEL 4
REMARK VINA RESULT:      -7.8      3.048      4.542
REMARK  1 active torsions:
REMARK  status: ('A' for Active; 'I' for Inactive)
REMARK    1  A    between atoms: C_8  and  C_9 
ROOT
HETATM    1  C   UNL     1       3.638  28.699  53.387  1.00  0.00     0.073 C 
HETATM    2  C   UNL     1       4.406  28.974  52.144  1.00  0.00     0.062 C 
HETATM    3  N   UNL     1       4.971  30.174  51.982  1.00  0.00    -0.178 NA
HETATM    4  N   UNL     1       5.616  30.068  50.817  1.00  0.00    -0.262 N 
HETATM    5  H   UNL     1       6.140  30.870  50.490  1.00  0.00     0.191 HD
HETATM    6  C   UNL     1       5.376  28.892  50.159  1.00  0.00     0.134 C 
HETATM    7  C   UNL     1       4.673  28.094  51.040  1.00  0.00     0.032 C 
HETATM    8  C   UNL     1       4.294  26.646  50.983  1.00  0.00     0.119 C 
HETATM    9  S   UNL     1       4.116  25.792  49.390  1.00  0.00    -0.141 SA
HETATM   10  C   UNL     1       4.013  27.128  48.173  1.00  0.00     0.136 C 
HETATM   11  C   UNL     1       2.810  28.052  48.317  1.00  0.00     0.031 C 
HETATM   12  C   UNL     1       5.347  27.834  47.964  1.00  0.00     0.236 C 
HETATM   13  O   UNL     1       5.967  27.714  46.901  1.00  0.00    -0.272 OA
HETATM   14  N   UNL     1       5.847  28.705  48.886  1.00  0.00    -0.311 N 
HETATM   15  H   UNL     1       6.600  29.282  48.529  1.00  0.00     0.170 HD
ENDROOT
BRANCH   8  16
HETATM   16  C   UNL     1       5.347  25.931  51.830  1.00  0.00    -0.039 A 
HETATM   17  C   UNL     1       5.138  25.659  53.198  1.00  0.00     0.021 A 
HETATM   18  C   UNL     1       6.110  25.019  53.983  1.00  0.00    -0.025 A 
HETATM   19  C   UNL     1       7.329  24.630  53.389  1.00  0.00    -0.026 A 
HETATM   20  C   UNL     1       5.894  24.762  55.347  1.00  0.00     0.012 A 
HETATM   21  C   UNL     1       7.545  24.900  52.029  1.00  0.00     0.013 A 
HETATM   22  C   UNL     1       8.301  23.989  54.177  1.00  0.00     0.012 A 
HETATM   23  C   UNL     1       6.571  25.547  51.261  1.00  0.00     0.009 A 
HETATM   24  C   UNL     1       8.071  23.741  55.532  1.00  0.00     0.001 A 
HETATM   25  C   UNL     1       6.870  24.128  56.116  1.00  0.00     0.001 A 
ENDBRANCH   8  16
TORSDOF 1
ENDMDL
MODEL 5
REMARK VINA RESULT:      -7.4      6.248      9.264
REMARK  1 active torsions:
REMARK  status: ('A' for Active; 'I' for Inactive)
REMARK    1  A    between atoms: C_8  and  C_9 
ROOT
HETATM    1  C   UNL     1       7.619  29.466  57.681  1.00  0.00     0.073 C 
HETATM    2  C   UNL     1       6.162  29.487  57.387  1.00  0.00     0.062 C 
HETATM    3  N   UNL     1       5.504  28.328  57.275  1.00  0.00    -0.178 NA
HETATM    4  N   UNL     1       4.238  28.699  57.072  1.00  0.00    -0.262 N 
HETATM    5  H   UNL     1       3.540  27.971  56.971  1.00  0.00     0.191 HD
HETATM    6  C   UNL     1       4.076  30.049  56.915  1.00  0.00     0.134 C 
HETATM    7  C   UNL     1       5.295  30.621  57.221  1.00  0.00     0.032 C 
HETATM    8  C   UNL     1       5.699  32.050  57.420  1.00  0.00     0.119 C 
HETATM    9  S   UNL     1       4.775  33.398  56.630  1.00  0.00    -0.141 SA
HETATM   10  C   UNL     1       3.785  32.579  55.356  1.00  0.00     0.136 C 
HETATM   11  C   UNL     1       4.579  31.884  54.257  1.00  0.00     0.031 C 
HETATM   12  C   UNL     1       2.640  31.760  55.941  1.00  0.00     0.236 C 
HETATM   13  O   UNL     1       1.465  32.114  55.787  1.00  0.00    -0.272 OA
HETATM   14  N   UNL     1       2.859  30.560  56.550  1.00  0.00    -0.311 N 
HETATM   15  H   UNL     1       2.015  30.011  56.674  1.00  0.00     0.170 HD
ENDROOT
BRANCH   8  16
HETATM   16  C   UNL     1       5.699  32.249  58.936  1.00  0.00    -0.039 A 
HETATM   17  C   UNL     1       6.894  32.243  59.685  1.00  0.00     0.021 A 
HETATM   18  C   UNL     1       6.895  32.408  61.079  1.00  0.00    -0.025 A 
HETATM   19  C   UNL     1       5.669  32.591  61.753  1.00  0.00    -0.026 A 
HETATM   20  C   UNL     1       8.091  32.390  61.816  1.00  0.00     0.012 A 
HETATM   21  C   UNL     1       4.476  32.595  61.014  1.00  0.00     0.013 A 
HETATM   22  C   UNL     1       5.673  32.756  63.149  1.00  0.00     0.012 A 
HETATM   23  C   UNL     1       4.489  32.421  59.626  1.00  0.00     0.009 A 
HETATM   24  C   UNL     1       6.870  32.736  63.867  1.00  0.00     0.001 A 
HETATM   25  C   UNL     1       8.077  32.552  63.201  1.00  0.00     0.001 A 
ENDBRANCH   8  16
TORSDOF 1
ENDMDL
MODEL 6
REMARK VINA RESULT:      -7.3      8.520     11.441
REMARK  1 active torsions:
REMARK  status: ('A' for Active; 'I' for Inactive)
REMARK    1  A    between atoms: C_8  and  C_9 
ROOT
HETATM    1  C   UNL     1       1.109  35.861  58.130  1.00  0.00     0.073 C 
HETATM    2  C   UNL     1       0.971  35.314  59.506  1.00  0.00     0.062 C 
HETATM    3  N   UNL     1      -0.252  35.154  60.022  1.00  0.00    -0.178 NA
HETATM    4  N   UNL     1      -0.024  34.603  61.216  1.00  0.00    -0.262 N 
HETATM    5  H   UNL     1      -0.824  34.374  61.794  1.00  0.00     0.191 HD
HETATM    6  C   UNL     1       1.303  34.527  61.545  1.00  0.00     0.134 C 
HETATM    7  C   UNL     1       2.002  34.882  60.408  1.00  0.00     0.032 C 
HETATM    8  C   UNL     1       3.461  34.808  60.076  1.00  0.00     0.119 C 
HETATM    9  S   UNL     1       4.717  34.846  61.387  1.00  0.00    -0.141 SA
HETATM   10  C   UNL     1       3.829  35.446  62.845  1.00  0.00     0.136 C 
HETATM   11  C   UNL     1       3.264  36.856  62.732  1.00  0.00     0.031 C 
HETATM   12  C   UNL     1       2.866  34.409  63.411  1.00  0.00     0.236 C 
HETATM   13  O   UNL     1       3.086  33.868  64.501  1.00  0.00    -0.272 OA
HETATM   14  N   UNL     1       1.681  34.125  62.798  1.00  0.00    -0.311 N 
HETATM   15  H   UNL     1       1.035  33.613  63.389  1.00  0.00     0.170 HD
ENDROOT
BRANCH   8  16
HETATM   16  C   UNL     1       3.612  33.524  59.260  1.00  0.00    -0.039 A 
HETATM   17  C   UNL     1       3.945  33.551  57.890  1.00  0.00     0.021 A 
HETATM   18  C   UNL     1       4.067  32.375  57.134  1.00  0.00    -0.025 A 
HETATM   19  C   UNL     1       3.858  31.128  57.760  1.00  0.00    -0.026 A 
HETATM   20  C   UNL     1       4.389  32.415  55.767  1.00  0.00     0.012 A 
HETATM   21  C   UNL     1       3.525  31.094  59.123  1.00  0.00     0.013 A 
HETATM   22  C   UNL     1       3.982  29.951  57.001  1.00  0.00     0.012 A 
HETATM   23  C   UNL     1       3.398  32.275  59.862  1.00  0.00     0.009 A 
HETATM   24  C   UNL     1       4.302  30.008  55.643  1.00  0.00     0.001 A 
HETATM   25  C   UNL     1       4.504  31.239  55.027  1.00  0.00     0.001 A 
ENDBRANCH   8  16
TORSDOF 1
ENDMDL
MODEL 7
REMARK VINA RESULT:      -7.3      9.518     11.547
REMARK  1 active torsions:
REMARK  status: ('A' for Active; 'I' for Inactive)
REMARK    1  A    between atoms: C_8  and  C_9 
ROOT
HETATM    1  C   UNL     1       5.532  36.423  64.190  1.00  0.00     0.073 C 
HETATM    2  C   UNL     1       5.076  36.467  62.775  1.00  0.00     0.062 C 
HETATM    3  N   UNL     1       5.187  37.610  62.092  1.00  0.00    -0.178 NA
HETATM    4  N   UNL     1       4.751  37.294  60.869  1.00  0.00    -0.262 N 
HETATM    5  H   UNL     1       4.758  38.018  60.161  1.00  0.00     0.191 HD
HETATM    6  C   UNL     1       4.238  36.028  60.776  1.00  0.00     0.134 C 
HETATM    7  C   UNL     1       4.527  35.406  61.975  1.00  0.00     0.032 C 
HETATM    8  C   UNL     1       4.403  33.978  62.408  1.00  0.00     0.119 C 
HETATM    9  S   UNL     1       3.195  32.870  61.626  1.00  0.00    -0.141 SA
HETATM   10  C   UNL     1       2.064  33.981  60.753  1.00  0.00     0.136 C 
HETATM   11  C   UNL     1       1.278  34.941  61.636  1.00  0.00     0.031 C 
HETATM   12  C   UNL     1       2.702  34.614  59.521  1.00  0.00     0.236 C 
HETATM   13  O   UNL     1       2.328  34.302  58.384  1.00  0.00    -0.272 OA
HETATM   14  N   UNL     1       3.617  35.619  59.626  1.00  0.00    -0.311 N 
HETATM   15  H   UNL     1       3.778  36.111  58.755  1.00  0.00     0.170 HD
ENDROOT
BRANCH   8  16
HETATM   16  C   UNL     1       5.808  33.396  62.248  1.00  0.00    -0.039 A 
HETATM   17  C   UNL     1       6.336  33.071  60.981  1.00  0.00     0.021 A 
HETATM   18  C   UNL     1       7.619  32.521  60.833  1.00  0.00    -0.025 A 
HETATM   19  C   UNL     1       8.406  32.289  61.980  1.00  0.00    -0.026 A 
HETATM   20  C   UNL     1       8.130  32.192  59.566  1.00  0.00     0.012 A 
HETATM   21  C   UNL     1       7.886  32.608  63.244  1.00  0.00     0.013 A 
HETATM   22  C   UNL     1       9.691  31.738  61.829  1.00  0.00     0.012 A 
HETATM   23  C   UNL     1       6.603  33.148  63.377  1.00  0.00     0.009 A 
HETATM   24  C   UNL     1      10.185  31.416  60.563  1.00  0.00     0.001 A 
HETATM   25  C   UNL     1       9.405  31.642  59.434  1.00  0.00     0.001 A 
ENDBRANCH   8  16
TORSDOF 1
ENDMDL
MODEL 8
REMARK VINA RESULT:      -7.3     15.370     17.364
REMARK  1 active torsions:
REMARK  status: ('A' for Active; 'I' for Inactive)
REMARK    1  A    between atoms: C_8  and  C_9 
ROOT
HETATM    1  C   UNL     1      11.571  10.912  55.610  1.00  0.00     0.073 C 
HETATM    2  C   UNL     1      12.293  11.438  54.422  1.00  0.00     0.062 C 
HETATM    3  N   UNL     1      12.063  12.693  54.024  1.00  0.00    -0.178 NA
HETATM    4  N   UNL     1      12.896  12.860  52.994  1.00  0.00    -0.262 N 
HETATM    5  H   UNL     1      12.906  13.761  52.532  1.00  0.00     0.191 HD
HETATM    6  C   UNL     1      13.555  11.717  52.628  1.00  0.00     0.134 C 
HETATM    7  C   UNL     1      13.275  10.781  53.604  1.00  0.00     0.032 C 
HETATM    8  C   UNL     1      13.847   9.423  53.869  1.00  0.00     0.119 C 
HETATM    9  S   UNL     1      14.583   8.443  52.529  1.00  0.00    -0.141 SA
HETATM   10  C   UNL     1      14.000   9.244  51.014  1.00  0.00     0.136 C 
HETATM   11  C   UNL     1      12.492   9.223  50.802  1.00  0.00     0.031 C 
HETATM   12  C   UNL     1      14.667  10.594  50.773  1.00  0.00     0.236 C 
HETATM   13  O   UNL     1      15.465  10.748  49.841  1.00  0.00    -0.272 OA
HETATM   14  N   UNL     1      14.326  11.699  51.495  1.00  0.00    -0.311 N 
HETATM   15  H   UNL     1      14.653  12.566  51.084  1.00  0.00     0.170 HD
ENDROOT
BRANCH   8  16
HETATM   16  C   UNL     1      14.886   9.643  54.970  1.00  0.00    -0.039 A 
HETATM   17  C   UNL     1      14.816   8.962  56.202  1.00  0.00     0.021 A 
HETATM   18  C   UNL     1      15.758   9.175  57.221  1.00  0.00    -0.025 A 
HETATM   19  C   UNL     1      16.808  10.092  57.008  1.00  0.00    -0.026 A 
HETATM   20  C   UNL     1      15.672   8.497  58.449  1.00  0.00     0.012 A 
HETATM   21  C   UNL     1      16.883  10.776  55.785  1.00  0.00     0.013 A 
HETATM   22  C   UNL     1      17.750  10.304  58.029  1.00  0.00     0.012 A 
HETATM   23  C   UNL     1      15.932  10.559  54.781  1.00  0.00     0.009 A 
HETATM   24  C   UNL     1      17.651   9.623  59.244  1.00  0.00     0.001 A 
HETATM   25  C   UNL     1      16.613   8.722  59.454  1.00  0.00     0.001 A 
ENDBRANCH   8  16
TORSDOF 1
ENDMDL
MODEL 9
REMARK VINA RESULT:      -7.2     13.510     15.503
REMARK  1 active torsions:
REMARK  status: ('A' for Active; 'I' for Inactive)
REMARK    1  A    between atoms: C_8  and  C_9 
ROOT
HETATM    1  C   UNL     1       2.003  34.236  62.703  1.00  0.00     0.073 C 
HETATM    2  C   UNL     1       3.268  33.785  63.341  1.00  0.00     0.062 C 
HETATM    3  N   UNL     1       3.774  32.593  63.010  1.00  0.00    -0.178 NA
HETATM    4  N   UNL     1       4.914  32.527  63.703  1.00  0.00    -0.262 N 
HETATM    5  H   UNL     1       5.487  31.699  63.596  1.00  0.00     0.191 HD
HETATM    6  C   UNL     1       5.093  33.571  64.570  1.00  0.00     0.134 C 
HETATM    7  C   UNL     1       4.091  34.480  64.292  1.00  0.00     0.032 C 
HETATM    8  C   UNL     1       3.869  35.886  64.758  1.00  0.00     0.119 C 
HETATM    9  S   UNL     1       4.545  36.460  66.343  1.00  0.00    -0.141 SA
HETATM   10  C   UNL     1       4.983  34.940  67.222  1.00  0.00     0.136 C 
HETATM   11  C   UNL     1       3.818  34.013  67.547  1.00  0.00     0.031 C 
HETATM   12  C   UNL     1       6.207  34.252  66.628  1.00  0.00     0.236 C 
HETATM   13  O   UNL     1       7.276  34.216  67.249  1.00  0.00    -0.272 OA
HETATM   14  N   UNL     1       6.139  33.561  65.455  1.00  0.00    -0.311 N 
HETATM   15  H   UNL     1       6.938  32.958  65.296  1.00  0.00     0.170 HD
ENDROOT
BRANCH   8  16
HETATM   16  C   UNL     1       4.404  36.764  63.626  1.00  0.00    -0.039 A 
HETATM   17  C   UNL     1       3.543  37.371  62.689  1.00  0.00     0.021 A 
HETATM   18  C   UNL     1       4.033  38.163  61.639  1.00  0.00    -0.025 A 
HETATM   19  C   UNL     1       5.424  38.364  61.517  1.00  0.00    -0.026 A 
HETATM   20  C   UNL     1       3.166  38.756  60.705  1.00  0.00     0.012 A 
HETATM   21  C   UNL     1       6.286  37.760  62.445  1.00  0.00     0.013 A 
HETATM   22  C   UNL     1       5.912  39.157  60.464  1.00  0.00     0.012 A 
HETATM   23  C   UNL     1       5.785  36.966  63.482  1.00  0.00     0.009 A 
HETATM   24  C   UNL     1       5.038  39.739  59.544  1.00  0.00     0.001 A 
HETATM   25  C   UNL     1       3.667  39.537  59.664  1.00  0.00     0.001 A 
ENDBRANCH   8  16
TORSDOF 1
ENDMDL
