MODEL 1
REMARK VINA RESULT:      -9.2      0.000      0.000
REMARK  3 active torsions:
REMARK  status: ('A' for Active; 'I' for Inactive)
REMARK    1  A    between atoms: C_3  and  N_4 
REMARK       I    between atoms: N_4  and  C_5 
REMARK    2  A    between atoms: C_5  and  C_6 
REMARK    3  A    between atoms: C_6  and  C_7 
ROOT
HETATM    1  C   UNL     1       7.816  25.552  55.719  1.00  0.00     0.286 C 
HETATM    2  N   UNL     1       8.009  24.551  54.573  1.00  0.00    -0.056 N 
HETATM    3  H   UNL     1       7.378  24.815  53.792  1.00  0.00     0.278 HD
HETATM    4  H   UNL     1       8.969  24.632  54.214  1.00  0.00     0.278 HD
HETATM    5  C   UNL     1       7.708  23.116  54.926  1.00  0.00     0.209 C 
HETATM    6  C   UNL     1       8.453  22.734  56.219  1.00  0.00     0.115 C 
HETATM    7  N   UNL     1       8.133  23.647  57.303  1.00  0.00    -0.353 N 
HETATM    8  C   UNL     1       8.061  25.004  57.135  1.00  0.00     0.249 C 
HETATM    9  O   UNL     1       8.149  25.748  58.106  1.00  0.00    -0.271 OA
HETATM   10  C   UNL     1       8.112  22.208  53.769  1.00  0.00     0.035 C 
HETATM   11  C   UNL     1       7.820  20.749  54.121  1.00  0.00     0.002 C 
HETATM   12  C   UNL     1       8.464  20.331  55.445  1.00  0.00     0.002 C 
HETATM   13  C   UNL     1       8.125  21.287  56.589  1.00  0.00     0.027 C 
HETATM   14  H   UNL     1       8.367  23.375  58.258  1.00  0.00     0.163 HD
ENDROOT
BRANCH   1  15
HETATM   15  C   UNL     1       6.486  26.306  55.635  1.00  0.00     0.146 C 
BRANCH  15  16
HETATM   16  C   UNL     1       6.588  27.508  54.748  1.00  0.00     0.224 C 
HETATM   17  N   UNL     1       7.299  28.624  55.006  1.00  0.00    -0.325 N 
HETATM   18  H   UNL     1       7.192  29.305  54.252  1.00  0.00     0.169 HD
HETATM   19  O   UNL     1       5.846  27.515  53.752  1.00  0.00    -0.273 OA
BRANCH  17  20
HETATM   20  C   UNL     1       8.150  29.092  56.029  1.00  0.00     0.073 A 
HETATM   21  C   UNL     1       7.829  29.299  57.366  1.00  0.00     0.033 A 
HETATM   22  C   UNL     1       8.793  29.791  58.260  1.00  0.00     0.002 A 
HETATM   23  C   UNL     1      10.090  30.073  57.833  1.00  0.00     0.003 A 
HETATM   24  C   UNL     1      10.431  29.866  56.503  1.00  0.00     0.044 A 
HETATM   25  C   UNL     1       9.467  29.383  55.624  1.00  0.00     0.143 A 
HETATM   26  F   UNL     1       9.803  29.204  54.336  1.00  0.00    -0.204 F 
ENDBRANCH  17  20
ENDBRANCH  15  16
ENDBRANCH   1  15
TORSDOF 3
ENDMDL
MODEL 2
REMARK VINA RESULT:      -8.8      2.901      4.340
REMARK  3 active torsions:
REMARK  status: ('A' for Active; 'I' for Inactive)
REMARK    1  A    between atoms: C_3  and  N_4 
REMARK       I    between atoms: N_4  and  C_5 
REMARK    2  A    between atoms: C_5  and  C_6 
REMARK    3  A    between atoms: C_6  and  C_7 
ROOT
HETATM    1  C   UNL     1       8.095  25.449  55.875  1.00  0.00     0.286 C 
HETATM    2  N   UNL     1       8.203  24.624  54.587  1.00  0.00    -0.056 N 
HETATM    3  H   UNL     1       7.604  25.062  53.861  1.00  0.00     0.278 HD
HETATM    4  H   UNL     1       9.168  24.672  54.237  1.00  0.00     0.278 HD
HETATM    5  C   UNL     1       7.770  23.186  54.715  1.00  0.00     0.209 C 
HETATM    6  C   UNL     1       8.468  22.541  55.927  1.00  0.00     0.115 C 
HETATM    7  N   UNL     1       8.225  23.301  57.143  1.00  0.00    -0.353 N 
HETATM    8  C   UNL     1       8.280  24.668  57.187  1.00  0.00     0.249 C 
HETATM    9  O   UNL     1       8.429  25.241  58.261  1.00  0.00    -0.271 OA
HETATM   10  C   UNL     1       8.096  22.435  53.429  1.00  0.00     0.035 C 
HETATM   11  C   UNL     1       7.669  20.971  53.553  1.00  0.00     0.002 C 
HETATM   12  C   UNL     1       8.264  20.297  54.791  1.00  0.00     0.002 C 
HETATM   13  C   UNL     1       8.006  21.090  56.072  1.00  0.00     0.027 C 
HETATM   14  H   UNL     1       8.427  22.864  58.042  1.00  0.00     0.163 HD
ENDROOT
BRANCH   1  15
HETATM   15  C   UNL     1       6.841  26.325  55.919  1.00  0.00     0.146 C 
BRANCH  15  16
HETATM   16  C   UNL     1       5.593  25.515  55.752  1.00  0.00     0.224 C 
HETATM   17  N   UNL     1       4.863  25.409  54.623  1.00  0.00    -0.325 N 
HETATM   18  H   UNL     1       4.049  24.809  54.773  1.00  0.00     0.169 HD
HETATM   19  O   UNL     1       5.135  25.002  56.786  1.00  0.00    -0.273 OA
BRANCH  17  20
HETATM   20  C   UNL     1       4.929  25.898  53.302  1.00  0.00     0.073 A 
HETATM   21  C   UNL     1       5.383  25.224  52.175  1.00  0.00     0.033 A 
HETATM   22  C   UNL     1       5.403  25.863  50.925  1.00  0.00     0.002 A 
HETATM   23  C   UNL     1       4.963  27.178  50.785  1.00  0.00     0.003 A 
HETATM   24  C   UNL     1       4.500  27.866  51.899  1.00  0.00     0.044 A 
HETATM   25  C   UNL     1       4.488  27.224  53.133  1.00  0.00     0.143 A 
HETATM   26  F   UNL     1       4.055  27.905  54.208  1.00  0.00    -0.204 F 
ENDBRANCH  17  20
ENDBRANCH  15  16
ENDBRANCH   1  15
TORSDOF 3
ENDMDL
MODEL 3
REMARK VINA RESULT:      -8.8      2.148      6.940
REMARK  3 active torsions:
REMARK  status: ('A' for Active; 'I' for Inactive)
REMARK    1  A    between atoms: C_3  and  N_4 
REMARK       I    between atoms: N_4  and  C_5 
REMARK    2  A    between atoms: C_5  and  C_6 
REMARK    3  A    between atoms: C_6  and  C_7 
ROOT
HETATM    1  C   UNL     1       7.142  27.613  55.786  1.00  0.00     0.286 C 
HETATM    2  N   UNL     1       8.443  28.367  55.486  1.00  0.00    -0.056 N 
HETATM    3  H   UNL     1       9.102  27.718  55.015  1.00  0.00     0.278 HD
HETATM    4  H   UNL     1       8.246  29.121  54.814  1.00  0.00     0.278 HD
HETATM    5  C   UNL     1       9.149  28.923  56.695  1.00  0.00     0.209 C 
HETATM    6  C   UNL     1       8.151  29.721  57.556  1.00  0.00     0.115 C 
HETATM    7  N   UNL     1       6.998  28.912  57.914  1.00  0.00    -0.353 N 
HETATM    8  C   UNL     1       6.362  28.089  57.023  1.00  0.00     0.249 C 
HETATM    9  O   UNL     1       5.215  27.716  57.244  1.00  0.00    -0.271 OA
HETATM   10  C   UNL     1      10.315  29.799  56.251  1.00  0.00     0.035 C 
HETATM   11  C   UNL     1      11.033  30.376  57.473  1.00  0.00     0.002 C 
HETATM   12  C   UNL     1      10.076  31.110  58.414  1.00  0.00     0.002 C 
HETATM   13  C   UNL     1       8.864  30.261  58.797  1.00  0.00     0.027 C 
HETATM   14  H   UNL     1       6.387  29.236  58.664  1.00  0.00     0.163 HD
ENDROOT
BRANCH   1  15
HETATM   15  C   UNL     1       7.322  26.092  55.791  1.00  0.00     0.146 C 
BRANCH  15  16
HETATM   16  C   UNL     1       7.525  25.555  54.409  1.00  0.00     0.224 C 
HETATM   17  N   UNL     1       7.790  24.271  54.090  1.00  0.00    -0.325 N 
HETATM   18  H   UNL     1       7.900  24.165  53.079  1.00  0.00     0.169 HD
HETATM   19  O   UNL     1       7.574  26.397  53.498  1.00  0.00    -0.273 OA
BRANCH  17  20
HETATM   20  C   UNL     1       7.946  23.049  54.776  1.00  0.00     0.073 A 
HETATM   21  C   UNL     1       8.234  22.868  56.123  1.00  0.00     0.033 A 
HETATM   22  C   UNL     1       8.378  21.575  56.651  1.00  0.00     0.002 A 
HETATM   23  C   UNL     1       8.227  20.449  55.843  1.00  0.00     0.003 A 
HETATM   24  C   UNL     1       7.932  20.610  54.495  1.00  0.00     0.044 A 
HETATM   25  C   UNL     1       7.796  21.896  53.982  1.00  0.00     0.143 A 
HETATM   26  F   UNL     1       7.529  22.040  52.673  1.00  0.00    -0.204 F 
ENDBRANCH  17  20
ENDBRANCH  15  16
ENDBRANCH   1  15
TORSDOF 3
ENDMDL
MODEL 4
REMARK VINA RESULT:      -8.6      2.637      7.287
REMARK  3 active torsions:
REMARK  status: ('A' for Active; 'I' for Inactive)
REMARK    1  A    between atoms: C_3  and  N_4 
REMARK       I    between atoms: N_4  and  C_5 
REMARK    2  A    between atoms: C_5  and  C_6 
REMARK    3  A    between atoms: C_6  and  C_7 
ROOT
HETATM    1  C   UNL     1       6.864  26.062  55.489  1.00  0.00     0.286 C 
HETATM    2  N   UNL     1       7.261  27.479  55.919  1.00  0.00    -0.056 N 
HETATM    3  H   UNL     1       7.748  27.425  56.834  1.00  0.00     0.278 HD
HETATM    4  H   UNL     1       7.944  27.855  55.247  1.00  0.00     0.278 HD
HETATM    5  C   UNL     1       6.112  28.441  56.080  1.00  0.00     0.209 C 
HETATM    6  C   UNL     1       5.222  28.398  54.823  1.00  0.00     0.115 C 
HETATM    7  N   UNL     1       4.773  27.045  54.539  1.00  0.00    -0.353 N 
HETATM    8  C   UNL     1       5.600  25.957  54.619  1.00  0.00     0.249 C 
HETATM    9  O   UNL     1       5.303  24.917  54.040  1.00  0.00    -0.271 OA
HETATM   10  C   UNL     1       6.649  29.846  56.325  1.00  0.00     0.035 C 
HETATM   11  C   UNL     1       5.489  30.832  56.480  1.00  0.00     0.002 C 
HETATM   12  C   UNL     1       4.519  30.775  55.299  1.00  0.00     0.002 C 
HETATM   13  C   UNL     1       4.040  29.354  55.001  1.00  0.00     0.027 C 
HETATM   14  H   UNL     1       4.000  26.912  53.888  1.00  0.00     0.163 HD
ENDROOT
BRANCH   1  15
HETATM   15  C   UNL     1       6.820  25.074  56.658  1.00  0.00     0.146 C 
BRANCH  15  16
HETATM   16  C   UNL     1       8.183  24.552  56.991  1.00  0.00     0.224 C 
HETATM   17  N   UNL     1       8.808  23.524  56.381  1.00  0.00    -0.325 N 
HETATM   18  H   UNL     1       9.722  23.353  56.803  1.00  0.00     0.169 HD
HETATM   19  O   UNL     1       8.720  25.034  58.001  1.00  0.00    -0.273 OA
BRANCH  17  20
HETATM   20  C   UNL     1       8.537  22.637  55.319  1.00  0.00     0.073 A 
HETATM   21  C   UNL     1       8.311  22.959  53.986  1.00  0.00     0.033 A 
HETATM   22  C   UNL     1       8.033  21.952  53.048  1.00  0.00     0.002 A 
HETATM   23  C   UNL     1       7.987  20.611  53.428  1.00  0.00     0.003 A 
HETATM   24  C   UNL     1       8.217  20.269  54.754  1.00  0.00     0.044 A 
HETATM   25  C   UNL     1       8.486  21.276  55.676  1.00  0.00     0.143 A 
HETATM   26  F   UNL     1       8.689  20.935  56.959  1.00  0.00    -0.204 F 
ENDBRANCH  17  20
ENDBRANCH  15  16
ENDBRANCH   1  15
TORSDOF 3
ENDMDL
MODEL 5
REMARK VINA RESULT:      -8.5      1.502      2.369
REMARK  3 active torsions:
REMARK  status: ('A' for Active; 'I' for Inactive)
REMARK    1  A    between atoms: C_3  and  N_4 
REMARK       I    between atoms: N_4  and  C_5 
REMARK    2  A    between atoms: C_5  and  C_6 
REMARK    3  A    between atoms: C_6  and  C_7 
ROOT
HETATM    1  C   UNL     1       6.863  24.891  54.178  1.00  0.00     0.286 C 
HETATM    2  N   UNL     1       6.861  23.762  55.216  1.00  0.00    -0.056 N 
HETATM    3  H   UNL     1       7.057  24.170  56.150  1.00  0.00     0.278 HD
HETATM    4  H   UNL     1       5.918  23.354  55.267  1.00  0.00     0.278 HD
HETATM    5  C   UNL     1       7.881  22.679  54.978  1.00  0.00     0.209 C 
HETATM    6  C   UNL     1       7.783  22.186  53.522  1.00  0.00     0.115 C 
HETATM    7  N   UNL     1       7.917  23.286  52.582  1.00  0.00    -0.353 N 
HETATM    8  C   UNL     1       7.295  24.493  52.757  1.00  0.00     0.249 C 
HETATM    9  O   UNL     1       7.135  25.245  51.802  1.00  0.00    -0.271 OA
HETATM   10  C   UNL     1       7.655  21.536  55.962  1.00  0.00     0.035 C 
HETATM   11  C   UNL     1       8.680  20.426  55.722  1.00  0.00     0.002 C 
HETATM   12  C   UNL     1       8.691  19.952  54.267  1.00  0.00     0.002 C 
HETATM   13  C   UNL     1       8.838  21.106  53.275  1.00  0.00     0.027 C 
HETATM   14  H   UNL     1       8.105  23.072  51.602  1.00  0.00     0.163 HD
ENDROOT
BRANCH   1  15
HETATM   15  C   UNL     1       7.605  26.141  54.658  1.00  0.00     0.146 C 
BRANCH  15  16
HETATM   16  C   UNL     1       6.704  27.336  54.702  1.00  0.00     0.224 C 
HETATM   17  N   UNL     1       6.930  28.473  55.393  1.00  0.00    -0.325 N 
HETATM   18  H   UNL     1       6.157  29.130  55.271  1.00  0.00     0.169 HD
HETATM   19  O   UNL     1       5.599  27.206  54.151  1.00  0.00    -0.273 OA
BRANCH  17  20
HETATM   20  C   UNL     1       7.944  28.990  56.224  1.00  0.00     0.073 A 
HETATM   21  C   UNL     1       7.862  29.264  57.585  1.00  0.00     0.033 A 
HETATM   22  C   UNL     1       8.965  29.800  58.269  1.00  0.00     0.002 A 
HETATM   23  C   UNL     1      10.164  30.059  57.606  1.00  0.00     0.003 A 
HETATM   24  C   UNL     1      10.266  29.786  56.248  1.00  0.00     0.044 A 
HETATM   25  C   UNL     1       9.166  29.259  55.579  1.00  0.00     0.143 A 
HETATM   26  F   UNL     1       9.271  29.016  54.262  1.00  0.00    -0.204 F 
ENDBRANCH  17  20
ENDBRANCH  15  16
ENDBRANCH   1  15
TORSDOF 3
ENDMDL
MODEL 6
REMARK VINA RESULT:      -8.4      2.470      6.655
REMARK  3 active torsions:
REMARK  status: ('A' for Active; 'I' for Inactive)
REMARK    1  A    between atoms: C_3  and  N_4 
REMARK       I    between atoms: N_4  and  C_5 
REMARK    2  A    between atoms: C_5  and  C_6 
REMARK    3  A    between atoms: C_6  and  C_7 
ROOT
HETATM    1  C   UNL     1       6.396  26.488  53.416  1.00  0.00     0.286 C 
HETATM    2  N   UNL     1       7.525  27.074  54.272  1.00  0.00    -0.056 N 
HETATM    3  H   UNL     1       8.281  26.367  54.355  1.00  0.00     0.278 HD
HETATM    4  H   UNL     1       7.934  27.881  53.783  1.00  0.00     0.278 HD
HETATM    5  C   UNL     1       7.125  27.466  55.671  1.00  0.00     0.209 C 
HETATM    6  C   UNL     1       5.862  28.346  55.620  1.00  0.00     0.115 C 
HETATM    7  N   UNL     1       4.785  27.684  54.904  1.00  0.00    -0.353 N 
HETATM    8  C   UNL     1       4.981  27.001  53.733  1.00  0.00     0.249 C 
HETATM    9  O   UNL     1       4.034  26.776  52.988  1.00  0.00    -0.271 OA
HETATM   10  C   UNL     1       8.278  28.197  56.349  1.00  0.00     0.035 C 
HETATM   11  C   UNL     1       7.877  28.608  57.767  1.00  0.00     0.002 C 
HETATM   12  C   UNL     1       6.578  29.415  57.792  1.00  0.00     0.002 C 
HETATM   13  C   UNL     1       5.441  28.719  57.043  1.00  0.00     0.027 C 
HETATM   14  H   UNL     1       3.837  28.048  54.999  1.00  0.00     0.163 HD
ENDROOT
BRANCH   1  15
HETATM   15  C   UNL     1       6.432  24.959  53.346  1.00  0.00     0.146 C 
BRANCH  15  16
HETATM   16  C   UNL     1       7.717  24.462  52.761  1.00  0.00     0.224 C 
HETATM   17  N   UNL     1       8.426  23.400  53.194  1.00  0.00    -0.325 N 
HETATM   18  H   UNL     1       9.274  23.279  52.636  1.00  0.00     0.169 HD
HETATM   19  O   UNL     1       8.227  25.175  51.881  1.00  0.00    -0.273 OA
BRANCH  17  20
HETATM   20  C   UNL     1       8.303  22.419  54.199  1.00  0.00     0.073 A 
HETATM   21  C   UNL     1       7.966  21.080  54.035  1.00  0.00     0.033 A 
HETATM   22  C   UNL     1       7.866  20.231  55.149  1.00  0.00     0.002 A 
HETATM   23  C   UNL     1       8.109  20.706  56.437  1.00  0.00     0.003 A 
HETATM   24  C   UNL     1       8.454  22.039  56.619  1.00  0.00     0.044 A 
HETATM   25  C   UNL     1       8.546  22.872  55.509  1.00  0.00     0.143 A 
HETATM   26  F   UNL     1       8.862  24.164  55.700  1.00  0.00    -0.204 F 
ENDBRANCH  17  20
ENDBRANCH  15  16
ENDBRANCH   1  15
TORSDOF 3
ENDMDL
MODEL 7
REMARK VINA RESULT:      -8.3      4.231      5.784
REMARK  3 active torsions:
REMARK  status: ('A' for Active; 'I' for Inactive)
REMARK    1  A    between atoms: C_3  and  N_4 
REMARK       I    between atoms: N_4  and  C_5 
REMARK    2  A    between atoms: C_5  and  C_6 
REMARK    3  A    between atoms: C_6  and  C_7 
ROOT
HETATM    1  C   UNL     1       7.067  26.172  53.489  1.00  0.00     0.286 C 
HETATM    2  N   UNL     1       7.419  24.859  52.781  1.00  0.00    -0.056 N 
HETATM    3  H   UNL     1       6.748  24.710  52.004  1.00  0.00     0.278 HD
HETATM    4  H   UNL     1       8.349  24.948  52.351  1.00  0.00     0.278 HD
HETATM    5  C   UNL     1       7.371  23.633  53.656  1.00  0.00     0.209 C 
HETATM    6  C   UNL     1       8.179  23.883  54.943  1.00  0.00     0.115 C 
HETATM    7  N   UNL     1       7.714  25.073  55.636  1.00  0.00    -0.353 N 
HETATM    8  C   UNL     1       7.411  26.240  54.986  1.00  0.00     0.249 C 
HETATM    9  O   UNL     1       7.377  27.297  55.607  1.00  0.00    -0.271 OA
HETATM   10  C   UNL     1       7.916  22.433  52.889  1.00  0.00     0.035 C 
HETATM   11  C   UNL     1       7.879  21.185  53.773  1.00  0.00     0.002 C 
HETATM   12  C   UNL     1       8.595  21.398  55.108  1.00  0.00     0.002 C 
HETATM   13  C   UNL     1       8.105  22.647  55.842  1.00  0.00     0.027 C 
HETATM   14  H   UNL     1       7.998  25.218  56.605  1.00  0.00     0.163 HD
ENDROOT
BRANCH   1  15
HETATM   15  C   UNL     1       5.627  26.623  53.227  1.00  0.00     0.146 C 
BRANCH  15  16
HETATM   16  C   UNL     1       4.865  25.609  52.433  1.00  0.00     0.224 C 
HETATM   17  N   UNL     1       4.546  25.703  51.126  1.00  0.00    -0.325 N 
HETATM   18  H   UNL     1       4.010  24.887  50.824  1.00  0.00     0.169 HD
HETATM   19  O   UNL     1       4.384  24.662  53.076  1.00  0.00    -0.273 OA
BRANCH  17  20
HETATM   20  C   UNL     1       4.761  26.619  50.075  1.00  0.00     0.073 A 
HETATM   21  C   UNL     1       5.454  27.822  50.133  1.00  0.00     0.033 A 
HETATM   22  C   UNL     1       5.561  28.635  48.993  1.00  0.00     0.002 A 
HETATM   23  C   UNL     1       4.988  28.253  47.782  1.00  0.00     0.003 A 
HETATM   24  C   UNL     1       4.297  27.050  47.703  1.00  0.00     0.044 A 
HETATM   25  C   UNL     1       4.193  26.254  48.840  1.00  0.00     0.143 A 
HETATM   26  F   UNL     1       3.507  25.102  48.757  1.00  0.00    -0.204 F 
ENDBRANCH  17  20
ENDBRANCH  15  16
ENDBRANCH   1  15
TORSDOF 3
ENDMDL
MODEL 8
REMARK VINA RESULT:      -8.3      2.325      7.314
REMARK  3 active torsions:
REMARK  status: ('A' for Active; 'I' for Inactive)
REMARK    1  A    between atoms: C_3  and  N_4 
REMARK       I    between atoms: N_4  and  C_5 
REMARK    2  A    between atoms: C_5  and  C_6 
REMARK    3  A    between atoms: C_6  and  C_7 
ROOT
HETATM    1  C   UNL     1       6.620  26.806  55.388  1.00  0.00     0.286 C 
HETATM    2  N   UNL     1       7.713  27.399  56.284  1.00  0.00    -0.056 N 
HETATM    3  H   UNL     1       8.144  26.632  56.835  1.00  0.00     0.278 HD
HETATM    4  H   UNL     1       8.459  27.787  55.692  1.00  0.00     0.278 HD
HETATM    5  C   UNL     1       7.237  28.440  57.265  1.00  0.00     0.209 C 
HETATM    6  C   UNL     1       6.395  29.498  56.527  1.00  0.00     0.115 C 
HETATM    7  N   UNL     1       5.298  28.886  55.797  1.00  0.00    -0.353 N 
HETATM    8  C   UNL     1       5.444  27.742  55.059  1.00  0.00     0.249 C 
HETATM    9  O   UNL     1       4.625  27.464  54.190  1.00  0.00    -0.271 OA
HETATM   10  C   UNL     1       8.435  29.077  57.959  1.00  0.00     0.035 C 
HETATM   11  C   UNL     1       7.962  30.143  58.950  1.00  0.00     0.002 C 
HETATM   12  C   UNL     1       7.048  31.179  58.293  1.00  0.00     0.002 C 
HETATM   13  C   UNL     1       5.890  30.539  57.528  1.00  0.00     0.027 C 
HETATM   14  H   UNL     1       4.538  29.480  55.466  1.00  0.00     0.163 HD
ENDROOT
BRANCH   1  15
HETATM   15  C   UNL     1       6.126  25.440  55.873  1.00  0.00     0.146 C 
BRANCH  15  16
HETATM   16  C   UNL     1       7.165  24.734  56.687  1.00  0.00     0.224 C 
HETATM   17  N   UNL     1       7.847  23.631  56.317  1.00  0.00    -0.325 N 
HETATM   18  H   UNL     1       8.487  23.335  57.056  1.00  0.00     0.169 HD
HETATM   19  O   UNL     1       7.311  25.137  57.853  1.00  0.00    -0.273 OA
BRANCH  17  20
HETATM   20  C   UNL     1       7.913  22.791  55.186  1.00  0.00     0.073 A 
HETATM   21  C   UNL     1       7.980  23.175  53.852  1.00  0.00     0.033 A 
HETATM   22  C   UNL     1       8.021  22.208  52.835  1.00  0.00     0.002 A 
HETATM   23  C   UNL     1       8.005  20.847  53.138  1.00  0.00     0.003 A 
HETATM   24  C   UNL     1       7.945  20.444  54.467  1.00  0.00     0.044 A 
HETATM   25  C   UNL     1       7.900  21.412  55.466  1.00  0.00     0.143 A 
HETATM   26  F   UNL     1       7.824  21.010  56.746  1.00  0.00    -0.204 F 
ENDBRANCH  17  20
ENDBRANCH  15  16
ENDBRANCH   1  15
TORSDOF 3
ENDMDL
MODEL 9
REMARK VINA RESULT:      -8.3      3.557      7.089
REMARK  3 active torsions:
REMARK  status: ('A' for Active; 'I' for Inactive)
REMARK    1  A    between atoms: C_3  and  N_4 
REMARK       I    between atoms: N_4  and  C_5 
REMARK    2  A    between atoms: C_5  and  C_6 
REMARK    3  A    between atoms: C_6  and  C_7 
ROOT
HETATM    1  C   UNL     1       5.642  25.709  55.013  1.00  0.00     0.286 C 
HETATM    2  N   UNL     1       4.812  26.651  54.133  1.00  0.00    -0.056 N 
HETATM    3  H   UNL     1       5.196  26.630  53.169  1.00  0.00     0.278 HD
HETATM    4  H   UNL     1       3.850  26.293  54.071  1.00  0.00     0.278 HD
HETATM    5  C   UNL     1       4.800  28.091  54.578  1.00  0.00     0.209 C 
HETATM    6  C   UNL     1       4.448  28.166  56.076  1.00  0.00     0.115 C 
HETATM    7  N   UNL     1       5.350  27.351  56.872  1.00  0.00    -0.353 N 
HETATM    8  C   UNL     1       5.736  26.091  56.499  1.00  0.00     0.249 C 
HETATM    9  O   UNL     1       6.184  25.314  57.336  1.00  0.00    -0.271 OA
HETATM   10  C   UNL     1       3.801  28.880  53.738  1.00  0.00     0.035 C 
HETATM   11  C   UNL     1       3.775  30.341  54.189  1.00  0.00     0.002 C 
HETATM   12  C   UNL     1       3.514  30.480  55.690  1.00  0.00     0.002 C 
HETATM   13  C   UNL     1       4.464  29.627  56.532  1.00  0.00     0.027 C 
HETATM   14  H   UNL     1       5.377  27.494  57.881  1.00  0.00     0.163 HD
ENDROOT
BRANCH   1  15
HETATM   15  C   UNL     1       7.024  25.407  54.425  1.00  0.00     0.146 C 
BRANCH  15  16
HETATM   16  C   UNL     1       6.941  24.447  53.280  1.00  0.00     0.224 C 
HETATM   17  N   UNL     1       7.263  23.138  53.319  1.00  0.00    -0.325 N 
HETATM   18  H   UNL     1       7.134  22.706  52.402  1.00  0.00     0.169 HD
HETATM   19  O   UNL     1       6.669  24.941  52.174  1.00  0.00    -0.273 OA
BRANCH  17  20
HETATM   20  C   UNL     1       7.721  22.217  54.284  1.00  0.00     0.073 A 
HETATM   21  C   UNL     1       7.737  22.379  55.664  1.00  0.00     0.033 A 
HETATM   22  C   UNL     1       8.248  21.366  56.492  1.00  0.00     0.002 A 
HETATM   23  C   UNL     1       8.740  20.179  55.953  1.00  0.00     0.003 A 
HETATM   24  C   UNL     1       8.726  19.997  54.576  1.00  0.00     0.044 A 
HETATM   25  C   UNL     1       8.222  21.008  53.765  1.00  0.00     0.143 A 
HETATM   26  F   UNL     1       8.230  20.829  52.433  1.00  0.00    -0.204 F 
ENDBRANCH  17  20
ENDBRANCH  15  16
ENDBRANCH   1  15
TORSDOF 3
ENDMDL
MODEL 10
REMARK VINA RESULT:      -8.3      3.080      7.014
REMARK  3 active torsions:
REMARK  status: ('A' for Active; 'I' for Inactive)
REMARK    1  A    between atoms: C_3  and  N_4 
REMARK       I    between atoms: N_4  and  C_5 
REMARK    2  A    between atoms: C_5  and  C_6 
REMARK    3  A    between atoms: C_6  and  C_7 
ROOT
HETATM    1  C   UNL     1       6.027  26.542  54.780  1.00  0.00     0.286 C 
HETATM    2  N   UNL     1       5.465  25.985  53.467  1.00  0.00    -0.056 N 
HETATM    3  H   UNL     1       5.901  25.061  53.285  1.00  0.00     0.278 HD
HETATM    4  H   UNL     1       4.457  25.814  53.579  1.00  0.00     0.278 HD
HETATM    5  C   UNL     1       5.712  26.844  52.254  1.00  0.00     0.209 C 
HETATM    6  C   UNL     1       5.282  28.294  52.551  1.00  0.00     0.115 C 
HETATM    7  N   UNL     1       5.945  28.810  53.736  1.00  0.00    -0.353 N 
HETATM    8  C   UNL     1       6.095  28.076  54.882  1.00  0.00     0.249 C 
HETATM    9  O   UNL     1       6.320  28.640  55.947  1.00  0.00    -0.271 OA
HETATM   10  C   UNL     1       4.952  26.278  51.060  1.00  0.00     0.035 C 
HETATM   11  C   UNL     1       5.189  27.150  49.826  1.00  0.00     0.002 C 
HETATM   12  C   UNL     1       4.860  28.622  50.083  1.00  0.00     0.002 C 
HETATM   13  C   UNL     1       5.560  29.170  51.327  1.00  0.00     0.027 C 
HETATM   14  H   UNL     1       5.933  29.816  53.905  1.00  0.00     0.163 HD
ENDROOT
BRANCH   1  15
HETATM   15  C   UNL     1       7.357  25.897  55.181  1.00  0.00     0.146 C 
BRANCH  15  16
HETATM   16  C   UNL     1       7.177  24.898  56.281  1.00  0.00     0.224 C 
HETATM   17  N   UNL     1       7.288  23.559  56.161  1.00  0.00    -0.325 N 
HETATM   18  H   UNL     1       7.104  23.099  57.054  1.00  0.00     0.169 HD
HETATM   19  O   UNL     1       6.767  25.347  57.364  1.00  0.00    -0.273 OA
BRANCH  17  20
HETATM   20  C   UNL     1       7.596  22.638  55.139  1.00  0.00     0.073 A 
HETATM   21  C   UNL     1       7.567  22.858  53.767  1.00  0.00     0.033 A 
HETATM   22  C   UNL     1       7.885  21.822  52.875  1.00  0.00     0.002 A 
HETATM   23  C   UNL     1       8.244  20.558  53.341  1.00  0.00     0.003 A 
HETATM   24  C   UNL     1       8.285  20.321  54.709  1.00  0.00     0.044 A 
HETATM   25  C   UNL     1       7.964  21.354  55.584  1.00  0.00     0.143 A 
HETATM   26  F   UNL     1       7.989  21.108  56.905  1.00  0.00    -0.204 F 
ENDBRANCH  17  20
ENDBRANCH  15  16
ENDBRANCH   1  15
TORSDOF 3
ENDMDL
