MODEL 1
REMARK VINA RESULT:      -9.4      0.000      0.000
REMARK  5 active torsions:
REMARK  status: ('A' for Active; 'I' for Inactive)
REMARK    1  A    between atoms: O_2  and  C_3 
REMARK    2  A    between atoms: C_10  and  C_11 
REMARK    3  A    between atoms: C_11  and  C_12 
REMARK       I    between atoms: C_12  and  N_13 
REMARK    4  A    between atoms: N_13  and  C_14 
REMARK    5  A    between atoms: C_21  and  O_22 
ROOT
HETATM    1  C   UNL     1       6.813  26.938  57.232  1.00  0.00     0.226 C 
HETATM    2  N   UNL     1       6.633  28.285  56.924  1.00  0.00    -0.326 N 
HETATM    3  O   UNL     1       7.569  26.497  58.089  1.00  0.00    -0.273 OA
HETATM    4  H   UNL     1       5.759  28.494  56.459  1.00  0.00     0.169 HD
ENDROOT
BRANCH   1   5
HETATM    5  C   UNL     1       5.937  26.043  56.356  1.00  0.00     0.144 C 
BRANCH   5   6
HETATM    6  C   UNL     1       6.578  25.585  55.083  1.00  0.00    -0.021 A 
HETATM    7  C   UNL     1       7.090  24.280  54.774  1.00  0.00     0.001 A 
HETATM    8  C   UNL     1       7.208  23.070  55.491  1.00  0.00     0.051 A 
HETATM    9  C   UNL     1       7.552  24.311  53.458  1.00  0.00     0.043 A 
HETATM   10  C   UNL     1       7.794  21.947  54.888  1.00  0.00     0.069 A 
HETATM   11  C   UNL     1       8.234  22.015  53.568  1.00  0.00     0.039 A 
HETATM   12  C   UNL     1       8.121  23.200  52.829  1.00  0.00     0.033 A 
HETATM   13  N   UNL     1       7.334  25.582  52.982  1.00  0.00    -0.365 N 
HETATM   14  H   UNL     1       7.578  25.894  52.052  1.00  0.00     0.165 HD
HETATM   15  C   UNL     1       6.740  26.353  53.943  1.00  0.00     0.097 A 
BRANCH  10  16
HETATM   16  O   UNL     1       7.862  20.843  55.696  1.00  0.00    -0.356 OA
HETATM   17  C   UNL     1       9.164  20.339  55.974  1.00  0.00     0.210 C 
ENDBRANCH  10  16
ENDBRANCH   5   6
ENDBRANCH   1   5
BRANCH   2  18
HETATM   18  C   UNL     1       7.265  29.401  57.535  1.00  0.00     0.047 A 
HETATM   19  C   UNL     1       8.656  29.721  57.489  1.00  0.00     0.022 A 
HETATM   20  C   UNL     1       9.139  30.833  58.233  1.00  0.00     0.102 A 
HETATM   21  C   UNL     1       9.618  29.056  56.693  1.00  0.00     0.017 A 
HETATM   22  N   UNL     1      10.451  31.169  58.256  1.00  0.00    -0.257 NA
HETATM   23  C   UNL     1       8.223  31.620  58.951  1.00  0.00     0.097 A 
HETATM   24  C   UNL     1      11.328  30.458  57.526  1.00  0.00     0.117 A 
HETATM   25  C   UNL     1      10.962  29.410  56.719  1.00  0.00     0.020 A 
HETATM   26  C   UNL     1       6.854  31.356  58.910  1.00  0.00     0.041 A 
HETATM   27  C   UNL     1       6.383  30.257  58.207  1.00  0.00     0.033 A 
BRANCH  23  28
HETATM   28  O   UNL     1       8.736  32.709  59.624  1.00  0.00    -0.354 OA
HETATM   29  C   UNL     1       8.569  32.707  61.036  1.00  0.00     0.210 C 
ENDBRANCH  23  28
ENDBRANCH   2  18
TORSDOF 5
ENDMDL
MODEL 2
REMARK VINA RESULT:      -8.8      5.041      8.161
REMARK  5 active torsions:
REMARK  status: ('A' for Active; 'I' for Inactive)
REMARK    1  A    between atoms: O_2  and  C_3 
REMARK    2  A    between atoms: C_10  and  C_11 
REMARK    3  A    between atoms: C_11  and  C_12 
REMARK       I    between atoms: C_12  and  N_13 
REMARK    4  A    between atoms: N_13  and  C_14 
REMARK    5  A    between atoms: C_21  and  O_22 
ROOT
HETATM    1  C   UNL     1       5.829  25.600  51.617  1.00  0.00     0.226 C 
HETATM    2  N   UNL     1       5.782  26.564  50.612  1.00  0.00    -0.326 N 
HETATM    3  O   UNL     1       4.860  25.040  52.117  1.00  0.00    -0.273 OA
HETATM    4  H   UNL     1       6.642  26.665  50.089  1.00  0.00     0.169 HD
ENDROOT
BRANCH   1   5
HETATM    5  C   UNL     1       7.268  25.307  52.043  1.00  0.00     0.144 C 
BRANCH   5   6
HETATM    6  C   UNL     1       7.465  25.124  53.515  1.00  0.00    -0.021 A 
HETATM    7  C   UNL     1       7.884  23.939  54.207  1.00  0.00     0.001 A 
HETATM    8  C   UNL     1       8.196  22.621  53.810  1.00  0.00     0.051 A 
HETATM    9  C   UNL     1       7.969  24.253  55.564  1.00  0.00     0.043 A 
HETATM   10  C   UNL     1       8.562  21.663  54.767  1.00  0.00     0.069 A 
HETATM   11  C   UNL     1       8.646  22.019  56.112  1.00  0.00     0.039 A 
HETATM   12  C   UNL     1       8.351  23.321  56.534  1.00  0.00     0.033 A 
HETATM   13  N   UNL     1       7.617  25.574  55.696  1.00  0.00    -0.365 N 
HETATM   14  H   UNL     1       7.585  26.072  56.576  1.00  0.00     0.165 HD
HETATM   15  C   UNL     1       7.323  26.112  54.474  1.00  0.00     0.097 A 
BRANCH  10  16
HETATM   16  O   UNL     1       8.824  20.421  54.253  1.00  0.00    -0.356 OA
HETATM   17  C   UNL     1       8.516  20.225  52.877  1.00  0.00     0.210 C 
ENDBRANCH  10  16
ENDBRANCH   5   6
ENDBRANCH   1   5
BRANCH   2  18
HETATM   18  C   UNL     1       4.626  27.078  49.965  1.00  0.00     0.047 A 
HETATM   19  C   UNL     1       3.917  28.268  50.308  1.00  0.00     0.022 A 
HETATM   20  C   UNL     1       2.722  28.593  49.609  1.00  0.00     0.102 A 
HETATM   21  C   UNL     1       4.342  29.221  51.263  1.00  0.00     0.017 A 
HETATM   22  N   UNL     1       1.987  29.691  49.909  1.00  0.00    -0.257 NA
HETATM   23  C   UNL     1       2.301  27.759  48.560  1.00  0.00     0.097 A 
HETATM   24  C   UNL     1       2.412  30.527  50.872  1.00  0.00     0.117 A 
HETATM   25  C   UNL     1       3.585  30.348  51.563  1.00  0.00     0.020 A 
HETATM   26  C   UNL     1       3.053  26.652  48.169  1.00  0.00     0.041 A 
HETATM   27  C   UNL     1       4.205  26.318  48.866  1.00  0.00     0.033 A 
BRANCH  23  28
HETATM   28  O   UNL     1       1.158  28.138  47.887  1.00  0.00    -0.354 OA
HETATM   29  C   UNL     1       0.737  27.279  46.836  1.00  0.00     0.210 C 
ENDBRANCH  23  28
ENDBRANCH   2  18
TORSDOF 5
ENDMDL
MODEL 3
REMARK VINA RESULT:      -8.8      4.542      7.169
REMARK  5 active torsions:
REMARK  status: ('A' for Active; 'I' for Inactive)
REMARK    1  A    between atoms: O_2  and  C_3 
REMARK    2  A    between atoms: C_10  and  C_11 
REMARK    3  A    between atoms: C_11  and  C_12 
REMARK       I    between atoms: C_12  and  N_13 
REMARK    4  A    between atoms: N_13  and  C_14 
REMARK    5  A    between atoms: C_21  and  O_22 
ROOT
HETATM    1  C   UNL     1       6.677  24.735  52.487  1.00  0.00     0.226 C 
HETATM    2  N   UNL     1       6.772  25.873  51.690  1.00  0.00    -0.326 N 
HETATM    3  O   UNL     1       5.735  24.453  53.220  1.00  0.00    -0.273 OA
HETATM    4  H   UNL     1       7.419  25.789  50.917  1.00  0.00     0.169 HD
ENDROOT
BRANCH   1   5
HETATM    5  C   UNL     1       7.913  23.848  52.346  1.00  0.00     0.144 C 
BRANCH   5   6
HETATM    6  C   UNL     1       7.929  22.641  53.230  1.00  0.00    -0.021 A 
HETATM    7  C   UNL     1       8.100  22.594  54.654  1.00  0.00     0.001 A 
HETATM    8  C   UNL     1       8.336  23.563  55.653  1.00  0.00     0.051 A 
HETATM    9  C   UNL     1       8.001  21.259  55.045  1.00  0.00     0.043 A 
HETATM   10  C   UNL     1       8.482  23.174  56.992  1.00  0.00     0.069 A 
HETATM   11  C   UNL     1       8.365  21.832  57.345  1.00  0.00     0.039 A 
HETATM   12  C   UNL     1       8.122  20.849  56.376  1.00  0.00     0.033 A 
HETATM   13  N   UNL     1       7.779  20.520  53.908  1.00  0.00    -0.365 N 
HETATM   14  H   UNL     1       7.671  19.514  53.892  1.00  0.00     0.165 HD
HETATM   15  C   UNL     1       7.723  21.337  52.814  1.00  0.00     0.097 A 
BRANCH  10  16
HETATM   16  O   UNL     1       8.722  24.208  57.859  1.00  0.00    -0.356 OA
HETATM   17  C   UNL     1       8.320  25.504  57.428  1.00  0.00     0.210 C 
ENDBRANCH  10  16
ENDBRANCH   5   6
ENDBRANCH   1   5
BRANCH   2  18
HETATM   18  C   UNL     1       5.814  26.914  51.555  1.00  0.00     0.047 A 
HETATM   19  C   UNL     1       4.841  27.046  50.518  1.00  0.00     0.022 A 
HETATM   20  C   UNL     1       4.012  28.201  50.484  1.00  0.00     0.102 A 
HETATM   21  C   UNL     1       4.569  26.071  49.529  1.00  0.00     0.017 A 
HETATM   22  N   UNL     1       3.093  28.400  49.509  1.00  0.00    -0.257 NA
HETATM   23  C   UNL     1       4.137  29.157  51.506  1.00  0.00     0.097 A 
HETATM   24  C   UNL     1       2.925  27.464  48.559  1.00  0.00     0.117 A 
HETATM   25  C   UNL     1       3.621  26.281  48.534  1.00  0.00     0.020 A 
HETATM   26  C   UNL     1       5.023  28.972  52.567  1.00  0.00     0.041 A 
HETATM   27  C   UNL     1       5.851  27.858  52.589  1.00  0.00     0.033 A 
BRANCH  23  28
HETATM   28  O   UNL     1       3.284  30.240  51.449  1.00  0.00    -0.354 OA
HETATM   29  C   UNL     1       3.866  31.509  51.719  1.00  0.00     0.210 C 
ENDBRANCH  23  28
ENDBRANCH   2  18
TORSDOF 5
ENDMDL
MODEL 4
REMARK VINA RESULT:      -8.8      2.950      5.617
REMARK  5 active torsions:
REMARK  status: ('A' for Active; 'I' for Inactive)
REMARK    1  A    between atoms: O_2  and  C_3 
REMARK    2  A    between atoms: C_10  and  C_11 
REMARK    3  A    between atoms: C_11  and  C_12 
REMARK       I    between atoms: C_12  and  N_13 
REMARK    4  A    between atoms: N_13  and  C_14 
REMARK    5  A    between atoms: C_21  and  O_22 
ROOT
HETATM    1  C   UNL     1       8.485  31.120  59.335  1.00  0.00     0.226 C 
HETATM    2  N   UNL     1       7.720  30.863  60.471  1.00  0.00    -0.326 N 
HETATM    3  O   UNL     1       8.939  32.212  59.012  1.00  0.00    -0.273 OA
HETATM    4  H   UNL     1       7.720  29.894  60.764  1.00  0.00     0.169 HD
ENDROOT
BRANCH   1   5
HETATM    5  C   UNL     1       8.700  29.854  58.508  1.00  0.00     0.144 C 
BRANCH   5   6
HETATM    6  C   UNL     1       7.453  29.245  57.948  1.00  0.00    -0.021 A 
HETATM    7  C   UNL     1       7.213  27.867  57.626  1.00  0.00     0.001 A 
HETATM    8  C   UNL     1       7.993  26.692  57.670  1.00  0.00     0.051 A 
HETATM    9  C   UNL     1       5.897  27.765  57.174  1.00  0.00     0.043 A 
HETATM   10  C   UNL     1       7.450  25.468  57.252  1.00  0.00     0.069 A 
HETATM   11  C   UNL     1       6.127  25.405  56.818  1.00  0.00     0.039 A 
HETATM   12  C   UNL     1       5.326  26.553  56.771  1.00  0.00     0.033 A 
HETATM   13  N   UNL     1       5.355  29.027  57.218  1.00  0.00    -0.365 N 
HETATM   14  H   UNL     1       4.408  29.253  56.941  1.00  0.00     0.165 HD
HETATM   15  C   UNL     1       6.274  29.923  57.690  1.00  0.00     0.097 A 
BRANCH  10  16
HETATM   16  O   UNL     1       8.315  24.409  57.331  1.00  0.00    -0.356 OA
HETATM   17  C   UNL     1       8.208  23.425  56.309  1.00  0.00     0.210 C 
ENDBRANCH  10  16
ENDBRANCH   5   6
ENDBRANCH   1   5
BRANCH   2  18
HETATM   18  C   UNL     1       7.328  31.789  61.474  1.00  0.00     0.047 A 
HETATM   19  C   UNL     1       6.256  32.729  61.394  1.00  0.00     0.022 A 
HETATM   20  C   UNL     1       6.055  33.648  62.460  1.00  0.00     0.102 A 
HETATM   21  C   UNL     1       5.303  32.787  60.350  1.00  0.00     0.017 A 
HETATM   22  N   UNL     1       5.076  34.584  62.429  1.00  0.00    -0.257 NA
HETATM   23  C   UNL     1       6.885  33.570  63.590  1.00  0.00     0.097 A 
HETATM   24  C   UNL     1       4.238  34.629  61.378  1.00  0.00     0.117 A 
HETATM   25  C   UNL     1       4.298  33.747  60.328  1.00  0.00     0.020 A 
HETATM   26  C   UNL     1       7.867  32.586  63.701  1.00  0.00     0.041 A 
HETATM   27  C   UNL     1       8.083  31.704  62.652  1.00  0.00     0.033 A 
BRANCH  23  28
HETATM   28  O   UNL     1       6.624  34.457  64.614  1.00  0.00    -0.354 OA
HETATM   29  C   UNL     1       6.628  33.915  65.928  1.00  0.00     0.210 C 
ENDBRANCH  23  28
ENDBRANCH   2  18
TORSDOF 5
ENDMDL
MODEL 5
REMARK VINA RESULT:      -8.8      2.586      3.974
REMARK  5 active torsions:
REMARK  status: ('A' for Active; 'I' for Inactive)
REMARK    1  A    between atoms: O_2  and  C_3 
REMARK    2  A    between atoms: C_10  and  C_11 
REMARK    3  A    between atoms: C_11  and  C_12 
REMARK       I    between atoms: C_12  and  N_13 
REMARK    4  A    between atoms: N_13  and  C_14 
REMARK    5  A    between atoms: C_21  and  O_22 
ROOT
HETATM    1  C   UNL     1       7.565  25.600  57.305  1.00  0.00     0.226 C 
HETATM    2  N   UNL     1       8.033  26.818  56.818  1.00  0.00    -0.326 N 
HETATM    3  O   UNL     1       6.402  25.346  57.596  1.00  0.00    -0.273 OA
HETATM    4  H   UNL     1       8.911  26.759  56.319  1.00  0.00     0.169 HD
ENDROOT
BRANCH   1   5
HETATM    5  C   UNL     1       8.696  24.581  57.442  1.00  0.00     0.144 C 
BRANCH   5   6
HETATM    6  C   UNL     1       8.454  23.273  56.757  1.00  0.00    -0.021 A 
HETATM    7  C   UNL     1       8.255  23.037  55.355  1.00  0.00     0.001 A 
HETATM    8  C   UNL     1       8.178  23.865  54.214  1.00  0.00     0.051 A 
HETATM    9  C   UNL     1       8.111  21.661  55.178  1.00  0.00     0.043 A 
HETATM   10  C   UNL     1       7.945  23.305  52.950  1.00  0.00     0.069 A 
HETATM   11  C   UNL     1       7.818  21.924  52.813  1.00  0.00     0.039 A 
HETATM   12  C   UNL     1       7.898  21.077  53.925  1.00  0.00     0.033 A 
HETATM   13  N   UNL     1       8.217  21.079  56.418  1.00  0.00    -0.365 N 
HETATM   14  H   UNL     1       8.146  20.085  56.592  1.00  0.00     0.165 HD
HETATM   15  C   UNL     1       8.434  22.034  57.373  1.00  0.00     0.097 A 
BRANCH  10  16
HETATM   16  O   UNL     1       7.878  24.217  51.931  1.00  0.00    -0.356 OA
HETATM   17  C   UNL     1       7.097  25.382  52.172  1.00  0.00     0.210 C 
ENDBRANCH  10  16
ENDBRANCH   5   6
ENDBRANCH   1   5
BRANCH   2  18
HETATM   18  C   UNL     1       7.274  27.990  56.553  1.00  0.00     0.047 A 
HETATM   19  C   UNL     1       7.214  29.166  57.359  1.00  0.00     0.022 A 
HETATM   20  C   UNL     1       6.331  30.218  56.992  1.00  0.00     0.102 A 
HETATM   21  C   UNL     1       8.029  29.420  58.488  1.00  0.00     0.017 A 
HETATM   22  N   UNL     1       6.205  31.346  57.732  1.00  0.00    -0.257 NA
HETATM   23  C   UNL     1       5.579  30.093  55.812  1.00  0.00     0.097 A 
HETATM   24  C   UNL     1       6.964  31.501  58.832  1.00  0.00     0.117 A 
HETATM   25  C   UNL     1       7.897  30.582  59.241  1.00  0.00     0.020 A 
HETATM   26  C   UNL     1       5.717  28.982  54.980  1.00  0.00     0.041 A 
HETATM   27  C   UNL     1       6.559  27.942  55.349  1.00  0.00     0.033 A 
BRANCH  23  28
HETATM   28  O   UNL     1       4.767  31.157  55.478  1.00  0.00    -0.354 OA
HETATM   29  C   UNL     1       3.367  30.911  55.516  1.00  0.00     0.210 C 
ENDBRANCH  23  28
ENDBRANCH   2  18
TORSDOF 5
ENDMDL
MODEL 6
REMARK VINA RESULT:      -8.8      5.094      8.221
REMARK  5 active torsions:
REMARK  status: ('A' for Active; 'I' for Inactive)
REMARK    1  A    between atoms: O_2  and  C_3 
REMARK    2  A    between atoms: C_10  and  C_11 
REMARK    3  A    between atoms: C_11  and  C_12 
REMARK       I    between atoms: C_12  and  N_13 
REMARK    4  A    between atoms: N_13  and  C_14 
REMARK    5  A    between atoms: C_21  and  O_22 
ROOT
HETATM    1  C   UNL     1       5.670  25.596  51.802  1.00  0.00     0.226 C 
HETATM    2  N   UNL     1       5.736  26.590  50.828  1.00  0.00    -0.326 N 
HETATM    3  O   UNL     1       4.646  25.190  52.340  1.00  0.00    -0.273 OA
HETATM    4  H   UNL     1       6.573  26.563  50.260  1.00  0.00     0.169 HD
ENDROOT
BRANCH   1   5
HETATM    5  C   UNL     1       7.057  25.050  52.138  1.00  0.00     0.144 C 
BRANCH   5   6
HETATM    6  C   UNL     1       7.330  24.877  53.599  1.00  0.00    -0.021 A 
HETATM    7  C   UNL     1       7.758  23.688  54.281  1.00  0.00     0.001 A 
HETATM    8  C   UNL     1       8.017  22.360  53.882  1.00  0.00     0.051 A 
HETATM    9  C   UNL     1       7.924  24.013  55.627  1.00  0.00     0.043 A 
HETATM   10  C   UNL     1       8.412  21.403  54.828  1.00  0.00     0.069 A 
HETATM   11  C   UNL     1       8.578  21.769  56.162  1.00  0.00     0.039 A 
HETATM   12  C   UNL     1       8.337  23.082  56.585  1.00  0.00     0.033 A 
HETATM   13  N   UNL     1       7.611  25.344  55.764  1.00  0.00    -0.365 N 
HETATM   14  H   UNL     1       7.638  25.851  56.638  1.00  0.00     0.165 HD
HETATM   15  C   UNL     1       7.263  25.877  54.553  1.00  0.00     0.097 A 
BRANCH  10  16
HETATM   16  O   UNL     1       8.617  20.150  54.314  1.00  0.00    -0.356 OA
HETATM   17  C   UNL     1       8.736  20.055  52.899  1.00  0.00     0.210 C 
ENDBRANCH  10  16
ENDBRANCH   5   6
ENDBRANCH   1   5
BRANCH   2  18
HETATM   18  C   UNL     1       4.653  27.314  50.260  1.00  0.00     0.047 A 
HETATM   19  C   UNL     1       3.852  26.915  49.148  1.00  0.00     0.022 A 
HETATM   20  C   UNL     1       2.860  27.804  48.650  1.00  0.00     0.102 A 
HETATM   21  C   UNL     1       3.908  25.650  48.518  1.00  0.00     0.017 A 
HETATM   22  N   UNL     1       2.090  27.498  47.578  1.00  0.00    -0.257 NA
HETATM   23  C   UNL     1       2.659  29.032  49.302  1.00  0.00     0.097 A 
HETATM   24  C   UNL     1       2.234  26.301  46.983  1.00  0.00     0.117 A 
HETATM   25  C   UNL     1       3.111  25.341  47.422  1.00  0.00     0.020 A 
HETATM   26  C   UNL     1       3.381  29.371  50.447  1.00  0.00     0.041 A 
HETATM   27  C   UNL     1       4.367  28.517  50.919  1.00  0.00     0.033 A 
BRANCH  23  28
HETATM   28  O   UNL     1       1.659  29.842  48.805  1.00  0.00    -0.354 OA
HETATM   29  C   UNL     1       1.008  30.683  49.749  1.00  0.00     0.210 C 
ENDBRANCH  23  28
ENDBRANCH   2  18
TORSDOF 5
ENDMDL
MODEL 7
REMARK VINA RESULT:      -8.8      1.715      2.766
REMARK  5 active torsions:
REMARK  status: ('A' for Active; 'I' for Inactive)
REMARK    1  A    between atoms: O_2  and  C_3 
REMARK    2  A    between atoms: C_10  and  C_11 
REMARK    3  A    between atoms: C_11  and  C_12 
REMARK       I    between atoms: C_12  and  N_13 
REMARK    4  A    between atoms: N_13  and  C_14 
REMARK    5  A    between atoms: C_21  and  O_22 
ROOT
HETATM    1  C   UNL     1       6.026  27.656  55.672  1.00  0.00     0.226 C 
HETATM    2  N   UNL     1       6.092  27.960  57.030  1.00  0.00    -0.326 N 
HETATM    3  O   UNL     1       6.431  28.367  54.760  1.00  0.00    -0.273 OA
HETATM    4  H   UNL     1       6.038  27.156  57.641  1.00  0.00     0.169 HD
ENDROOT
BRANCH   1   5
HETATM    5  C   UNL     1       5.370  26.295  55.435  1.00  0.00     0.144 C 
BRANCH   5   6
HETATM    6  C   UNL     1       5.977  25.486  54.332  1.00  0.00    -0.021 A 
HETATM    7  C   UNL     1       6.781  24.303  54.447  1.00  0.00     0.001 A 
HETATM    8  C   UNL     1       7.287  23.554  55.531  1.00  0.00     0.051 A 
HETATM    9  C   UNL     1       7.083  23.874  53.154  1.00  0.00     0.043 A 
HETATM   10  C   UNL     1       8.084  22.424  55.296  1.00  0.00     0.069 A 
HETATM   11  C   UNL     1       8.355  22.021  53.990  1.00  0.00     0.039 A 
HETATM   12  C   UNL     1       7.858  22.739  52.895  1.00  0.00     0.033 A 
HETATM   13  N   UNL     1       6.489  24.757  52.285  1.00  0.00    -0.365 N 
HETATM   14  H   UNL     1       6.546  24.693  51.277  1.00  0.00     0.165 HD
HETATM   15  C   UNL     1       5.814  25.723  52.978  1.00  0.00     0.097 A 
BRANCH  10  16
HETATM   16  O   UNL     1       8.524  21.797  56.432  1.00  0.00    -0.356 OA
HETATM   17  C   UNL     1       9.062  20.490  56.268  1.00  0.00     0.210 C 
ENDBRANCH  10  16
ENDBRANCH   5   6
ENDBRANCH   1   5
BRANCH   2  18
HETATM   18  C   UNL     1       6.642  29.126  57.626  1.00  0.00     0.047 A 
HETATM   19  C   UNL     1       5.997  30.392  57.774  1.00  0.00     0.022 A 
HETATM   20  C   UNL     1       6.726  31.485  58.317  1.00  0.00     0.102 A 
HETATM   21  C   UNL     1       4.636  30.649  57.484  1.00  0.00     0.017 A 
HETATM   22  N   UNL     1       6.181  32.718  58.453  1.00  0.00    -0.257 NA
HETATM   23  C   UNL     1       8.047  31.275  58.745  1.00  0.00     0.097 A 
HETATM   24  C   UNL     1       4.898  32.915  58.101  1.00  0.00     0.117 A 
HETATM   25  C   UNL     1       4.083  31.917  57.631  1.00  0.00     0.020 A 
HETATM   26  C   UNL     1       8.636  30.012  58.686  1.00  0.00     0.041 A 
HETATM   27  C   UNL     1       7.936  28.949  58.132  1.00  0.00     0.033 A 
BRANCH  23  28
HETATM   28  O   UNL     1       8.698  32.357  59.301  1.00  0.00    -0.354 OA
HETATM   29  C   UNL     1       9.558  32.073  60.397  1.00  0.00     0.210 C 
ENDBRANCH  23  28
ENDBRANCH   2  18
TORSDOF 5
ENDMDL
MODEL 8
REMARK VINA RESULT:      -8.7      3.050      7.677
REMARK  5 active torsions:
REMARK  status: ('A' for Active; 'I' for Inactive)
REMARK    1  A    between atoms: O_2  and  C_3 
REMARK    2  A    between atoms: C_10  and  C_11 
REMARK    3  A    between atoms: C_11  and  C_12 
REMARK       I    between atoms: C_12  and  N_13 
REMARK    4  A    between atoms: N_13  and  C_14 
REMARK    5  A    between atoms: C_21  and  O_22 
ROOT
HETATM    1  C   UNL     1       5.374  25.812  52.583  1.00  0.00     0.226 C 
HETATM    2  N   UNL     1       6.742  25.595  52.727  1.00  0.00    -0.326 N 
HETATM    3  O   UNL     1       4.486  25.127  53.078  1.00  0.00    -0.273 OA
HETATM    4  H   UNL     1       7.315  26.412  52.557  1.00  0.00     0.169 HD
ENDROOT
BRANCH   1   5
HETATM    5  C   UNL     1       5.090  27.036  51.711  1.00  0.00     0.144 C 
BRANCH   5   6
HETATM    6  C   UNL     1       4.400  28.164  52.412  1.00  0.00    -0.021 A 
HETATM    7  C   UNL     1       4.787  28.810  53.635  1.00  0.00     0.001 A 
HETATM    8  C   UNL     1       5.832  28.620  54.564  1.00  0.00     0.051 A 
HETATM    9  C   UNL     1       3.869  29.831  53.878  1.00  0.00     0.043 A 
HETATM   10  C   UNL     1       5.918  29.433  55.703  1.00  0.00     0.069 A 
HETATM   11  C   UNL     1       4.988  30.451  55.906  1.00  0.00     0.039 A 
HETATM   12  C   UNL     1       3.946  30.668  54.995  1.00  0.00     0.033 A 
HETATM   13  N   UNL     1       2.959  29.811  52.849  1.00  0.00    -0.365 N 
HETATM   14  H   UNL     1       2.173  30.443  52.768  1.00  0.00     0.165 HD
HETATM   15  C   UNL     1       3.271  28.823  51.957  1.00  0.00     0.097 A 
BRANCH  10  16
HETATM   16  O   UNL     1       6.968  29.136  56.532  1.00  0.00    -0.356 OA
HETATM   17  C   UNL     1       8.273  29.301  55.989  1.00  0.00     0.210 C 
ENDBRANCH  10  16
ENDBRANCH   5   6
ENDBRANCH   1   5
BRANCH   2  18
HETATM   18  C   UNL     1       7.378  24.565  53.471  1.00  0.00     0.047 A 
HETATM   19  C   UNL     1       7.766  24.622  54.844  1.00  0.00     0.022 A 
HETATM   20  C   UNL     1       8.476  23.529  55.412  1.00  0.00     0.102 A 
HETATM   21  C   UNL     1       7.439  25.668  55.738  1.00  0.00     0.017 A 
HETATM   22  N   UNL     1       8.899  23.536  56.699  1.00  0.00    -0.257 NA
HETATM   23  C   UNL     1       8.729  22.397  54.620  1.00  0.00     0.097 A 
HETATM   24  C   UNL     1       8.611  24.589  57.484  1.00  0.00     0.117 A 
HETATM   25  C   UNL     1       7.873  25.666  57.059  1.00  0.00     0.020 A 
HETATM   26  C   UNL     1       8.262  22.312  53.308  1.00  0.00     0.041 A 
HETATM   27  C   UNL     1       7.591  23.388  52.743  1.00  0.00     0.033 A 
BRANCH  23  28
HETATM   28  O   UNL     1       9.386  21.348  55.228  1.00  0.00    -0.354 OA
HETATM   29  C   UNL     1       8.771  20.072  55.110  1.00  0.00     0.210 C 
ENDBRANCH  23  28
ENDBRANCH   2  18
TORSDOF 5
ENDMDL
MODEL 9
REMARK VINA RESULT:      -8.6      3.929      6.685
REMARK  5 active torsions:
REMARK  status: ('A' for Active; 'I' for Inactive)
REMARK    1  A    between atoms: O_2  and  C_3 
REMARK    2  A    between atoms: C_10  and  C_11 
REMARK    3  A    between atoms: C_11  and  C_12 
REMARK       I    between atoms: C_12  and  N_13 
REMARK    4  A    between atoms: N_13  and  C_14 
REMARK    5  A    between atoms: C_21  and  O_22 
ROOT
HETATM    1  C   UNL     1       8.627  31.673  59.909  1.00  0.00     0.226 C 
HETATM    2  N   UNL     1       7.488  31.400  60.663  1.00  0.00    -0.326 N 
HETATM    3  O   UNL     1       8.975  32.781  59.517  1.00  0.00    -0.273 OA
HETATM    4  H   UNL     1       7.528  30.531  61.179  1.00  0.00     0.169 HD
ENDROOT
BRANCH   1   5
HETATM    5  C   UNL     1       9.420  30.401  59.613  1.00  0.00     0.144 C 
BRANCH   5   6
HETATM    6  C   UNL     1       9.509  30.036  58.164  1.00  0.00    -0.021 A 
HETATM    7  C   UNL     1       8.494  29.440  57.342  1.00  0.00     0.001 A 
HETATM    8  C   UNL     1       7.179  28.982  57.572  1.00  0.00     0.051 A 
HETATM    9  C   UNL     1       9.013  29.324  56.053  1.00  0.00     0.043 A 
HETATM   10  C   UNL     1       6.437  28.412  56.528  1.00  0.00     0.069 A 
HETATM   11  C   UNL     1       6.987  28.324  55.250  1.00  0.00     0.039 A 
HETATM   12  C   UNL     1       8.286  28.778  54.990  1.00  0.00     0.033 A 
HETATM   13  N   UNL     1      10.292  29.827  56.084  1.00  0.00    -0.365 N 
HETATM   14  H   UNL     1      10.911  29.865  55.285  1.00  0.00     0.165 HD
HETATM   15  C   UNL     1      10.598  30.267  57.342  1.00  0.00     0.097 A 
BRANCH  10  16
HETATM   16  O   UNL     1       5.183  27.994  56.887  1.00  0.00    -0.356 OA
HETATM   17  C   UNL     1       4.096  28.539  56.148  1.00  0.00     0.210 C 
ENDBRANCH  10  16
ENDBRANCH   5   6
ENDBRANCH   1   5
BRANCH   2  18
HETATM   18  C   UNL     1       6.522  32.330  61.134  1.00  0.00     0.047 A 
HETATM   19  C   UNL     1       6.499  32.957  62.416  1.00  0.00     0.022 A 
HETATM   20  C   UNL     1       5.406  33.799  62.760  1.00  0.00     0.102 A 
HETATM   21  C   UNL     1       7.530  32.872  63.382  1.00  0.00     0.017 A 
HETATM   22  N   UNL     1       5.310  34.398  63.972  1.00  0.00    -0.257 NA
HETATM   23  C   UNL     1       4.403  34.034  61.805  1.00  0.00     0.097 A 
HETATM   24  C   UNL     1       6.295  34.227  64.872  1.00  0.00     0.117 A 
HETATM   25  C   UNL     1       7.426  33.493  64.622  1.00  0.00     0.020 A 
HETATM   26  C   UNL     1       4.484  33.493  60.522  1.00  0.00     0.041 A 
HETATM   27  C   UNL     1       5.536  32.651  60.192  1.00  0.00     0.033 A 
BRANCH  23  28
HETATM   28  O   UNL     1       3.385  34.889  62.172  1.00  0.00    -0.354 OA
HETATM   29  C   UNL     1       2.071  34.493  61.799  1.00  0.00     0.210 C 
ENDBRANCH  23  28
ENDBRANCH   2  18
TORSDOF 5
ENDMDL
MODEL 10
REMARK VINA RESULT:      -8.6      4.671      8.153
REMARK  5 active torsions:
REMARK  status: ('A' for Active; 'I' for Inactive)
REMARK    1  A    between atoms: O_2  and  C_3 
REMARK    2  A    between atoms: C_10  and  C_11 
REMARK    3  A    between atoms: C_11  and  C_12 
REMARK       I    between atoms: C_12  and  N_13 
REMARK    4  A    between atoms: N_13  and  C_14 
REMARK    5  A    between atoms: C_21  and  O_22 
ROOT
HETATM    1  C   UNL     1       5.750  26.947  52.854  1.00  0.00     0.226 C 
HETATM    2  N   UNL     1       7.055  26.471  52.962  1.00  0.00    -0.326 N 
HETATM    3  O   UNL     1       4.740  26.351  53.209  1.00  0.00    -0.273 OA
HETATM    4  H   UNL     1       7.766  27.191  52.949  1.00  0.00     0.169 HD
ENDROOT
BRANCH   1   5
HETATM    5  C   UNL     1       5.714  28.339  52.223  1.00  0.00     0.144 C 
BRANCH   5   6
HETATM    6  C   UNL     1       4.380  28.755  51.688  1.00  0.00    -0.021 A 
HETATM    7  C   UNL     1       3.737  28.309  50.485  1.00  0.00     0.001 A 
HETATM    8  C   UNL     1       4.096  27.432  49.438  1.00  0.00     0.051 A 
HETATM    9  C   UNL     1       2.492  28.934  50.418  1.00  0.00     0.043 A 
HETATM   10  C   UNL     1       3.222  27.223  48.362  1.00  0.00     0.069 A 
HETATM   11  C   UNL     1       1.982  27.858  48.337  1.00  0.00     0.039 A 
HETATM   12  C   UNL     1       1.594  28.726  49.366  1.00  0.00     0.033 A 
HETATM   13  N   UNL     1       2.378  29.730  51.533  1.00  0.00    -0.365 N 
HETATM   14  H   UNL     1       1.575  30.307  51.744  1.00  0.00     0.165 HD
HETATM   15  C   UNL     1       3.500  29.623  52.308  1.00  0.00     0.097 A 
BRANCH  10  16
HETATM   16  O   UNL     1       3.697  26.363  47.407  1.00  0.00    -0.356 OA
HETATM   17  C   UNL     1       3.064  25.091  47.327  1.00  0.00     0.210 C 
ENDBRANCH  10  16
ENDBRANCH   5   6
ENDBRANCH   1   5
BRANCH   2  18
HETATM   18  C   UNL     1       7.476  25.227  53.505  1.00  0.00     0.047 A 
HETATM   19  C   UNL     1       7.847  24.971  54.860  1.00  0.00     0.022 A 
HETATM   20  C   UNL     1       8.331  23.683  55.218  1.00  0.00     0.102 A 
HETATM   21  C   UNL     1       7.706  25.889  55.928  1.00  0.00     0.017 A 
HETATM   22  N   UNL     1       8.728  23.388  56.479  1.00  0.00    -0.257 NA
HETATM   23  C   UNL     1       8.381  22.679  54.237  1.00  0.00     0.097 A 
HETATM   24  C   UNL     1       8.629  24.324  57.439  1.00  0.00     0.117 A 
HETATM   25  C   UNL     1       8.112  25.576  57.221  1.00  0.00     0.020 A 
HETATM   26  C   UNL     1       7.927  22.912  52.939  1.00  0.00     0.041 A 
HETATM   27  C   UNL     1       7.478  24.175  52.580  1.00  0.00     0.033 A 
BRANCH  23  28
HETATM   28  O   UNL     1       8.822  21.437  54.643  1.00  0.00    -0.354 OA
HETATM   29  C   UNL     1       8.621  20.371  53.724  1.00  0.00     0.210 C 
ENDBRANCH  23  28
ENDBRANCH   2  18
TORSDOF 5
ENDMDL
