MODEL 1
REMARK VINA RESULT:     -10.3      0.000      0.000
REMARK  6 active torsions:
REMARK  status: ('A' for Active; 'I' for Inactive)
REMARK    1  A    between atoms: O_2  and  C_3 
REMARK    2  A    between atoms: C_6  and  C_7 
REMARK    3  A    between atoms: C_9  and  N_10 
REMARK    4  A    between atoms: N_10  and  N_11 
REMARK       I    between atoms: N_10  and  C_22 
REMARK       I    between atoms: N_11  and  C_12 
REMARK       I    between atoms: C_12  and  N_13 
REMARK    5  A    between atoms: N_13  and  C_14 
REMARK       I    between atoms: C_22  and  N_23 
REMARK    6  A    between atoms: N_23  and  C_24 
ROOT
HETATM    1  N   UNL     1       6.529  29.085  56.434  1.00  0.00    -0.195 N 
HETATM    2  C   UNL     1       5.150  29.207  56.663  1.00  0.00     0.340 C 
HETATM    3  N   UNL     1       4.761  29.978  57.739  1.00  0.00    -0.337 N 
HETATM    4  O   UNL     1       4.317  28.713  55.895  1.00  0.00    -0.245 OA
HETATM    5  H   UNL     1       5.482  30.522  58.189  1.00  0.00     0.164 HD
ENDROOT
BRANCH   1   6
HETATM    6  C   UNL     1       7.470  29.609  57.308  1.00  0.00     0.193 A 
HETATM    7  N   UNL     1       7.172  30.335  58.361  1.00  0.00    -0.222 NA
HETATM    8  C   UNL     1       8.325  30.618  59.075  1.00  0.00     0.076 A 
HETATM    9  C   UNL     1       9.498  30.206  58.469  1.00  0.00     0.085 A 
HETATM   10  S   UNL     1       9.138  29.374  57.009  1.00  0.00    -0.060 SA
BRANCH   8  11
HETATM   11  C   UNL     1       8.244  31.232  60.392  1.00  0.00    -0.007 A 
HETATM   12  C   UNL     1       7.500  32.412  60.541  1.00  0.00     0.016 A 
HETATM   13  C   UNL     1       7.370  33.031  61.788  1.00  0.00     0.037 A 
HETATM   14  C   UNL     1       7.995  32.482  62.907  1.00  0.00     0.068 A 
HETATM   15  C   UNL     1       8.735  31.305  62.765  1.00  0.00     0.037 A 
HETATM   16  C   UNL     1       8.863  30.681  61.518  1.00  0.00     0.016 A 
BRANCH  14  17
HETATM   17  O   UNL     1       7.954  32.990  64.175  1.00  0.00    -0.356 OA
HETATM   18  C   UNL     1       6.689  33.448  64.638  1.00  0.00     0.210 C 
ENDBRANCH  14  17
ENDBRANCH   8  11
ENDBRANCH   1   6
BRANCH   1  19
HETATM   19  N   UNL     1       6.925  29.150  55.054  1.00  0.00    -0.142 NA
HETATM   20  C   UNL     1       7.453  28.037  54.433  1.00  0.00     0.317 C 
HETATM   21  N   UNL     1       6.818  26.860  54.729  1.00  0.00    -0.312 N 
HETATM   22  O   UNL     1       8.390  28.188  53.654  1.00  0.00    -0.252 OA
HETATM   23  H   UNL     1       5.906  26.981  55.165  1.00  0.00     0.170 HD
HETATM   24  H   UNL     1       7.470  29.986  54.850  1.00  0.00     0.158 HD
BRANCH  21  25
HETATM   25  C   UNL     1       7.128  25.568  54.263  1.00  0.00     0.036 A 
HETATM   26  C   UNL     1       7.468  25.282  52.938  1.00  0.00     0.031 A 
HETATM   27  C   UNL     1       7.754  23.968  52.549  1.00  0.00     0.026 A 
HETATM   28  C   UNL     1       7.703  22.940  53.486  1.00  0.00     0.034 A 
HETATM   29 CL   UNL     1       8.047  21.324  53.004  1.00  0.00    -0.084 Cl
HETATM   30  C   UNL     1       7.377  23.214  54.810  1.00  0.00     0.026 A 
HETATM   31  C   UNL     1       7.094  24.526  55.198  1.00  0.00     0.031 A 
ENDBRANCH  21  25
ENDBRANCH   1  19
BRANCH   3  32
HETATM   32  C   UNL     1       3.415  30.531  57.838  1.00  0.00     0.086 C 
HETATM   33  C   UNL     1       3.139  31.022  59.265  1.00  0.00     0.025 C 
HETATM   34  C   UNL     1       3.943  32.271  59.633  1.00  0.00     0.002 C 
HETATM   35  C   UNL     1       3.774  33.386  58.605  1.00  0.00     0.000 C 
HETATM   36  C   UNL     1       4.064  32.907  57.186  1.00  0.00     0.002 C 
HETATM   37  C   UNL     1       3.230  31.675  56.827  1.00  0.00     0.025 C 
ENDBRANCH   3  32
TORSDOF 6
ENDMDL
MODEL 2
REMARK VINA RESULT:      -9.9      3.966      7.336
REMARK  6 active torsions:
REMARK  status: ('A' for Active; 'I' for Inactive)
REMARK    1  A    between atoms: O_2  and  C_3 
REMARK    2  A    between atoms: C_6  and  C_7 
REMARK    3  A    between atoms: C_9  and  N_10 
REMARK    4  A    between atoms: N_10  and  N_11 
REMARK       I    between atoms: N_10  and  C_22 
REMARK       I    between atoms: N_11  and  C_12 
REMARK       I    between atoms: C_12  and  N_13 
REMARK    5  A    between atoms: N_13  and  C_14 
REMARK       I    between atoms: C_22  and  N_23 
REMARK    6  A    between atoms: N_23  and  C_24 
ROOT
HETATM    1  N   UNL     1       6.299  25.498  54.219  1.00  0.00    -0.195 N 
HETATM    2  C   UNL     1       6.648  24.282  53.610  1.00  0.00     0.340 C 
HETATM    3  N   UNL     1       7.469  23.438  54.327  1.00  0.00    -0.337 N 
HETATM    4  O   UNL     1       6.182  23.947  52.516  1.00  0.00    -0.245 OA
HETATM    5  H   UNL     1       7.633  23.679  55.293  1.00  0.00     0.164 HD
ENDROOT
BRANCH   1   6
HETATM    6  C   UNL     1       6.842  25.897  55.432  1.00  0.00     0.193 A 
HETATM    7  N   UNL     1       7.545  26.993  55.598  1.00  0.00    -0.222 NA
HETATM    8  C   UNL     1       7.855  27.150  56.940  1.00  0.00     0.076 A 
HETATM    9  C   UNL     1       7.488  26.090  57.748  1.00  0.00     0.085 A 
HETATM   10  S   UNL     1       6.663  24.905  56.815  1.00  0.00    -0.060 SA
BRANCH   8  11
HETATM   11  C   UNL     1       8.449  28.390  57.418  1.00  0.00    -0.007 A 
HETATM   12  C   UNL     1       9.672  28.806  56.870  1.00  0.00     0.016 A 
HETATM   13  C   UNL     1      10.276  30.000  57.277  1.00  0.00     0.037 A 
HETATM   14  C   UNL     1       9.668  30.792  58.249  1.00  0.00     0.068 A 
HETATM   15  C   UNL     1       8.449  30.384  58.796  1.00  0.00     0.037 A 
HETATM   16  C   UNL     1       7.840  29.191  58.389  1.00  0.00     0.016 A 
BRANCH  14  17
HETATM   17  O   UNL     1      10.155  31.972  58.739  1.00  0.00    -0.356 OA
HETATM   18  C   UNL     1       9.737  32.339  60.049  1.00  0.00     0.210 C 
ENDBRANCH  14  17
ENDBRANCH   8  11
ENDBRANCH   1   6
BRANCH   1  19
HETATM   19  N   UNL     1       4.930  25.897  54.042  1.00  0.00    -0.142 NA
HETATM   20  C   UNL     1       4.607  26.876  53.125  1.00  0.00     0.317 C 
HETATM   21  N   UNL     1       5.273  26.784  51.931  1.00  0.00    -0.312 N 
HETATM   22  O   UNL     1       3.745  27.698  53.421  1.00  0.00    -0.252 OA
HETATM   23  H   UNL     1       5.729  25.886  51.780  1.00  0.00     0.170 HD
HETATM   24  H   UNL     1       4.455  26.047  54.931  1.00  0.00     0.158 HD
BRANCH  21  25
HETATM   25  C   UNL     1       5.167  27.634  50.814  1.00  0.00     0.036 A 
HETATM   26  C   UNL     1       5.535  28.982  50.827  1.00  0.00     0.031 A 
HETATM   27  C   UNL     1       5.388  29.766  49.677  1.00  0.00     0.026 A 
HETATM   28  C   UNL     1       4.878  29.202  48.511  1.00  0.00     0.034 A 
HETATM   29 CL   UNL     1       4.692  30.170  47.101  1.00  0.00    -0.084 Cl
HETATM   30  C   UNL     1       4.520  27.858  48.482  1.00  0.00     0.026 A 
HETATM   31  C   UNL     1       4.668  27.076  49.631  1.00  0.00     0.031 A 
ENDBRANCH  21  25
ENDBRANCH   1  19
BRANCH   3  32
HETATM   32  C   UNL     1       7.557  22.014  54.022  1.00  0.00     0.086 C 
HETATM   33  C   UNL     1       8.977  21.648  53.571  1.00  0.00     0.025 C 
HETATM   34  C   UNL     1      10.001  21.717  54.707  1.00  0.00     0.002 C 
HETATM   35  C   UNL     1       9.564  20.907  55.924  1.00  0.00     0.000 C 
HETATM   36  C   UNL     1       8.158  21.280  56.387  1.00  0.00     0.002 C 
HETATM   37  C   UNL     1       7.145  21.177  55.244  1.00  0.00     0.025 C 
ENDBRANCH   3  32
TORSDOF 6
ENDMDL
MODEL 3
REMARK VINA RESULT:      -9.5      2.948      4.605
REMARK  6 active torsions:
REMARK  status: ('A' for Active; 'I' for Inactive)
REMARK    1  A    between atoms: O_2  and  C_3 
REMARK    2  A    between atoms: C_6  and  C_7 
REMARK    3  A    between atoms: C_9  and  N_10 
REMARK    4  A    between atoms: N_10  and  N_11 
REMARK       I    between atoms: N_10  and  C_22 
REMARK       I    between atoms: N_11  and  C_12 
REMARK       I    between atoms: C_12  and  N_13 
REMARK    5  A    between atoms: N_13  and  C_14 
REMARK       I    between atoms: C_22  and  N_23 
REMARK    6  A    between atoms: N_23  and  C_24 
ROOT
HETATM    1  N   UNL     1       6.178  31.919  59.672  1.00  0.00    -0.195 N 
HETATM    2  C   UNL     1       4.953  32.507  59.320  1.00  0.00     0.340 C 
HETATM    3  N   UNL     1       4.365  33.333  60.254  1.00  0.00    -0.337 N 
HETATM    4  O   UNL     1       4.458  32.355  58.198  1.00  0.00    -0.245 OA
HETATM    5  H   UNL     1       4.926  33.581  61.056  1.00  0.00     0.164 HD
ENDROOT
BRANCH   1   6
HETATM    6  C   UNL     1       6.724  32.059  60.940  1.00  0.00     0.193 A 
HETATM    7  N   UNL     1       6.197  32.795  61.891  1.00  0.00    -0.222 NA
HETATM    8  C   UNL     1       6.928  32.643  63.058  1.00  0.00     0.076 A 
HETATM    9  C   UNL     1       8.080  31.890  62.927  1.00  0.00     0.085 A 
HETATM   10  S   UNL     1       8.205  31.292  61.320  1.00  0.00    -0.060 SA
BRANCH   8  11
HETATM   11  C   UNL     1       6.434  33.190  64.313  1.00  0.00    -0.007 A 
HETATM   12  C   UNL     1       7.361  33.651  65.259  1.00  0.00     0.016 A 
HETATM   13  C   UNL     1       6.940  34.206  66.472  1.00  0.00     0.037 A 
HETATM   14  C   UNL     1       5.580  34.297  66.761  1.00  0.00     0.068 A 
HETATM   15  C   UNL     1       4.652  33.842  65.821  1.00  0.00     0.037 A 
HETATM   16  C   UNL     1       5.070  33.289  64.605  1.00  0.00     0.016 A 
BRANCH  14  17
HETATM   17  O   UNL     1       5.039  34.809  67.908  1.00  0.00    -0.356 OA
HETATM   18  C   UNL     1       5.577  34.330  69.135  1.00  0.00     0.210 C 
ENDBRANCH  14  17
ENDBRANCH   8  11
ENDBRANCH   1   6
BRANCH   1  19
HETATM   19  N   UNL     1       7.159  31.882  58.623  1.00  0.00    -0.142 NA
HETATM   20  C   UNL     1       7.532  30.675  58.067  1.00  0.00     0.317 C 
HETATM   21  N   UNL     1       6.497  29.808  57.832  1.00  0.00    -0.312 N 
HETATM   22  O   UNL     1       8.715  30.495  57.792  1.00  0.00    -0.252 OA
HETATM   23  H   UNL     1       5.578  30.244  57.867  1.00  0.00     0.170 HD
HETATM   24  H   UNL     1       7.970  32.462  58.833  1.00  0.00     0.158 HD
BRANCH  21  25
HETATM   25  C   UNL     1       6.562  28.512  57.289  1.00  0.00     0.036 A 
HETATM   26  C   UNL     1       5.752  28.067  56.242  1.00  0.00     0.031 A 
HETATM   27  C   UNL     1       5.868  26.757  55.763  1.00  0.00     0.026 A 
HETATM   28  C   UNL     1       6.799  25.891  56.330  1.00  0.00     0.034 A 
HETATM   29 CL   UNL     1       6.935  24.278  55.745  1.00  0.00    -0.084 Cl
HETATM   30  C   UNL     1       7.620  26.325  57.366  1.00  0.00     0.026 A 
HETATM   31  C   UNL     1       7.503  27.634  57.841  1.00  0.00     0.031 A 
ENDBRANCH  21  25
ENDBRANCH   1  19
BRANCH   3  32
HETATM   32  C   UNL     1       3.355  34.317  59.879  1.00  0.00     0.086 C 
HETATM   33  C   UNL     1       2.104  34.163  60.753  1.00  0.00     0.025 C 
HETATM   34  C   UNL     1       2.332  34.590  62.204  1.00  0.00     0.002 C 
HETATM   35  C   UNL     1       2.926  35.993  62.303  1.00  0.00     0.000 C 
HETATM   36  C   UNL     1       4.181  36.146  61.449  1.00  0.00     0.002 C 
HETATM   37  C   UNL     1       3.924  35.741  59.996  1.00  0.00     0.025 C 
ENDBRANCH   3  32
TORSDOF 6
ENDMDL
MODEL 4
REMARK VINA RESULT:      -9.4      1.867      2.651
REMARK  6 active torsions:
REMARK  status: ('A' for Active; 'I' for Inactive)
REMARK    1  A    between atoms: O_2  and  C_3 
REMARK    2  A    between atoms: C_6  and  C_7 
REMARK    3  A    between atoms: C_9  and  N_10 
REMARK    4  A    between atoms: N_10  and  N_11 
REMARK       I    between atoms: N_10  and  C_22 
REMARK       I    between atoms: N_11  and  C_12 
REMARK       I    between atoms: C_12  and  N_13 
REMARK    5  A    between atoms: N_13  and  C_14 
REMARK       I    between atoms: C_22  and  N_23 
REMARK    6  A    between atoms: N_23  and  C_24 
ROOT
HETATM    1  N   UNL     1       7.236  30.211  58.422  1.00  0.00    -0.195 N 
HETATM    2  C   UNL     1       5.888  30.331  58.049  1.00  0.00     0.340 C 
HETATM    3  N   UNL     1       5.141  31.285  58.706  1.00  0.00    -0.337 N 
HETATM    4  O   UNL     1       5.410  29.667  57.123  1.00  0.00    -0.245 OA
HETATM    5  H   UNL     1       5.646  31.932  59.293  1.00  0.00     0.164 HD
ENDROOT
BRANCH   1   6
HETATM    6  C   UNL     1       7.773  30.929  59.482  1.00  0.00     0.193 A 
HETATM    7  N   UNL     1       7.056  31.591  60.360  1.00  0.00    -0.222 NA
HETATM    8  C   UNL     1       7.884  32.114  61.340  1.00  0.00     0.076 A 
HETATM    9  C   UNL     1       9.237  31.946  61.107  1.00  0.00     0.085 A 
HETATM   10  S   UNL     1       9.470  31.039  59.665  1.00  0.00    -0.060 SA
BRANCH   8  11
HETATM   11  C   UNL     1       7.319  32.714  62.540  1.00  0.00    -0.007 A 
HETATM   12  C   UNL     1       6.049  33.306  62.463  1.00  0.00     0.016 A 
HETATM   13  C   UNL     1       5.449  33.876  63.590  1.00  0.00     0.037 A 
HETATM   14  C   UNL     1       6.118  33.873  64.812  1.00  0.00     0.068 A 
HETATM   15  C   UNL     1       7.382  33.283  64.895  1.00  0.00     0.037 A 
HETATM   16  C   UNL     1       7.984  32.708  63.769  1.00  0.00     0.016 A 
BRANCH  14  17
HETATM   17  O   UNL     1       5.650  34.401  65.982  1.00  0.00    -0.356 OA
HETATM   18  C   UNL     1       4.261  34.236  66.245  1.00  0.00     0.210 C 
ENDBRANCH  14  17
ENDBRANCH   8  11
ENDBRANCH   1   6
BRANCH   1  19
HETATM   19  N   UNL     1       8.155  30.016  57.335  1.00  0.00    -0.142 NA
HETATM   20  C   UNL     1       8.549  28.742  56.983  1.00  0.00     0.317 C 
HETATM   21  N   UNL     1       7.543  27.811  56.978  1.00  0.00    -0.312 N 
HETATM   22  O   UNL     1       9.721  28.556  56.667  1.00  0.00    -0.252 OA
HETATM   23  H   UNL     1       6.608  28.213  56.995  1.00  0.00     0.170 HD
HETATM   24  H   UNL     1       8.948  30.653  57.382  1.00  0.00     0.158 HD
BRANCH  21  25
HETATM   25  C   UNL     1       7.636  26.440  56.676  1.00  0.00     0.036 A 
HETATM   26  C   UNL     1       8.414  25.535  57.402  1.00  0.00     0.031 A 
HETATM   27  C   UNL     1       8.464  24.187  57.032  1.00  0.00     0.026 A 
HETATM   28  C   UNL     1       7.731  23.740  55.936  1.00  0.00     0.034 A 
HETATM   29 CL   UNL     1       7.799  22.083  55.477  1.00  0.00    -0.084 Cl
HETATM   30  C   UNL     1       6.942  24.628  55.211  1.00  0.00     0.026 A 
HETATM   31  C   UNL     1       6.893  25.974  55.584  1.00  0.00     0.031 A 
ENDBRANCH  21  25
ENDBRANCH   1  19
BRANCH   3  32
HETATM   32  C   UNL     1       3.897  31.802  58.146  1.00  0.00     0.086 C 
HETATM   33  C   UNL     1       3.094  32.551  59.218  1.00  0.00     0.025 C 
HETATM   34  C   UNL     1       3.743  33.874  59.633  1.00  0.00     0.002 C 
HETATM   35  C   UNL     1       4.055  34.762  58.432  1.00  0.00     0.000 C 
HETATM   36  C   UNL     1       4.867  34.026  57.370  1.00  0.00     0.002 C 
HETATM   37  C   UNL     1       4.189  32.721  56.948  1.00  0.00     0.025 C 
ENDBRANCH   3  32
TORSDOF 6
ENDMDL
MODEL 5
REMARK VINA RESULT:      -9.4      4.255      9.358
REMARK  6 active torsions:
REMARK  status: ('A' for Active; 'I' for Inactive)
REMARK    1  A    between atoms: O_2  and  C_3 
REMARK    2  A    between atoms: C_6  and  C_7 
REMARK    3  A    between atoms: C_9  and  N_10 
REMARK    4  A    between atoms: N_10  and  N_11 
REMARK       I    between atoms: N_10  and  C_22 
REMARK       I    between atoms: N_11  and  C_12 
REMARK       I    between atoms: C_12  and  N_13 
REMARK    5  A    between atoms: N_13  and  C_14 
REMARK       I    between atoms: C_22  and  N_23 
REMARK    6  A    between atoms: N_23  and  C_24 
ROOT
HETATM    1  N   UNL     1       6.978  28.875  57.508  1.00  0.00    -0.195 N 
HETATM    2  C   UNL     1       7.142  27.482  57.506  1.00  0.00     0.340 C 
HETATM    3  N   UNL     1       6.390  26.766  56.599  1.00  0.00    -0.337 N 
HETATM    4  O   UNL     1       7.975  26.925  58.230  1.00  0.00    -0.245 OA
HETATM    5  H   UNL     1       5.897  27.300  55.899  1.00  0.00     0.164 HD
ENDROOT
BRANCH   1   6
HETATM    6  C   UNL     1       6.023  29.506  56.723  1.00  0.00     0.193 A 
HETATM    7  N   UNL     1       5.917  29.345  55.424  1.00  0.00    -0.222 NA
HETATM    8  C   UNL     1       4.808  30.033  54.958  1.00  0.00     0.076 A 
HETATM    9  C   UNL     1       4.170  30.814  55.904  1.00  0.00     0.085 A 
HETATM   10  S   UNL     1       4.932  30.616  57.432  1.00  0.00    -0.060 SA
BRANCH   8  11
HETATM   11  C   UNL     1       4.348  29.848  53.589  1.00  0.00    -0.007 A 
HETATM   12  C   UNL     1       4.842  28.760  52.854  1.00  0.00     0.016 A 
HETATM   13  C   UNL     1       4.416  28.523  51.542  1.00  0.00     0.037 A 
HETATM   14  C   UNL     1       3.496  29.381  50.943  1.00  0.00     0.068 A 
HETATM   15  C   UNL     1       2.999  30.464  51.672  1.00  0.00     0.037 A 
HETATM   16  C   UNL     1       3.421  30.702  52.985  1.00  0.00     0.016 A 
BRANCH  14  17
HETATM   17  O   UNL     1       3.008  29.266  49.671  1.00  0.00    -0.356 OA
HETATM   18  C   UNL     1       1.609  29.033  49.545  1.00  0.00     0.210 C 
ENDBRANCH  14  17
ENDBRANCH   8  11
ENDBRANCH   1   6
BRANCH   1  19
HETATM   19  N   UNL     1       8.192  29.631  57.657  1.00  0.00    -0.142 NA
HETATM   20  C   UNL     1       8.260  30.656  58.578  1.00  0.00     0.317 C 
HETATM   21  N   UNL     1       7.675  30.381  59.786  1.00  0.00    -0.312 N 
HETATM   22  O   UNL     1       8.858  31.683  58.271  1.00  0.00    -0.252 OA
HETATM   23  H   UNL     1       7.485  29.392  59.937  1.00  0.00     0.170 HD
HETATM   24  H   UNL     1       8.584  29.909  56.759  1.00  0.00     0.158 HD
BRANCH  21  25
HETATM   25  C   UNL     1       7.576  31.222  60.910  1.00  0.00     0.036 A 
HETATM   26  C   UNL     1       6.679  32.289  61.004  1.00  0.00     0.031 A 
HETATM   27  C   UNL     1       6.648  33.089  62.152  1.00  0.00     0.026 A 
HETATM   28  C   UNL     1       7.511  32.818  63.211  1.00  0.00     0.034 A 
HETATM   29 CL   UNL     1       7.476  33.807  64.618  1.00  0.00    -0.084 Cl
HETATM   30  C   UNL     1       8.400  31.751  63.134  1.00  0.00     0.026 A 
HETATM   31  C   UNL     1       8.429  30.953  61.988  1.00  0.00     0.031 A 
ENDBRANCH  21  25
ENDBRANCH   1  19
BRANCH   3  32
HETATM   32  C   UNL     1       6.759  25.413  56.197  1.00  0.00     0.086 C 
HETATM   33  C   UNL     1       5.559  24.690  55.572  1.00  0.00     0.025 C 
HETATM   34  C   UNL     1       5.170  25.253  54.203  1.00  0.00     0.002 C 
HETATM   35  C   UNL     1       6.359  25.312  53.248  1.00  0.00     0.000 C 
HETATM   36  C   UNL     1       7.551  26.043  53.859  1.00  0.00     0.002 C 
HETATM   37  C   UNL     1       7.941  25.448  55.214  1.00  0.00     0.025 C 
ENDBRANCH   3  32
TORSDOF 6
ENDMDL
MODEL 6
REMARK VINA RESULT:      -9.4      4.359      9.080
REMARK  6 active torsions:
REMARK  status: ('A' for Active; 'I' for Inactive)
REMARK    1  A    between atoms: O_2  and  C_3 
REMARK    2  A    between atoms: C_6  and  C_7 
REMARK    3  A    between atoms: C_9  and  N_10 
REMARK    4  A    between atoms: N_10  and  N_11 
REMARK       I    between atoms: N_10  and  C_22 
REMARK       I    between atoms: N_11  and  C_12 
REMARK       I    between atoms: C_12  and  N_13 
REMARK    5  A    between atoms: N_13  and  C_14 
REMARK       I    between atoms: C_22  and  N_23 
REMARK    6  A    between atoms: N_23  and  C_24 
ROOT
HETATM    1  N   UNL     1       5.319  28.465  52.465  1.00  0.00    -0.195 N 
HETATM    2  C   UNL     1       5.304  29.213  51.277  1.00  0.00     0.340 C 
HETATM    3  N   UNL     1       5.404  28.510  50.095  1.00  0.00    -0.337 N 
HETATM    4  O   UNL     1       5.134  30.437  51.282  1.00  0.00    -0.245 OA
HETATM    5  H   UNL     1       5.323  27.506  50.158  1.00  0.00     0.164 HD
ENDROOT
BRANCH   1   6
HETATM    6  C   UNL     1       5.542  27.095  52.470  1.00  0.00     0.193 A 
HETATM    7  N   UNL     1       6.355  26.486  53.301  1.00  0.00    -0.222 NA
HETATM    8  C   UNL     1       6.276  25.116  53.111  1.00  0.00     0.076 A 
HETATM    9  C   UNL     1       5.495  24.723  52.039  1.00  0.00     0.085 A 
HETATM   10  S   UNL     1       4.779  26.102  51.304  1.00  0.00    -0.060 SA
BRANCH   8  11
HETATM   11  C   UNL     1       6.921  24.204  54.044  1.00  0.00    -0.007 A 
HETATM   12  C   UNL     1       7.016  24.577  55.393  1.00  0.00     0.016 A 
HETATM   13  C   UNL     1       7.606  23.729  56.337  1.00  0.00     0.037 A 
HETATM   14  C   UNL     1       8.121  22.497  55.940  1.00  0.00     0.068 A 
HETATM   15  C   UNL     1       8.026  22.119  54.598  1.00  0.00     0.037 A 
HETATM   16  C   UNL     1       7.434  22.964  53.652  1.00  0.00     0.016 A 
BRANCH  14  17
HETATM   17  O   UNL     1       8.726  21.583  56.757  1.00  0.00    -0.356 OA
HETATM   18  C   UNL     1       9.051  20.326  56.175  1.00  0.00     0.210 C 
ENDBRANCH  14  17
ENDBRANCH   8  11
ENDBRANCH   1   6
BRANCH   1  19
HETATM   19  N   UNL     1       4.390  28.901  53.471  1.00  0.00    -0.142 NA
HETATM   20  C   UNL     1       4.778  28.957  54.793  1.00  0.00     0.317 C 
HETATM   21  N   UNL     1       6.034  29.463  55.001  1.00  0.00    -0.312 N 
HETATM   22  O   UNL     1       3.978  28.604  55.656  1.00  0.00    -0.252 OA
HETATM   23  H   UNL     1       6.421  29.952  54.197  1.00  0.00     0.170 HD
HETATM   24  H   UNL     1       3.476  28.462  53.367  1.00  0.00     0.158 HD
BRANCH  21  25
HETATM   25  C   UNL     1       6.706  29.633  56.226  1.00  0.00     0.036 A 
HETATM   26  C   UNL     1       7.748  28.809  56.661  1.00  0.00     0.031 A 
HETATM   27  C   UNL     1       8.359  29.035  57.899  1.00  0.00     0.026 A 
HETATM   28  C   UNL     1       7.932  30.089  58.703  1.00  0.00     0.034 A 
HETATM   29 CL   UNL     1       8.680  30.361  60.228  1.00  0.00    -0.084 Cl
HETATM   30  C   UNL     1       6.904  30.923  58.276  1.00  0.00     0.026 A 
HETATM   31  C   UNL     1       6.295  30.697  57.039  1.00  0.00     0.031 A 
ENDBRANCH  21  25
ENDBRANCH   1  19
BRANCH   3  32
HETATM   32  C   UNL     1       4.981  29.086  48.824  1.00  0.00     0.086 C 
HETATM   33  C   UNL     1       5.515  28.254  47.651  1.00  0.00     0.025 C 
HETATM   34  C   UNL     1       4.840  26.885  47.534  1.00  0.00     0.002 C 
HETATM   35  C   UNL     1       3.318  26.995  47.507  1.00  0.00     0.000 C 
HETATM   36  C   UNL     1       2.781  27.808  48.680  1.00  0.00     0.002 C 
HETATM   37  C   UNL     1       3.447  29.184  48.763  1.00  0.00     0.025 C 
ENDBRANCH   3  32
TORSDOF 6
ENDMDL
MODEL 7
REMARK VINA RESULT:      -9.3      4.391      9.570
REMARK  6 active torsions:
REMARK  status: ('A' for Active; 'I' for Inactive)
REMARK    1  A    between atoms: O_2  and  C_3 
REMARK    2  A    between atoms: C_6  and  C_7 
REMARK    3  A    between atoms: C_9  and  N_10 
REMARK    4  A    between atoms: N_10  and  N_11 
REMARK       I    between atoms: N_10  and  C_22 
REMARK       I    between atoms: N_11  and  C_12 
REMARK       I    between atoms: C_12  and  N_13 
REMARK    5  A    between atoms: N_13  and  C_14 
REMARK       I    between atoms: C_22  and  N_23 
REMARK    6  A    between atoms: N_23  and  C_24 
ROOT
HETATM    1  N   UNL     1       5.214  32.735  60.241  1.00  0.00    -0.195 N 
HETATM    2  C   UNL     1       4.552  33.819  59.644  1.00  0.00     0.340 C 
HETATM    3  N   UNL     1       4.794  34.038  58.305  1.00  0.00    -0.337 N 
HETATM    4  O   UNL     1       3.732  34.501  60.268  1.00  0.00    -0.245 OA
HETATM    5  H   UNL     1       5.302  33.318  57.813  1.00  0.00     0.164 HD
ENDROOT
BRANCH   1   6
HETATM    6  C   UNL     1       6.161  31.983  59.558  1.00  0.00     0.193 A 
HETATM    7  N   UNL     1       5.874  31.145  58.590  1.00  0.00    -0.222 NA
HETATM    8  C   UNL     1       7.044  30.632  58.054  1.00  0.00     0.076 A 
HETATM    9  C   UNL     1       8.197  30.997  58.724  1.00  0.00     0.085 A 
HETATM   10  S   UNL     1       7.809  32.075  60.006  1.00  0.00    -0.060 SA
BRANCH   8  11
HETATM   11  C   UNL     1       7.011  29.839  56.834  1.00  0.00    -0.007 A 
HETATM   12  C   UNL     1       5.779  29.643  56.192  1.00  0.00     0.016 A 
HETATM   13  C   UNL     1       5.694  28.909  55.004  1.00  0.00     0.037 A 
HETATM   14  C   UNL     1       6.842  28.350  54.446  1.00  0.00     0.068 A 
HETATM   15  C   UNL     1       8.072  28.545  55.080  1.00  0.00     0.037 A 
HETATM   16  C   UNL     1       8.161  29.282  56.267  1.00  0.00     0.016 A 
BRANCH  14  17
HETATM   17  O   UNL     1       6.894  27.608  53.299  1.00  0.00    -0.356 OA
HETATM   18  C   UNL     1       7.461  26.307  53.407  1.00  0.00     0.210 C 
ENDBRANCH  14  17
ENDBRANCH   8  11
ENDBRANCH   1   6
BRANCH   1  19
HETATM   19  N   UNL     1       4.419  31.964  61.157  1.00  0.00    -0.142 NA
HETATM   20  C   UNL     1       4.700  31.989  62.507  1.00  0.00     0.317 C 
HETATM   21  N   UNL     1       5.002  33.228  63.007  1.00  0.00    -0.312 N 
HETATM   22  O   UNL     1       4.617  30.942  63.144  1.00  0.00    -0.252 OA
HETATM   23  H   UNL     1       4.747  33.996  62.389  1.00  0.00     0.170 HD
HETATM   24  H   UNL     1       4.263  31.013  60.825  1.00  0.00     0.158 HD
BRANCH  21  25
HETATM   25  C   UNL     1       5.340  33.568  64.331  1.00  0.00     0.036 A 
HETATM   26  C   UNL     1       4.399  33.853  65.324  1.00  0.00     0.031 A 
HETATM   27  C   UNL     1       4.814  34.194  66.615  1.00  0.00     0.026 A 
HETATM   28  C   UNL     1       6.172  34.246  66.918  1.00  0.00     0.034 A 
HETATM   29 CL   UNL     1       6.681  34.674  68.505  1.00  0.00    -0.084 Cl
HETATM   30  C   UNL     1       7.119  33.953  65.941  1.00  0.00     0.026 A 
HETATM   31  C   UNL     1       6.702  33.611  64.652  1.00  0.00     0.031 A 
ENDBRANCH  21  25
ENDBRANCH   1  19
BRANCH   3  32
HETATM   32  C   UNL     1       3.881  34.823  57.481  1.00  0.00     0.086 C 
HETATM   33  C   UNL     1       4.655  35.581  56.394  1.00  0.00     0.025 C 
HETATM   34  C   UNL     1       5.226  34.659  55.314  1.00  0.00     0.002 C 
HETATM   35  C   UNL     1       4.160  33.743  54.719  1.00  0.00     0.000 C 
HETATM   36  C   UNL     1       3.399  32.974  55.795  1.00  0.00     0.002 C 
HETATM   37  C   UNL     1       2.812  33.915  56.849  1.00  0.00     0.025 C 
ENDBRANCH   3  32
TORSDOF 6
ENDMDL
MODEL 8
REMARK VINA RESULT:      -9.1      4.095      6.724
REMARK  6 active torsions:
REMARK  status: ('A' for Active; 'I' for Inactive)
REMARK    1  A    between atoms: O_2  and  C_3 
REMARK    2  A    between atoms: C_6  and  C_7 
REMARK    3  A    between atoms: C_9  and  N_10 
REMARK    4  A    between atoms: N_10  and  N_11 
REMARK       I    between atoms: N_10  and  C_22 
REMARK       I    between atoms: N_11  and  C_12 
REMARK       I    between atoms: C_12  and  N_13 
REMARK    5  A    between atoms: N_13  and  C_14 
REMARK       I    between atoms: C_22  and  N_23 
REMARK    6  A    between atoms: N_23  and  C_24 
ROOT
HETATM    1  N   UNL     1       5.524  27.283  53.916  1.00  0.00    -0.195 N 
HETATM    2  C   UNL     1       5.586  25.883  53.840  1.00  0.00     0.340 C 
HETATM    3  N   UNL     1       6.565  25.261  54.586  1.00  0.00    -0.337 N 
HETATM    4  O   UNL     1       4.758  25.230  53.196  1.00  0.00    -0.245 OA
HETATM    5  H   UNL     1       7.063  25.836  55.249  1.00  0.00     0.164 HD
ENDROOT
BRANCH   1   6
HETATM    6  C   UNL     1       6.468  28.027  54.610  1.00  0.00     0.193 A 
HETATM    7  N   UNL     1       6.193  28.775  55.653  1.00  0.00    -0.222 NA
HETATM    8  C   UNL     1       7.365  29.303  56.170  1.00  0.00     0.076 A 
HETATM    9  C   UNL     1       8.498  29.046  55.420  1.00  0.00     0.085 A 
HETATM   10  S   UNL     1       8.094  28.051  54.078  1.00  0.00    -0.060 SA
BRANCH   8  11
HETATM   11  C   UNL     1       7.358  29.998  57.449  1.00  0.00    -0.007 A 
HETATM   12  C   UNL     1       8.358  29.696  58.386  1.00  0.00     0.016 A 
HETATM   13  C   UNL     1       8.412  30.350  59.621  1.00  0.00     0.037 A 
HETATM   14  C   UNL     1       7.456  31.312  59.942  1.00  0.00     0.068 A 
HETATM   15  C   UNL     1       6.460  31.619  59.012  1.00  0.00     0.037 A 
HETATM   16  C   UNL     1       6.405  30.968  57.773  1.00  0.00     0.016 A 
BRANCH  14  17
HETATM   17  O   UNL     1       7.391  32.015  61.112  1.00  0.00    -0.356 OA
HETATM   18  C   UNL     1       6.210  32.778  61.332  1.00  0.00     0.210 C 
ENDBRANCH  14  17
ENDBRANCH   8  11
ENDBRANCH   1   6
BRANCH   1  19
HETATM   19  N   UNL     1       4.197  27.831  53.985  1.00  0.00    -0.142 NA
HETATM   20  C   UNL     1       3.693  28.561  52.928  1.00  0.00     0.317 C 
HETATM   21  N   UNL     1       3.971  28.043  51.690  1.00  0.00    -0.312 N 
HETATM   22  O   UNL     1       3.020  29.558  53.170  1.00  0.00    -0.252 OA
HETATM   23  H   UNL     1       4.294  27.077  51.709  1.00  0.00     0.170 HD
HETATM   24  H   UNL     1       4.016  28.290  54.876  1.00  0.00     0.158 HD
BRANCH  21  25
HETATM   25  C   UNL     1       3.606  28.562  50.434  1.00  0.00     0.036 A 
HETATM   26  C   UNL     1       2.296  28.574  49.949  1.00  0.00     0.031 A 
HETATM   27  C   UNL     1       2.014  29.098  48.683  1.00  0.00     0.026 A 
HETATM   28  C   UNL     1       3.042  29.615  47.900  1.00  0.00     0.034 A 
HETATM   29 CL   UNL     1       2.695  30.252  46.340  1.00  0.00    -0.084 Cl
HETATM   30  C   UNL     1       4.350  29.620  48.376  1.00  0.00     0.026 A 
HETATM   31  C   UNL     1       4.629  29.097  49.641  1.00  0.00     0.031 A 
ENDBRANCH  21  25
ENDBRANCH   1  19
BRANCH   3  32
HETATM   32  C   UNL     1       6.479  23.847  54.935  1.00  0.00     0.086 C 
HETATM   33  C   UNL     1       7.074  22.980  53.818  1.00  0.00     0.025 C 
HETATM   34  C   UNL     1       8.595  23.110  53.708  1.00  0.00     0.002 C 
HETATM   35  C   UNL     1       9.291  22.873  55.045  1.00  0.00     0.000 C 
HETATM   36  C   UNL     1       8.713  23.745  56.155  1.00  0.00     0.002 C 
HETATM   37  C   UNL     1       7.196  23.579  56.268  1.00  0.00     0.025 C 
ENDBRANCH   3  32
TORSDOF 6
ENDMDL
MODEL 9
REMARK VINA RESULT:      -9.0      5.088      8.695
REMARK  6 active torsions:
REMARK  status: ('A' for Active; 'I' for Inactive)
REMARK    1  A    between atoms: O_2  and  C_3 
REMARK    2  A    between atoms: C_6  and  C_7 
REMARK    3  A    between atoms: C_9  and  N_10 
REMARK    4  A    between atoms: N_10  and  N_11 
REMARK       I    between atoms: N_10  and  C_22 
REMARK       I    between atoms: N_11  and  C_12 
REMARK       I    between atoms: C_12  and  N_13 
REMARK    5  A    between atoms: N_13  and  C_14 
REMARK       I    between atoms: C_22  and  N_23 
REMARK    6  A    between atoms: N_23  and  C_24 
ROOT
HETATM    1  N   UNL     1       5.289  28.597  52.647  1.00  0.00    -0.195 N 
HETATM    2  C   UNL     1       5.099  29.077  53.952  1.00  0.00     0.340 C 
HETATM    3  N   UNL     1       5.520  28.266  54.984  1.00  0.00    -0.337 N 
HETATM    4  O   UNL     1       4.645  30.206  54.168  1.00  0.00    -0.245 OA
HETATM    5  H   UNL     1       6.073  27.461  54.730  1.00  0.00     0.164 HD
ENDROOT
BRANCH   1   6
HETATM    6  C   UNL     1       5.768  27.318  52.395  1.00  0.00     0.193 A 
HETATM    7  N   UNL     1       6.573  26.663  53.199  1.00  0.00    -0.222 NA
HETATM    8  C   UNL     1       6.783  25.384  52.709  1.00  0.00     0.076 A 
HETATM    9  C   UNL     1       6.232  25.143  51.464  1.00  0.00     0.085 A 
HETATM   10  S   UNL     1       5.362  26.527  50.934  1.00  0.00    -0.060 SA
BRANCH   8  11
HETATM   11  C   UNL     1       7.470  24.389  53.519  1.00  0.00    -0.007 A 
HETATM   12  C   UNL     1       7.900  23.202  52.906  1.00  0.00     0.016 A 
HETATM   13  C   UNL     1       8.584  22.222  53.632  1.00  0.00     0.037 A 
HETATM   14  C   UNL     1       8.839  22.411  54.989  1.00  0.00     0.068 A 
HETATM   15  C   UNL     1       8.415  23.592  55.604  1.00  0.00     0.037 A 
HETATM   16  C   UNL     1       7.733  24.576  54.879  1.00  0.00     0.016 A 
BRANCH  14  17
HETATM   17  O   UNL     1       9.488  21.532  55.811  1.00  0.00    -0.356 OA
HETATM   18  C   UNL     1       8.670  20.701  56.627  1.00  0.00     0.210 C 
ENDBRANCH  14  17
ENDBRANCH   8  11
ENDBRANCH   1   6
BRANCH   1  19
HETATM   19  N   UNL     1       5.737  29.577  51.696  1.00  0.00    -0.142 NA
HETATM   20  C   UNL     1       5.124  29.676  50.464  1.00  0.00     0.317 C 
HETATM   21  N   UNL     1       3.758  29.577  50.494  1.00  0.00    -0.312 N 
HETATM   22  O   UNL     1       5.822  29.884  49.475  1.00  0.00    -0.252 OA
HETATM   23  H   UNL     1       3.356  29.687  51.423  1.00  0.00     0.170 HD
HETATM   24  H   UNL     1       6.752  29.595  51.611  1.00  0.00     0.158 HD
BRANCH  21  25
HETATM   25  C   UNL     1       2.864  29.628  49.408  1.00  0.00     0.036 A 
HETATM   26  C   UNL     1       2.430  30.816  48.815  1.00  0.00     0.031 A 
HETATM   27  C   UNL     1       1.529  30.785  47.744  1.00  0.00     0.026 A 
HETATM   28  C   UNL     1       1.063  29.565  47.263  1.00  0.00     0.034 A 
HETATM   29 CL   UNL     1      -0.051  29.529  45.953  1.00  0.00    -0.084 Cl
HETATM   30  C   UNL     1       1.496  28.374  47.838  1.00  0.00     0.026 A 
HETATM   31  C   UNL     1       2.397  28.407  48.906  1.00  0.00     0.031 A 
ENDBRANCH  21  25
ENDBRANCH   1  19
BRANCH   3  32
HETATM   32  C   UNL     1       5.777  28.796  56.318  1.00  0.00     0.086 C 
HETATM   33  C   UNL     1       5.690  27.679  57.367  1.00  0.00     0.025 C 
HETATM   34  C   UNL     1       6.847  26.681  57.275  1.00  0.00     0.002 C 
HETATM   35  C   UNL     1       8.206  27.375  57.294  1.00  0.00     0.000 C 
HETATM   36  C   UNL     1       8.304  28.475  56.242  1.00  0.00     0.002 C 
HETATM   37  C   UNL     1       7.155  29.478  56.369  1.00  0.00     0.025 C 
ENDBRANCH   3  32
TORSDOF 6
ENDMDL
MODEL 10
REMARK VINA RESULT:      -8.9      4.127      8.957
REMARK  6 active torsions:
REMARK  status: ('A' for Active; 'I' for Inactive)
REMARK    1  A    between atoms: O_2  and  C_3 
REMARK    2  A    between atoms: C_6  and  C_7 
REMARK    3  A    between atoms: C_9  and  N_10 
REMARK    4  A    between atoms: N_10  and  N_11 
REMARK       I    between atoms: N_10  and  C_22 
REMARK       I    between atoms: N_11  and  C_12 
REMARK       I    between atoms: C_12  and  N_13 
REMARK    5  A    between atoms: N_13  and  C_14 
REMARK       I    between atoms: C_22  and  N_23 
REMARK    6  A    between atoms: N_23  and  C_24 
ROOT
HETATM    1  N   UNL     1       4.509  30.491  56.613  1.00  0.00    -0.195 N 
HETATM    2  C   UNL     1       4.166  30.762  55.280  1.00  0.00     0.340 C 
HETATM    3  N   UNL     1       4.767  29.987  54.310  1.00  0.00    -0.337 N 
HETATM    4  O   UNL     1       3.310  31.604  54.987  1.00  0.00    -0.245 OA
HETATM    5  H   UNL     1       5.286  29.183  54.631  1.00  0.00     0.164 HD
ENDROOT
BRANCH   1   6
HETATM    6  C   UNL     1       5.493  29.570  56.948  1.00  0.00     0.193 A 
HETATM    7  N   UNL     1       5.423  28.288  56.676  1.00  0.00    -0.222 NA
HETATM    8  C   UNL     1       6.602  27.666  57.053  1.00  0.00     0.076 A 
HETATM    9  C   UNL     1       7.495  28.476  57.729  1.00  0.00     0.085 A 
HETATM   10  S   UNL     1       6.873  30.077  57.822  1.00  0.00    -0.060 SA
BRANCH   8  11
HETATM   11  C   UNL     1       6.862  26.285  56.671  1.00  0.00    -0.007 A 
HETATM   12  C   UNL     1       6.241  25.777  55.520  1.00  0.00     0.016 A 
HETATM   13  C   UNL     1       6.474  24.465  55.094  1.00  0.00     0.037 A 
HETATM   14  C   UNL     1       7.324  23.636  55.824  1.00  0.00     0.068 A 
HETATM   15  C   UNL     1       7.946  24.138  56.970  1.00  0.00     0.037 A 
HETATM   16  C   UNL     1       7.718  25.452  57.396  1.00  0.00     0.016 A 
BRANCH  14  17
HETATM   17  O   UNL     1       7.628  22.338  55.523  1.00  0.00    -0.356 OA
HETATM   18  C   UNL     1       8.419  21.633  56.472  1.00  0.00     0.210 C 
ENDBRANCH  14  17
ENDBRANCH   8  11
ENDBRANCH   1   6
BRANCH   1  19
HETATM   19  N   UNL     1       3.414  30.527  57.543  1.00  0.00    -0.142 NA
HETATM   20  C   UNL     1       3.559  31.165  58.758  1.00  0.00     0.317 C 
HETATM   21  N   UNL     1       4.225  32.362  58.701  1.00  0.00    -0.312 N 
HETATM   22  O   UNL     1       3.059  30.652  59.754  1.00  0.00    -0.252 OA
HETATM   23  H   UNL     1       4.311  32.742  57.761  1.00  0.00     0.170 HD
HETATM   24  H   UNL     1       2.969  29.617  57.650  1.00  0.00     0.158 HD
BRANCH  21  25
HETATM   25  C   UNL     1       4.534  33.230  59.764  1.00  0.00     0.036 A 
HETATM   26  C   UNL     1       3.841  34.414  60.027  1.00  0.00     0.031 A 
HETATM   27  C   UNL     1       4.217  35.232  61.099  1.00  0.00     0.026 A 
HETATM   28  C   UNL     1       5.285  34.864  61.912  1.00  0.00     0.034 A 
HETATM   29 CL   UNL     1       5.750  35.874  63.225  1.00  0.00    -0.084 Cl
HETATM   30  C   UNL     1       5.976  33.681  61.668  1.00  0.00     0.026 A 
HETATM   31  C   UNL     1       5.598  32.865  60.599  1.00  0.00     0.031 A 
ENDBRANCH  21  25
ENDBRANCH   1  19
BRANCH   3  32
HETATM   32  C   UNL     1       4.204  29.865  52.970  1.00  0.00     0.086 C 
HETATM   33  C   UNL     1       5.320  29.694  51.931  1.00  0.00     0.025 C 
HETATM   34  C   UNL     1       6.020  28.336  52.025  1.00  0.00     0.002 C 
HETATM   35  C   UNL     1       5.030  27.175  51.993  1.00  0.00     0.000 C 
HETATM   36  C   UNL     1       3.927  27.333  53.036  1.00  0.00     0.002 C 
HETATM   37  C   UNL     1       3.221  28.685  52.906  1.00  0.00     0.025 C 
ENDBRANCH   3  32
TORSDOF 6
ENDMDL
