MODEL 1
REMARK VINA RESULT:      -9.7      0.000      0.000
REMARK  5 active torsions:
REMARK  status: ('A' for Active; 'I' for Inactive)
REMARK    1  A    between atoms: C_2  and  C_3 
REMARK    2  A    between atoms: N_4  and  C_6 
REMARK    3  A    between atoms: C_6  and  C_7 
REMARK    4  A    between atoms: N_14  and  C_16 
REMARK    5  A    between atoms: C_16  and  C_17 
ROOT
HETATM    1  C   UNL     1       4.879  27.615  51.282  1.00  0.00    -0.032 A 
HETATM    2  C   UNL     1       5.939  27.229  52.132  1.00  0.00     0.020 A 
HETATM    3  C   UNL     1       5.992  27.644  53.479  1.00  0.00     0.002 A 
HETATM    4  C   UNL     1       4.967  28.460  53.959  1.00  0.00     0.076 A 
HETATM    5  O   UNL     1       4.991  28.945  55.234  1.00  0.00    -0.349 OA
HETATM    6  C   UNL     1       4.732  27.921  56.202  1.00  0.00     0.203 C 
HETATM    7  C   UNL     1       6.033  27.264  56.671  1.00  0.00     0.262 C 
HETATM    8  N   UNL     1       6.703  26.418  55.594  1.00  0.00    -0.061 N 
HETATM    9  H   UNL     1       7.582  26.110  56.028  1.00  0.00     0.280 HD
HETATM   10  C   UNL     1       7.122  27.235  54.388  1.00  0.00     0.276 C 
HETATM   11  C   UNL     1       3.916  28.857  53.137  1.00  0.00     0.038 A 
HETATM   12  C   UNL     1       3.856  28.415  51.814  1.00  0.00     0.011 A 
ENDROOT
BRANCH   1  13
HETATM   13  C   UNL     1       4.829  27.106  49.855  1.00  0.00     0.274 C 
BRANCH  13  14
HETATM   14  N   UNL     1       3.782  27.735  48.974  1.00  0.00    -0.053 N 
HETATM   15  C   UNL     1       2.709  26.729  48.454  1.00  0.00     0.279 C 
HETATM   16  C   UNL     1       1.607  27.465  47.661  1.00  0.00     0.248 C 
HETATM   17  N   UNL     1       2.002  28.528  46.888  1.00  0.00    -0.358 N 
HETATM   18  O   UNL     1       0.442  27.091  47.659  1.00  0.00    -0.271 OA
HETATM   19  C   UNL     1       3.168  29.346  47.177  1.00  0.00     0.150 C 
HETATM   20  H   UNL     1       1.228  28.962  46.386  1.00  0.00     0.162 HD
HETATM   21  C   UNL     1       4.327  28.588  47.839  1.00  0.00     0.256 C 
HETATM   22  H   UNL     1       3.237  28.368  49.569  1.00  0.00     0.281 HD
BRANCH  15  23
HETATM   23  C   UNL     1       3.352  25.627  47.596  1.00  0.00     0.038 C 
HETATM   24  C   UNL     1       2.991  24.226  48.079  1.00  0.00     0.007 C 
ENDBRANCH  15  23
ENDBRANCH  13  14
ENDBRANCH   1  13
BRANCH   8  25
HETATM   25  C   UNL     1       5.977  25.147  55.215  1.00  0.00     0.274 C 
BRANCH  25  26
HETATM   26  C   UNL     1       6.869  24.049  54.705  1.00  0.00    -0.029 A 
HETATM   27  C   UNL     1       7.631  23.273  55.593  1.00  0.00     0.054 A 
HETATM   28  C   UNL     1       8.462  22.264  55.105  1.00  0.00     0.155 A 
HETATM   29  F   UNL     1       9.177  21.540  55.974  1.00  0.00    -0.203 F 
HETATM   30  C   UNL     1       8.546  22.015  53.743  1.00  0.00     0.154 A 
HETATM   31  F   UNL     1       9.344  21.047  53.279  1.00  0.00    -0.203 F 
HETATM   32  C   UNL     1       7.800  22.774  52.848  1.00  0.00     0.046 A 
HETATM   33  C   UNL     1       6.963  23.788  53.325  1.00  0.00     0.012 A 
ENDBRANCH  25  26
ENDBRANCH   8  25
TORSDOF 5
ENDMDL
MODEL 2
REMARK VINA RESULT:      -9.1      6.459     10.836
REMARK  5 active torsions:
REMARK  status: ('A' for Active; 'I' for Inactive)
REMARK    1  A    between atoms: C_2  and  C_3 
REMARK    2  A    between atoms: N_4  and  C_6 
REMARK    3  A    between atoms: C_6  and  C_7 
REMARK    4  A    between atoms: N_14  and  C_16 
REMARK    5  A    between atoms: C_16  and  C_17 
ROOT
HETATM    1  C   UNL     1       7.830  31.585  60.920  1.00  0.00    -0.032 A 
HETATM    2  C   UNL     1       7.398  31.145  59.649  1.00  0.00     0.020 A 
HETATM    3  C   UNL     1       8.286  31.067  58.556  1.00  0.00     0.002 A 
HETATM    4  C   UNL     1       9.615  31.444  58.756  1.00  0.00     0.076 A 
HETATM    5  O   UNL     1      10.509  31.448  57.725  1.00  0.00    -0.349 OA
HETATM    6  C   UNL     1      10.866  30.121  57.321  1.00  0.00     0.203 C 
HETATM    7  C   UNL     1       9.939  29.614  56.214  1.00  0.00     0.262 C 
HETATM    8  N   UNL     1       8.517  29.347  56.693  1.00  0.00    -0.061 N 
HETATM    9  H   UNL     1       8.009  29.088  55.838  1.00  0.00     0.280 HD
HETATM   10  C   UNL     1       7.828  30.599  57.199  1.00  0.00     0.276 C 
HETATM   11  C   UNL     1      10.060  31.885  60.000  1.00  0.00     0.038 A 
HETATM   12  C   UNL     1       9.181  31.930  61.083  1.00  0.00     0.011 A 
ENDROOT
BRANCH   1  13
HETATM   13  C   UNL     1       6.859  31.606  62.084  1.00  0.00     0.274 C 
BRANCH  13  14
HETATM   14  N   UNL     1       5.780  32.656  62.015  1.00  0.00    -0.053 N 
HETATM   15  C   UNL     1       5.995  33.844  63.003  1.00  0.00     0.279 C 
HETATM   16  C   UNL     1       4.921  34.934  62.791  1.00  0.00     0.248 C 
HETATM   17  N   UNL     1       3.655  34.505  62.475  1.00  0.00    -0.358 N 
HETATM   18  O   UNL     1       5.154  36.124  62.956  1.00  0.00    -0.271 OA
HETATM   19  C   UNL     1       3.375  33.257  61.787  1.00  0.00     0.150 C 
HETATM   20  H   UNL     1       2.995  35.273  62.358  1.00  0.00     0.162 HD
HETATM   21  C   UNL     1       4.359  32.123  62.103  1.00  0.00     0.256 C 
HETATM   22  H   UNL     1       5.861  33.102  61.095  1.00  0.00     0.281 HD
BRANCH  15  23
HETATM   23  C   UNL     1       5.996  33.360  64.463  1.00  0.00     0.038 C 
HETATM   24  C   UNL     1       7.268  33.753  65.207  1.00  0.00     0.007 C 
ENDBRANCH  15  23
ENDBRANCH  13  14
ENDBRANCH   1  13
BRANCH   8  25
HETATM   25  C   UNL     1       8.352  28.171  57.628  1.00  0.00     0.274 C 
BRANCH  25  26
HETATM   26  C   UNL     1       7.952  26.888  56.952  1.00  0.00    -0.029 A 
HETATM   27  C   UNL     1       8.303  25.647  57.505  1.00  0.00     0.054 A 
HETATM   28  C   UNL     1       7.934  24.464  56.863  1.00  0.00     0.155 A 
HETATM   29  F   UNL     1       8.282  23.295  57.412  1.00  0.00    -0.203 F 
HETATM   30  C   UNL     1       7.220  24.501  55.674  1.00  0.00     0.154 A 
HETATM   31  F   UNL     1       6.868  23.365  55.060  1.00  0.00    -0.203 F 
HETATM   32  C   UNL     1       6.865  25.721  55.110  1.00  0.00     0.046 A 
HETATM   33  C   UNL     1       7.228  26.912  55.745  1.00  0.00     0.012 A 
ENDBRANCH  25  26
ENDBRANCH   8  25
TORSDOF 5
ENDMDL
MODEL 3
REMARK VINA RESULT:      -9.1      4.556      7.944
REMARK  5 active torsions:
REMARK  status: ('A' for Active; 'I' for Inactive)
REMARK    1  A    between atoms: C_2  and  C_3 
REMARK    2  A    between atoms: N_4  and  C_6 
REMARK    3  A    between atoms: C_6  and  C_7 
REMARK    4  A    between atoms: N_14  and  C_16 
REMARK    5  A    between atoms: C_16  and  C_17 
ROOT
HETATM    1  C   UNL     1       7.382  24.715  52.956  1.00  0.00    -0.032 A 
HETATM    2  C   UNL     1       7.624  26.080  53.226  1.00  0.00     0.020 A 
HETATM    3  C   UNL     1       6.604  27.046  53.106  1.00  0.00     0.002 A 
HETATM    4  C   UNL     1       5.337  26.622  52.703  1.00  0.00     0.076 A 
HETATM    5  O   UNL     1       4.323  27.516  52.509  1.00  0.00    -0.349 OA
HETATM    6  C   UNL     1       3.835  28.048  53.746  1.00  0.00     0.203 C 
HETATM    7  C   UNL     1       4.583  29.327  54.129  1.00  0.00     0.262 C 
HETATM    8  N   UNL     1       6.034  29.082  54.526  1.00  0.00    -0.061 N 
HETATM    9  H   UNL     1       6.414  30.023  54.681  1.00  0.00     0.280 HD
HETATM   10  C   UNL     1       6.858  28.503  53.392  1.00  0.00     0.276 C 
HETATM   11  C   UNL     1       5.078  25.282  52.425  1.00  0.00     0.038 A 
HETATM   12  C   UNL     1       6.087  24.329  52.578  1.00  0.00     0.011 A 
ENDROOT
BRANCH   1  13
HETATM   13  C   UNL     1       8.490  23.698  53.147  1.00  0.00     0.274 C 
BRANCH  13  14
HETATM   14  N   UNL     1       8.619  23.125  54.534  1.00  0.00    -0.053 N 
HETATM   15  C   UNL     1       8.900  21.591  54.558  1.00  0.00     0.279 C 
HETATM   16  C   UNL     1       9.138  21.100  56.003  1.00  0.00     0.248 C 
HETATM   17  N   UNL     1       8.390  21.690  56.991  1.00  0.00    -0.358 N 
HETATM   18  O   UNL     1       9.906  20.184  56.265  1.00  0.00    -0.271 OA
HETATM   19  C   UNL     1       7.863  23.042  56.905  1.00  0.00     0.150 C 
HETATM   20  H   UNL     1       8.590  21.315  57.917  1.00  0.00     0.162 HD
HETATM   21  C   UNL     1       7.489  23.488  55.485  1.00  0.00     0.256 C 
HETATM   22  H   UNL     1       9.472  23.524  54.940  1.00  0.00     0.281 HD
BRANCH  15  23
HETATM   23  C   UNL     1       7.753  20.806  53.900  1.00  0.00     0.038 C 
HETATM   24  C   UNL     1       8.140  20.236  52.539  1.00  0.00     0.007 C 
ENDBRANCH  15  23
ENDBRANCH  13  14
ENDBRANCH   1  13
BRANCH   8  25
HETATM   25  C   UNL     1       6.240  28.347  55.831  1.00  0.00     0.274 C 
BRANCH  25  26
HETATM   26  C   UNL     1       7.213  29.005  56.770  1.00  0.00    -0.029 A 
HETATM   27  C   UNL     1       6.758  29.815  57.822  1.00  0.00     0.054 A 
HETATM   28  C   UNL     1       7.673  30.427  58.680  1.00  0.00     0.155 A 
HETATM   29  F   UNL     1       7.212  31.193  59.675  1.00  0.00    -0.203 F 
HETATM   30  C   UNL     1       9.037  30.245  58.504  1.00  0.00     0.154 A 
HETATM   31  F   UNL     1       9.911  30.834  59.328  1.00  0.00    -0.203 F 
HETATM   32  C   UNL     1       9.506  29.447  57.466  1.00  0.00     0.046 A 
HETATM   33  C   UNL     1       8.599  28.828  56.601  1.00  0.00     0.012 A 
ENDBRANCH  25  26
ENDBRANCH   8  25
TORSDOF 5
ENDMDL
MODEL 4
REMARK VINA RESULT:      -9.1      3.573      5.504
REMARK  5 active torsions:
REMARK  status: ('A' for Active; 'I' for Inactive)
REMARK    1  A    between atoms: C_2  and  C_3 
REMARK    2  A    between atoms: N_4  and  C_6 
REMARK    3  A    between atoms: C_6  and  C_7 
REMARK    4  A    between atoms: N_14  and  C_16 
REMARK    5  A    between atoms: C_16  and  C_17 
ROOT
HETATM    1  C   UNL     1       5.681  24.917  52.760  1.00  0.00    -0.032 A 
HETATM    2  C   UNL     1       5.277  25.510  53.976  1.00  0.00     0.020 A 
HETATM    3  C   UNL     1       5.919  25.204  55.194  1.00  0.00     0.002 A 
HETATM    4  C   UNL     1       6.970  24.287  55.173  1.00  0.00     0.076 A 
HETATM    5  O   UNL     1       7.592  23.902  56.326  1.00  0.00    -0.349 OA
HETATM    6  C   UNL     1       8.413  24.946  56.865  1.00  0.00     0.203 C 
HETATM    7  C   UNL     1       7.625  25.814  57.849  1.00  0.00     0.262 C 
HETATM    8  N   UNL     1       6.555  26.668  57.178  1.00  0.00    -0.061 N 
HETATM    9  H   UNL     1       6.074  27.127  57.961  1.00  0.00     0.280 HD
HETATM   10  C   UNL     1       5.489  25.834  56.493  1.00  0.00     0.276 C 
HETATM   11  C   UNL     1       7.381  23.686  53.986  1.00  0.00     0.038 A 
HETATM   12  C   UNL     1       6.759  24.019  52.781  1.00  0.00     0.011 A 
ENDROOT
BRANCH   1  13
HETATM   13  C   UNL     1       5.001  25.310  51.463  1.00  0.00     0.274 C 
BRANCH  13  14
HETATM   14  N   UNL     1       4.740  26.783  51.283  1.00  0.00    -0.053 N 
HETATM   15  C   UNL     1       3.921  27.125  50.000  1.00  0.00     0.279 C 
HETATM   16  C   UNL     1       3.590  28.633  49.948  1.00  0.00     0.248 C 
HETATM   17  N   UNL     1       4.548  29.496  50.418  1.00  0.00    -0.358 N 
HETATM   18  O   UNL     1       2.554  29.059  49.454  1.00  0.00    -0.271 OA
HETATM   19  C   UNL     1       5.526  29.141  51.432  1.00  0.00     0.150 C 
HETATM   20  H   UNL     1       4.269  30.474  50.346  1.00  0.00     0.162 HD
HETATM   21  C   UNL     1       5.968  27.672  51.400  1.00  0.00     0.256 C 
HETATM   22  H   UNL     1       4.110  27.066  52.043  1.00  0.00     0.281 HD
BRANCH  15  23
HETATM   23  C   UNL     1       4.670  26.689  48.731  1.00  0.00     0.038 C 
HETATM   24  C   UNL     1       3.764  25.973  47.735  1.00  0.00     0.007 C 
ENDBRANCH  15  23
ENDBRANCH  13  14
ENDBRANCH   1  13
BRANCH   8  25
HETATM   25  C   UNL     1       7.067  27.791  56.307  1.00  0.00     0.274 C 
BRANCH  25  26
HETATM   26  C   UNL     1       7.909  28.806  57.030  1.00  0.00    -0.029 A 
HETATM   27  C   UNL     1       9.283  28.916  56.764  1.00  0.00     0.054 A 
HETATM   28  C   UNL     1      10.056  29.856  57.449  1.00  0.00     0.155 A 
HETATM   29  F   UNL     1      11.362  29.939  57.176  1.00  0.00    -0.203 F 
HETATM   30  C   UNL     1       9.478  30.687  58.397  1.00  0.00     0.154 A 
HETATM   31  F   UNL     1      10.221  31.586  59.053  1.00  0.00    -0.203 F 
HETATM   32  C   UNL     1       8.119  30.591  58.675  1.00  0.00     0.046 A 
HETATM   33  C   UNL     1       7.335  29.654  57.995  1.00  0.00     0.012 A 
ENDBRANCH  25  26
ENDBRANCH   8  25
TORSDOF 5
ENDMDL
MODEL 5
REMARK VINA RESULT:      -9.1      3.583      5.245
REMARK  5 active torsions:
REMARK  status: ('A' for Active; 'I' for Inactive)
REMARK    1  A    between atoms: C_2  and  C_3 
REMARK    2  A    between atoms: N_4  and  C_6 
REMARK    3  A    between atoms: C_6  and  C_7 
REMARK    4  A    between atoms: N_14  and  C_16 
REMARK    5  A    between atoms: C_16  and  C_17 
ROOT
HETATM    1  C   UNL     1       5.567  26.821  52.099  1.00  0.00    -0.032 A 
HETATM    2  C   UNL     1       5.449  27.184  53.459  1.00  0.00     0.020 A 
HETATM    3  C   UNL     1       5.784  26.286  54.493  1.00  0.00     0.002 A 
HETATM    4  C   UNL     1       6.234  25.012  54.141  1.00  0.00     0.076 A 
HETATM    5  O   UNL     1       6.517  24.077  55.094  1.00  0.00    -0.349 OA
HETATM    6  C   UNL     1       7.719  24.387  55.809  1.00  0.00     0.203 C 
HETATM    7  C   UNL     1       7.420  25.230  57.051  1.00  0.00     0.262 C 
HETATM    8  N   UNL     1       6.959  26.646  56.723  1.00  0.00    -0.061 N 
HETATM    9  H   UNL     1       6.732  27.054  57.638  1.00  0.00     0.280 HD
HETATM   10  C   UNL     1       5.658  26.670  55.944  1.00  0.00     0.276 C 
HETATM   11  C   UNL     1       6.352  24.632  52.807  1.00  0.00     0.038 A 
HETATM   12  C   UNL     1       6.047  25.539  51.791  1.00  0.00     0.011 A 
ENDROOT
BRANCH   1  13
HETATM   13  C   UNL     1       5.246  27.831  51.015  1.00  0.00     0.274 C 
BRANCH  13  14
HETATM   14  N   UNL     1       3.835  27.801  50.491  1.00  0.00    -0.053 N 
HETATM   15  C   UNL     1       3.728  27.372  48.994  1.00  0.00     0.279 C 
HETATM   16  C   UNL     1       2.249  27.247  48.565  1.00  0.00     0.248 C 
HETATM   17  N   UNL     1       1.369  28.155  49.097  1.00  0.00    -0.358 N 
HETATM   18  O   UNL     1       1.875  26.425  47.739  1.00  0.00    -0.271 OA
HETATM   19  C   UNL     1       1.557  28.801  50.385  1.00  0.00     0.150 C 
HETATM   20  H   UNL     1       0.414  28.022  48.766  1.00  0.00     0.162 HD
HETATM   21  C   UNL     1       3.023  29.059  50.758  1.00  0.00     0.256 C 
HETATM   22  H   UNL     1       3.353  27.041  50.984  1.00  0.00     0.281 HD
BRANCH  15  23
HETATM   23  C   UNL     1       4.478  28.355  48.080  1.00  0.00     0.038 C 
HETATM   24  C   UNL     1       5.591  27.680  47.286  1.00  0.00     0.007 C 
ENDBRANCH  15  23
ENDBRANCH  13  14
ENDBRANCH   1  13
BRANCH   8  25
HETATM   25  C   UNL     1       8.012  27.554  56.130  1.00  0.00     0.274 C 
BRANCH  25  26
HETATM   26  C   UNL     1       8.509  28.625  57.063  1.00  0.00    -0.029 A 
HETATM   27  C   UNL     1       9.771  29.210  56.875  1.00  0.00     0.054 A 
HETATM   28  C   UNL     1      10.223  30.196  57.753  1.00  0.00     0.155 A 
HETATM   29  F   UNL     1      11.430  30.736  57.550  1.00  0.00    -0.203 F 
HETATM   30  C   UNL     1       9.436  30.606  58.819  1.00  0.00     0.154 A 
HETATM   31  F   UNL     1       9.873  31.551  59.659  1.00  0.00    -0.203 F 
HETATM   32  C   UNL     1       8.184  30.037  59.022  1.00  0.00     0.046 A 
HETATM   33  C   UNL     1       7.719  29.049  58.148  1.00  0.00     0.012 A 
ENDBRANCH  25  26
ENDBRANCH   8  25
TORSDOF 5
ENDMDL
MODEL 6
REMARK VINA RESULT:      -9.0      1.538      2.371
REMARK  5 active torsions:
REMARK  status: ('A' for Active; 'I' for Inactive)
REMARK    1  A    between atoms: C_2  and  C_3 
REMARK    2  A    between atoms: N_4  and  C_6 
REMARK    3  A    between atoms: C_6  and  C_7 
REMARK    4  A    between atoms: N_14  and  C_16 
REMARK    5  A    between atoms: C_16  and  C_17 
ROOT
HETATM    1  C   UNL     1       5.124  28.588  52.855  1.00  0.00    -0.032 A 
HETATM    2  C   UNL     1       6.266  27.916  53.346  1.00  0.00     0.020 A 
HETATM    3  C   UNL     1       6.356  27.505  54.692  1.00  0.00     0.002 A 
HETATM    4  C   UNL     1       5.284  27.785  55.541  1.00  0.00     0.076 A 
HETATM    5  O   UNL     1       5.335  27.468  56.867  1.00  0.00    -0.349 OA
HETATM    6  C   UNL     1       5.237  26.055  57.084  1.00  0.00     0.203 C 
HETATM    7  C   UNL     1       6.622  25.404  57.110  1.00  0.00     0.262 C 
HETATM    8  N   UNL     1       7.309  25.393  55.749  1.00  0.00    -0.061 N 
HETATM    9  H   UNL     1       8.238  24.999  55.940  1.00  0.00     0.280 HD
HETATM   10  C   UNL     1       7.572  26.790  55.219  1.00  0.00     0.276 C 
HETATM   11  C   UNL     1       4.152  28.451  55.079  1.00  0.00     0.038 A 
HETATM   12  C   UNL     1       4.059  28.826  53.737  1.00  0.00     0.011 A 
ENDROOT
BRANCH   1  13
HETATM   13  C   UNL     1       5.042  28.967  51.389  1.00  0.00     0.274 C 
BRANCH  13  14
HETATM   14  N   UNL     1       3.843  28.440  50.645  1.00  0.00    -0.053 N 
HETATM   15  C   UNL     1       4.205  27.641  49.355  1.00  0.00     0.279 C 
HETATM   16  C   UNL     1       2.938  27.031  48.715  1.00  0.00     0.248 C 
HETATM   17  N   UNL     1       1.790  27.780  48.775  1.00  0.00    -0.358 N 
HETATM   18  O   UNL     1       2.956  25.961  48.120  1.00  0.00    -0.271 OA
HETATM   19  C   UNL     1       1.515  28.751  49.820  1.00  0.00     0.150 C 
HETATM   20  H   UNL     1       0.996  27.324  48.327  1.00  0.00     0.162 HD
HETATM   21  C   UNL     1       2.758  29.467  50.364  1.00  0.00     0.256 C 
HETATM   22  H   UNL     1       3.413  27.728  51.245  1.00  0.00     0.281 HD
BRANCH  15  23
HETATM   23  C   UNL     1       4.952  28.527  48.344  1.00  0.00     0.038 C 
HETATM   24  C   UNL     1       5.612  27.717  47.233  1.00  0.00     0.007 C 
ENDBRANCH  15  23
ENDBRANCH  13  14
ENDBRANCH   1  13
BRANCH   8  25
HETATM   25  C   UNL     1       6.693  24.482  54.713  1.00  0.00     0.274 C 
BRANCH  25  26
HETATM   26  C   UNL     1       7.292  23.104  54.659  1.00  0.00    -0.029 A 
HETATM   27  C   UNL     1       7.558  22.485  53.428  1.00  0.00     0.054 A 
HETATM   28  C   UNL     1       8.106  21.202  53.393  1.00  0.00     0.155 A 
HETATM   29  F   UNL     1       8.350  20.637  52.205  1.00  0.00    -0.203 F 
HETATM   30  C   UNL     1       8.392  20.524  54.569  1.00  0.00     0.154 A 
HETATM   31  F   UNL     1       8.916  19.294  54.532  1.00  0.00    -0.203 F 
HETATM   32  C   UNL     1       8.133  21.121  55.798  1.00  0.00     0.046 A 
HETATM   33  C   UNL     1       7.585  22.406  55.846  1.00  0.00     0.012 A 
ENDBRANCH  25  26
ENDBRANCH   8  25
TORSDOF 5
ENDMDL
MODEL 7
REMARK VINA RESULT:      -8.9      4.523      8.840
REMARK  5 active torsions:
REMARK  status: ('A' for Active; 'I' for Inactive)
REMARK    1  A    between atoms: C_2  and  C_3 
REMARK    2  A    between atoms: N_4  and  C_6 
REMARK    3  A    between atoms: C_6  and  C_7 
REMARK    4  A    between atoms: N_14  and  C_16 
REMARK    5  A    between atoms: C_16  and  C_17 
ROOT
HETATM    1  C   UNL     1       7.642  26.722  56.829  1.00  0.00    -0.032 A 
HETATM    2  C   UNL     1       7.697  26.541  55.429  1.00  0.00     0.020 A 
HETATM    3  C   UNL     1       7.990  25.285  54.860  1.00  0.00     0.002 A 
HETATM    4  C   UNL     1       8.233  24.212  55.717  1.00  0.00     0.076 A 
HETATM    5  O   UNL     1       8.581  22.985  55.230  1.00  0.00    -0.349 OA
HETATM    6  C   UNL     1       7.476  22.328  54.598  1.00  0.00     0.203 C 
HETATM    7  C   UNL     1       7.423  22.653  53.103  1.00  0.00     0.262 C 
HETATM    8  N   UNL     1       7.042  24.100  52.814  1.00  0.00    -0.061 N 
HETATM    9  H   UNL     1       7.120  24.181  51.793  1.00  0.00     0.280 HD
HETATM   10  C   UNL     1       8.050  25.089  53.367  1.00  0.00     0.276 C 
HETATM   11  C   UNL     1       8.190  24.369  57.100  1.00  0.00     0.038 A 
HETATM   12  C   UNL     1       7.869  25.610  57.654  1.00  0.00     0.011 A 
ENDROOT
BRANCH   1  13
HETATM   13  C   UNL     1       7.274  28.076  57.403  1.00  0.00     0.274 C 
BRANCH  13  14
HETATM   14  N   UNL     1       8.431  28.982  57.734  1.00  0.00    -0.053 N 
HETATM   15  C   UNL     1       8.062  30.144  58.707  1.00  0.00     0.279 C 
HETATM   16  C   UNL     1       9.319  30.954  59.094  1.00  0.00     0.248 C 
HETATM   17  N   UNL     1      10.268  31.132  58.118  1.00  0.00    -0.358 N 
HETATM   18  O   UNL     1       9.449  31.476  60.193  1.00  0.00    -0.271 OA
HETATM   19  C   UNL     1      10.477  30.206  57.018  1.00  0.00     0.150 C 
HETATM   20  H   UNL     1      11.065  31.682  58.437  1.00  0.00     0.162 HD
HETATM   21  C   UNL     1       9.204  29.500  56.532  1.00  0.00     0.256 C 
HETATM   22  H   UNL     1       9.096  28.424  58.281  1.00  0.00     0.281 HD
BRANCH  15  23
HETATM   23  C   UNL     1       6.992  31.063  58.094  1.00  0.00     0.038 C 
HETATM   24  C   UNL     1       6.204  31.828  59.153  1.00  0.00     0.007 C 
ENDBRANCH  15  23
ENDBRANCH  13  14
ENDBRANCH   1  13
BRANCH   8  25
HETATM   25  C   UNL     1       5.615  24.478  53.138  1.00  0.00     0.274 C 
BRANCH  25  26
HETATM   26  C   UNL     1       5.140  25.743  52.479  1.00  0.00    -0.029 A 
HETATM   27  C   UNL     1       5.224  25.901  51.086  1.00  0.00     0.054 A 
HETATM   28  C   UNL     1       4.789  27.084  50.488  1.00  0.00     0.155 A 
HETATM   29  F   UNL     1       4.881  27.207  49.159  1.00  0.00    -0.203 F 
HETATM   30  C   UNL     1       4.271  28.115  51.258  1.00  0.00     0.154 A 
HETATM   31  F   UNL     1       3.855  29.248  50.681  1.00  0.00    -0.203 F 
HETATM   32  C   UNL     1       4.181  27.978  52.639  1.00  0.00     0.046 A 
HETATM   33  C   UNL     1       4.613  26.797  53.249  1.00  0.00     0.012 A 
ENDBRANCH  25  26
ENDBRANCH   8  25
TORSDOF 5
ENDMDL
MODEL 8
REMARK VINA RESULT:      -8.9      3.012      4.567
REMARK  5 active torsions:
REMARK  status: ('A' for Active; 'I' for Inactive)
REMARK    1  A    between atoms: C_2  and  C_3 
REMARK    2  A    between atoms: N_4  and  C_6 
REMARK    3  A    between atoms: C_6  and  C_7 
REMARK    4  A    between atoms: N_14  and  C_16 
REMARK    5  A    between atoms: C_16  and  C_17 
ROOT
HETATM    1  C   UNL     1       5.127  27.297  50.718  1.00  0.00    -0.032 A 
HETATM    2  C   UNL     1       4.729  27.992  51.881  1.00  0.00     0.020 A 
HETATM    3  C   UNL     1       4.634  27.345  53.130  1.00  0.00     0.002 A 
HETATM    4  C   UNL     1       4.938  25.985  53.194  1.00  0.00     0.076 A 
HETATM    5  O   UNL     1       4.807  25.288  54.360  1.00  0.00    -0.349 OA
HETATM    6  C   UNL     1       5.822  25.637  55.309  1.00  0.00     0.203 C 
HETATM    7  C   UNL     1       5.362  26.785  56.211  1.00  0.00     0.262 C 
HETATM    8  N   UNL     1       5.245  28.117  55.479  1.00  0.00    -0.061 N 
HETATM    9  H   UNL     1       4.864  28.759  56.185  1.00  0.00     0.280 HD
HETATM   10  C   UNL     1       4.209  28.085  54.372  1.00  0.00     0.276 C 
HETATM   11  C   UNL     1       5.326  25.278  52.059  1.00  0.00     0.038 A 
HETATM   12  C   UNL     1       5.448  25.935  50.833  1.00  0.00     0.011 A 
ENDROOT
BRANCH   1  13
HETATM   13  C   UNL     1       5.268  28.038  49.403  1.00  0.00     0.274 C 
BRANCH  13  14
HETATM   14  N   UNL     1       3.978  28.387  48.709  1.00  0.00    -0.053 N 
HETATM   15  C   UNL     1       3.022  27.170  48.509  1.00  0.00     0.279 C 
HETATM   16  C   UNL     1       1.675  27.626  47.903  1.00  0.00     0.248 C 
HETATM   17  N   UNL     1       1.721  28.640  46.979  1.00  0.00    -0.358 N 
HETATM   18  O   UNL     1       0.616  27.076  48.174  1.00  0.00    -0.271 OA
HETATM   19  C   UNL     1       2.756  29.659  46.951  1.00  0.00     0.150 C 
HETATM   20  H   UNL     1       0.801  28.885  46.614  1.00  0.00     0.162 HD
HETATM   21  C   UNL     1       4.136  29.176  47.419  1.00  0.00     0.256 C 
HETATM   22  H   UNL     1       3.452  28.992  49.350  1.00  0.00     0.281 HD
BRANCH  15  23
HETATM   23  C   UNL     1       3.674  26.090  47.630  1.00  0.00     0.038 C 
HETATM   24  C   UNL     1       3.110  24.699  47.900  1.00  0.00     0.007 C 
ENDBRANCH  15  23
ENDBRANCH  13  14
ENDBRANCH   1  13
BRANCH   8  25
HETATM   25  C   UNL     1       6.551  28.737  55.038  1.00  0.00     0.274 C 
BRANCH  25  26
HETATM   26  C   UNL     1       7.428  29.210  56.165  1.00  0.00    -0.029 A 
HETATM   27  C   UNL     1       8.818  29.014  56.122  1.00  0.00     0.054 A 
HETATM   28  C   UNL     1       9.619  29.449  57.179  1.00  0.00     0.155 A 
HETATM   29  F   UNL     1      10.940  29.249  57.112  1.00  0.00    -0.203 F 
HETATM   30  C   UNL     1       9.055  30.075  58.280  1.00  0.00     0.154 A 
HETATM   31  F   UNL     1       9.826  30.490  59.292  1.00  0.00    -0.203 F 
HETATM   32  C   UNL     1       7.681  30.277  58.341  1.00  0.00     0.046 A 
HETATM   33  C   UNL     1       6.868  29.846  57.288  1.00  0.00     0.012 A 
ENDBRANCH  25  26
ENDBRANCH   8  25
TORSDOF 5
ENDMDL
MODEL 9
REMARK VINA RESULT:      -8.6      1.804      2.469
REMARK  5 active torsions:
REMARK  status: ('A' for Active; 'I' for Inactive)
REMARK    1  A    between atoms: C_2  and  C_3 
REMARK    2  A    between atoms: N_4  and  C_6 
REMARK    3  A    between atoms: C_6  and  C_7 
REMARK    4  A    between atoms: N_14  and  C_16 
REMARK    5  A    between atoms: C_16  and  C_17 
ROOT
HETATM    1  C   UNL     1       4.806  27.157  52.072  1.00  0.00    -0.032 A 
HETATM    2  C   UNL     1       5.998  26.667  52.651  1.00  0.00     0.020 A 
HETATM    3  C   UNL     1       6.385  27.029  53.958  1.00  0.00     0.002 A 
HETATM    4  C   UNL     1       5.560  27.897  54.674  1.00  0.00     0.076 A 
HETATM    5  O   UNL     1       5.908  28.333  55.919  1.00  0.00    -0.349 OA
HETATM    6  C   UNL     1       5.796  27.295  56.901  1.00  0.00     0.203 C 
HETATM    7  C   UNL     1       7.115  26.532  57.048  1.00  0.00     0.262 C 
HETATM    8  N   UNL     1       7.459  25.680  55.832  1.00  0.00    -0.061 N 
HETATM    9  H   UNL     1       8.386  25.296  56.048  1.00  0.00     0.280 HD
HETATM   10  C   UNL     1       7.656  26.509  54.577  1.00  0.00     0.276 C 
HETATM   11  C   UNL     1       4.384  28.397  54.121  1.00  0.00     0.038 A 
HETATM   12  C   UNL     1       3.994  28.008  52.838  1.00  0.00     0.011 A 
ENDROOT
BRANCH   1  13
HETATM   13  C   UNL     1       4.397  26.705  50.684  1.00  0.00     0.274 C 
BRANCH  13  14
HETATM   14  N   UNL     1       4.749  27.644  49.561  1.00  0.00    -0.053 N 
HETATM   15  C   UNL     1       3.850  28.917  49.500  1.00  0.00     0.279 C 
HETATM   16  C   UNL     1       4.346  29.886  48.403  1.00  0.00     0.248 C 
HETATM   17  N   UNL     1       4.841  29.322  47.254  1.00  0.00    -0.358 N 
HETATM   18  O   UNL     1       4.249  31.101  48.511  1.00  0.00    -0.271 OA
HETATM   19  C   UNL     1       5.453  28.006  47.200  1.00  0.00     0.150 C 
HETATM   20  H   UNL     1       5.142  30.017  46.570  1.00  0.00     0.162 HD
HETATM   21  C   UNL     1       4.867  26.992  48.192  1.00  0.00     0.256 C 
HETATM   22  H   UNL     1       5.677  28.026  49.775  1.00  0.00     0.281 HD
BRANCH  15  23
HETATM   23  C   UNL     1       2.376  28.546  49.269  1.00  0.00     0.038 C 
HETATM   24  C   UNL     1       1.448  29.162  50.311  1.00  0.00     0.007 C 
ENDBRANCH  15  23
ENDBRANCH  13  14
ENDBRANCH   1  13
BRANCH   8  25
HETATM   25  C   UNL     1       6.571  24.478  55.604  1.00  0.00     0.274 C 
BRANCH  25  26
HETATM   26  C   UNL     1       7.312  23.207  55.291  1.00  0.00    -0.029 A 
HETATM   27  C   UNL     1       7.401  22.736  53.972  1.00  0.00     0.054 A 
HETATM   28  C   UNL     1       8.083  21.550  53.697  1.00  0.00     0.155 A 
HETATM   29  F   UNL     1       8.153  21.124  52.431  1.00  0.00    -0.203 F 
HETATM   30  C   UNL     1       8.678  20.825  54.718  1.00  0.00     0.154 A 
HETATM   31  F   UNL     1       9.331  19.688  54.452  1.00  0.00    -0.203 F 
HETATM   32  C   UNL     1       8.599  21.275  56.032  1.00  0.00     0.046 A 
HETATM   33  C   UNL     1       7.918  22.462  56.320  1.00  0.00     0.012 A 
ENDBRANCH  25  26
ENDBRANCH   8  25
TORSDOF 5
ENDMDL
MODEL 10
REMARK VINA RESULT:      -8.5      8.412     12.388
REMARK  5 active torsions:
REMARK  status: ('A' for Active; 'I' for Inactive)
REMARK    1  A    between atoms: C_2  and  C_3 
REMARK    2  A    between atoms: N_4  and  C_6 
REMARK    3  A    between atoms: C_6  and  C_7 
REMARK    4  A    between atoms: N_14  and  C_16 
REMARK    5  A    between atoms: C_16  and  C_17 
ROOT
HETATM    1  C   UNL     1       7.510  32.003  60.761  1.00  0.00    -0.032 A 
HETATM    2  C   UNL     1       6.166  32.245  61.122  1.00  0.00     0.020 A 
HETATM    3  C   UNL     1       5.812  32.616  62.436  1.00  0.00     0.002 A 
HETATM    4  C   UNL     1       6.827  32.735  63.385  1.00  0.00     0.076 A 
HETATM    5  O   UNL     1       6.544  33.031  64.687  1.00  0.00    -0.349 OA
HETATM    6  C   UNL     1       6.131  34.394  64.847  1.00  0.00     0.203 C 
HETATM    7  C   UNL     1       4.610  34.526  64.725  1.00  0.00     0.262 C 
HETATM    8  N   UNL     1       4.095  34.281  63.312  1.00  0.00    -0.061 N 
HETATM    9  H   UNL     1       3.074  34.331  63.405  1.00  0.00     0.280 HD
HETATM   10  C   UNL     1       4.379  32.873  62.825  1.00  0.00     0.276 C 
HETATM   11  C   UNL     1       8.158  32.496  63.051  1.00  0.00     0.038 A 
HETATM   12  C   UNL     1       8.502  32.159  61.741  1.00  0.00     0.011 A 
ENDROOT
BRANCH   1  13
HETATM   13  C   UNL     1       7.857  31.657  59.326  1.00  0.00     0.274 C 
BRANCH  13  14
HETATM   14  N   UNL     1       7.203  30.417  58.777  1.00  0.00    -0.053 N 
HETATM   15  C   UNL     1       8.215  29.343  58.270  1.00  0.00     0.279 C 
HETATM   16  C   UNL     1       7.477  28.057  57.836  1.00  0.00     0.248 C 
HETATM   17  N   UNL     1       6.260  28.216  57.223  1.00  0.00    -0.358 N 
HETATM   18  O   UNL     1       7.970  26.944  57.966  1.00  0.00    -0.271 OA
HETATM   19  C   UNL     1       5.382  29.351  57.454  1.00  0.00     0.150 C 
HETATM   20  H   UNL     1       5.832  27.330  56.955  1.00  0.00     0.162 HD
HETATM   21  C   UNL     1       6.113  30.669  57.747  1.00  0.00     0.256 C 
HETATM   22  H   UNL     1       6.745  29.950  59.567  1.00  0.00     0.281 HD
BRANCH  15  23
HETATM   23  C   UNL     1       9.075  29.890  57.119  1.00  0.00     0.038 C 
HETATM   24  C   UNL     1      10.568  29.830  57.427  1.00  0.00     0.007 C 
ENDBRANCH  15  23
ENDBRANCH  13  14
ENDBRANCH   1  13
BRANCH   8  25
HETATM   25  C   UNL     1       4.457  35.336  62.292  1.00  0.00     0.274 C 
BRANCH  25  26
HETATM   26  C   UNL     1       3.605  35.323  61.053  1.00  0.00    -0.029 A 
HETATM   27  C   UNL     1       2.206  35.269  61.146  1.00  0.00     0.054 A 
HETATM   28  C   UNL     1       1.427  35.248  59.988  1.00  0.00     0.155 A 
HETATM   29  F   UNL     1       0.096  35.197  60.106  1.00  0.00    -0.203 F 
HETATM   30  C   UNL     1       2.023  35.279  58.736  1.00  0.00     0.154 A 
HETATM   31  F   UNL     1       1.274  35.258  57.628  1.00  0.00    -0.203 F 
HETATM   32  C   UNL     1       3.408  35.330  58.624  1.00  0.00     0.046 A 
HETATM   33  C   UNL     1       4.199  35.353  59.777  1.00  0.00     0.012 A 
ENDBRANCH  25  26
ENDBRANCH   8  25
TORSDOF 5
ENDMDL
