MODEL 1
REMARK VINA RESULT:      -8.7      0.000      0.000
REMARK  4 active torsions:
REMARK  status: ('A' for Active; 'I' for Inactive)
REMARK    1  A    between atoms: C_2  and  O_3 
REMARK    2  A    between atoms: C_2  and  C_12 
REMARK    3  A    between atoms: O_3  and  C_4 
REMARK       I    between atoms: C_12  and  N_13 
REMARK    4  A    between atoms: N_13  and  C_14 
ROOT
HETATM    1  C   UNL     1       5.344  25.213  56.822  1.00  0.00     0.050 C 
HETATM    2  C   UNL     1       6.798  24.760  56.771  1.00  0.00     0.217 C 
ENDROOT
BRANCH   2   3
HETATM    3  O   UNL     1       7.226  24.692  55.406  1.00  0.00    -0.336 OA
BRANCH   3   4
HETATM    4  C   UNL     1       7.511  23.480  54.841  1.00  0.00     0.087 A 
HETATM    5  C   UNL     1       7.712  23.470  53.447  1.00  0.00     0.047 A 
HETATM    6 BR   UNL     1       7.629  25.076  52.430  1.00  0.00    -0.048 Br
HETATM    7  C   UNL     1       7.989  22.282  52.770  1.00  0.00     0.064 A 
HETATM    8  C   UNL     1       8.061  21.097  53.488  1.00  0.00     0.117 A 
HETATM    9  F   UNL     1       8.324  19.952  52.846  1.00  0.00    -0.206 F 
HETATM   10  C   UNL     1       7.860  21.080  54.862  1.00  0.00     0.045 A 
HETATM   11  C   UNL     1       7.581  22.270  55.540  1.00  0.00     0.041 A 
ENDBRANCH   3   4
ENDBRANCH   2   3
BRANCH   2  12
HETATM   12  C   UNL     1       7.657  25.796  57.523  1.00  0.00     0.252 C 
HETATM   13  N   UNL     1       7.574  27.059  56.967  1.00  0.00    -0.309 N 
HETATM   14  H   UNL     1       7.014  27.132  56.125  1.00  0.00     0.170 HD
HETATM   15  O   UNL     1       8.303  25.462  58.513  1.00  0.00    -0.270 OA
BRANCH  13  16
HETATM   16  C   UNL     1       8.201  28.213  57.438  1.00  0.00     0.129 A 
HETATM   17  N   UNL     1       7.717  28.876  58.503  1.00  0.00    -0.242 NA
HETATM   18  C   UNL     1       8.369  29.992  58.906  1.00  0.00     0.142 A 
HETATM   19  C   UNL     1       9.502  30.487  58.285  1.00  0.00     0.051 A 
HETATM   20 CL   UNL     1      10.276  31.910  58.850  1.00  0.00    -0.083 Cl
HETATM   21  C   UNL     1       9.996  29.799  57.187  1.00  0.00     0.029 A 
HETATM   22  C   UNL     1       9.337  28.645  56.756  1.00  0.00     0.052 A 
ENDBRANCH  13  16
ENDBRANCH   2  12
TORSDOF 4
ENDMDL
MODEL 2
REMARK VINA RESULT:      -8.0      5.465      7.053
REMARK  4 active torsions:
REMARK  status: ('A' for Active; 'I' for Inactive)
REMARK    1  A    between atoms: C_2  and  O_3 
REMARK    2  A    between atoms: C_2  and  C_12 
REMARK    3  A    between atoms: O_3  and  C_4 
REMARK       I    between atoms: C_12  and  N_13 
REMARK    4  A    between atoms: N_13  and  C_14 
ROOT
HETATM    1  C   UNL     1       7.952  25.468  52.612  1.00  0.00     0.050 C 
HETATM    2  C   UNL     1       6.784  24.489  52.570  1.00  0.00     0.217 C 
ENDROOT
BRANCH   2   3
HETATM    3  O   UNL     1       6.550  23.974  53.885  1.00  0.00    -0.336 OA
BRANCH   3   4
HETATM    4  C   UNL     1       7.352  22.983  54.382  1.00  0.00     0.087 A 
HETATM    5  C   UNL     1       7.785  23.135  55.713  1.00  0.00     0.047 A 
HETATM    6 BR   UNL     1       7.236  24.626  56.761  1.00  0.00    -0.048 Br
HETATM    7  C   UNL     1       8.622  22.191  56.308  1.00  0.00     0.064 A 
HETATM    8  C   UNL     1       9.032  21.091  55.569  1.00  0.00     0.117 A 
HETATM    9  F   UNL     1       9.837  20.182  56.131  1.00  0.00    -0.206 F 
HETATM   10  C   UNL     1       8.625  20.923  54.252  1.00  0.00     0.045 A 
HETATM   11  C   UNL     1       7.788  21.870  53.655  1.00  0.00     0.041 A 
ENDBRANCH   3   4
ENDBRANCH   2   3
BRANCH   2  12
HETATM   12  C   UNL     1       5.531  25.248  52.090  1.00  0.00     0.252 C 
HETATM   13  N   UNL     1       5.743  25.927  50.905  1.00  0.00    -0.309 N 
HETATM   14  H   UNL     1       6.687  25.885  50.537  1.00  0.00     0.170 HD
HETATM   15  O   UNL     1       4.488  25.189  52.736  1.00  0.00    -0.270 OA
BRANCH  13  16
HETATM   16  C   UNL     1       4.797  26.672  50.198  1.00  0.00     0.129 A 
HETATM   17  N   UNL     1       4.470  27.916  50.586  1.00  0.00    -0.242 NA
HETATM   18  C   UNL     1       3.541  28.584  49.860  1.00  0.00     0.142 A 
HETATM   19  C   UNL     1       2.912  28.057  48.747  1.00  0.00     0.051 A 
HETATM   20 CL   UNL     1       1.743  28.960  47.875  1.00  0.00    -0.083 Cl
HETATM   21  C   UNL     1       3.254  26.771  48.352  1.00  0.00     0.029 A 
HETATM   22  C   UNL     1       4.210  26.067  49.088  1.00  0.00     0.052 A 
ENDBRANCH  13  16
ENDBRANCH   2  12
TORSDOF 4
ENDMDL
MODEL 3
REMARK VINA RESULT:      -7.8      6.983     10.585
REMARK  4 active torsions:
REMARK  status: ('A' for Active; 'I' for Inactive)
REMARK    1  A    between atoms: C_2  and  O_3 
REMARK    2  A    between atoms: C_2  and  C_12 
REMARK    3  A    between atoms: O_3  and  C_4 
REMARK       I    between atoms: C_12  and  N_13 
REMARK    4  A    between atoms: N_13  and  C_14 
ROOT
HETATM    1  C   UNL     1       9.409  31.300  61.827  1.00  0.00     0.050 C 
HETATM    2  C   UNL     1       7.955  31.523  61.424  1.00  0.00     0.217 C 
ENDROOT
BRANCH   2   3
HETATM    3  O   UNL     1       7.563  32.853  61.781  1.00  0.00    -0.336 OA
BRANCH   3   4
HETATM    4  C   UNL     1       6.977  33.088  62.994  1.00  0.00     0.087 A 
HETATM    5  C   UNL     1       5.571  33.163  63.007  1.00  0.00     0.047 A 
HETATM    6 BR   UNL     1       4.558  32.907  61.417  1.00  0.00    -0.048 Br
HETATM    7  C   UNL     1       4.876  33.418  64.190  1.00  0.00     0.064 A 
HETATM    8  C   UNL     1       5.589  33.604  65.365  1.00  0.00     0.117 A 
HETATM    9  F   UNL     1       4.931  33.851  66.504  1.00  0.00    -0.206 F 
HETATM   10  C   UNL     1       6.976  33.541  65.377  1.00  0.00     0.045 A 
HETATM   11  C   UNL     1       7.672  33.286  64.191  1.00  0.00     0.041 A 
ENDBRANCH   3   4
ENDBRANCH   2   3
BRANCH   2  12
HETATM   12  C   UNL     1       7.843  31.351  59.896  1.00  0.00     0.252 C 
HETATM   13  N   UNL     1       8.038  30.044  59.492  1.00  0.00    -0.309 N 
HETATM   14  H   UNL     1       8.278  29.388  60.228  1.00  0.00     0.170 HD
HETATM   15  O   UNL     1       7.585  32.317  59.183  1.00  0.00    -0.270 OA
BRANCH  13  16
HETATM   16  C   UNL     1       7.964  29.562  58.185  1.00  0.00     0.129 A 
HETATM   17  N   UNL     1       6.835  28.999  57.720  1.00  0.00    -0.242 NA
HETATM   18  C   UNL     1       6.830  28.547  56.443  1.00  0.00     0.142 A 
HETATM   19  C   UNL     1       7.919  28.629  55.595  1.00  0.00     0.051 A 
HETATM   20 CL   UNL     1       7.842  28.033  53.988  1.00  0.00    -0.083 Cl
HETATM   21  C   UNL     1       9.081  29.211  56.081  1.00  0.00     0.029 A 
HETATM   22  C   UNL     1       9.106  29.683  57.395  1.00  0.00     0.052 A 
ENDBRANCH  13  16
ENDBRANCH   2  12
TORSDOF 4
ENDMDL
MODEL 4
REMARK VINA RESULT:      -7.8      2.351      2.933
REMARK  4 active torsions:
REMARK  status: ('A' for Active; 'I' for Inactive)
REMARK    1  A    between atoms: C_2  and  O_3 
REMARK    2  A    between atoms: C_2  and  C_12 
REMARK    3  A    between atoms: O_3  and  C_4 
REMARK       I    between atoms: C_12  and  N_13 
REMARK    4  A    between atoms: N_13  and  C_14 
ROOT
HETATM    1  C   UNL     1       6.927  25.659  52.127  1.00  0.00     0.050 C 
HETATM    2  C   UNL     1       6.771  25.054  53.518  1.00  0.00     0.217 C 
ENDROOT
BRANCH   2   3
HETATM    3  O   UNL     1       8.033  24.538  53.955  1.00  0.00    -0.336 OA
BRANCH   3   4
HETATM    4  C   UNL     1       8.187  23.194  54.156  1.00  0.00     0.087 A 
HETATM    5  C   UNL     1       8.552  22.792  55.455  1.00  0.00     0.047 A 
HETATM    6 BR   UNL     1       8.771  24.065  56.853  1.00  0.00    -0.048 Br
HETATM    7  C   UNL     1       8.753  21.446  55.760  1.00  0.00     0.064 A 
HETATM    8  C   UNL     1       8.594  20.496  54.762  1.00  0.00     0.117 A 
HETATM    9  F   UNL     1       8.788  19.203  55.045  1.00  0.00    -0.206 F 
HETATM   10  C   UNL     1       8.242  20.868  53.471  1.00  0.00     0.045 A 
HETATM   11  C   UNL     1       8.041  22.217  53.165  1.00  0.00     0.041 A 
ENDBRANCH   3   4
ENDBRANCH   2   3
BRANCH   2  12
HETATM   12  C   UNL     1       6.312  26.165  54.484  1.00  0.00     0.252 C 
HETATM   13  N   UNL     1       7.372  26.853  55.043  1.00  0.00    -0.309 N 
HETATM   14  H   UNL     1       8.295  26.515  54.794  1.00  0.00     0.170 HD
HETATM   15  O   UNL     1       5.115  26.367  54.669  1.00  0.00    -0.270 OA
BRANCH  13  16
HETATM   16  C   UNL     1       7.285  27.933  55.922  1.00  0.00     0.129 A 
HETATM   17  N   UNL     1       6.610  29.045  55.584  1.00  0.00    -0.242 NA
HETATM   18  C   UNL     1       6.568  30.059  56.481  1.00  0.00     0.142 A 
HETATM   19  C   UNL     1       7.181  30.015  57.720  1.00  0.00     0.051 A 
HETATM   20 CL   UNL     1       7.088  31.340  58.806  1.00  0.00    -0.083 Cl
HETATM   21  C   UNL     1       7.877  28.865  58.063  1.00  0.00     0.029 A 
HETATM   22  C   UNL     1       7.931  27.808  57.151  1.00  0.00     0.052 A 
ENDBRANCH  13  16
ENDBRANCH   2  12
TORSDOF 4
ENDMDL
MODEL 5
REMARK VINA RESULT:      -7.4      5.844      7.643
REMARK  4 active torsions:
REMARK  status: ('A' for Active; 'I' for Inactive)
REMARK    1  A    between atoms: C_2  and  O_3 
REMARK    2  A    between atoms: C_2  and  C_12 
REMARK    3  A    between atoms: O_3  and  C_4 
REMARK       I    between atoms: C_12  and  N_13 
REMARK    4  A    between atoms: N_13  and  C_14 
ROOT
HETATM    1  C   UNL     1       5.658  27.846  53.860  1.00  0.00     0.050 C 
HETATM    2  C   UNL     1       5.062  27.000  52.740  1.00  0.00     0.217 C 
ENDROOT
BRANCH   2   3
HETATM    3  O   UNL     1       5.738  27.293  51.513  1.00  0.00    -0.336 OA
BRANCH   3   4
HETATM    4  C   UNL     1       5.046  27.276  50.333  1.00  0.00     0.087 A 
HETATM    5  C   UNL     1       4.773  28.528  49.748  1.00  0.00     0.047 A 
HETATM    6 BR   UNL     1       5.381  30.142  50.552  1.00  0.00    -0.048 Br
HETATM    7  C   UNL     1       4.057  28.622  48.555  1.00  0.00     0.064 A 
HETATM    8  C   UNL     1       3.607  27.460  47.945  1.00  0.00     0.117 A 
HETATM    9  F   UNL     1       2.916  27.542  46.801  1.00  0.00    -0.206 F 
HETATM   10  C   UNL     1       3.857  26.215  48.505  1.00  0.00     0.045 A 
HETATM   11  C   UNL     1       4.574  26.121  49.701  1.00  0.00     0.041 A 
ENDBRANCH   3   4
ENDBRANCH   2   3
BRANCH   2  12
HETATM   12  C   UNL     1       5.269  25.512  53.093  1.00  0.00     0.252 C 
HETATM   13  N   UNL     1       6.565  25.235  53.484  1.00  0.00    -0.309 N 
HETATM   14  H   UNL     1       7.213  26.014  53.442  1.00  0.00     0.170 HD
HETATM   15  O   UNL     1       4.329  24.725  53.026  1.00  0.00    -0.270 OA
BRANCH  13  16
HETATM   16  C   UNL     1       7.056  23.997  53.900  1.00  0.00     0.129 A 
HETATM   17  N   UNL     1       7.034  23.645  55.197  1.00  0.00    -0.242 NA
HETATM   18  C   UNL     1       7.531  22.431  55.534  1.00  0.00     0.142 A 
HETATM   19  C   UNL     1       8.060  21.536  54.622  1.00  0.00     0.051 A 
HETATM   20 CL   UNL     1       8.674  20.015  55.121  1.00  0.00    -0.083 Cl
HETATM   21  C   UNL     1       8.080  21.905  53.284  1.00  0.00     0.029 A 
HETATM   22  C   UNL     1       7.572  23.153  52.917  1.00  0.00     0.052 A 
ENDBRANCH  13  16
ENDBRANCH   2  12
TORSDOF 4
ENDMDL
MODEL 6
REMARK VINA RESULT:      -7.3      7.033     10.302
REMARK  4 active torsions:
REMARK  status: ('A' for Active; 'I' for Inactive)
REMARK    1  A    between atoms: C_2  and  O_3 
REMARK    2  A    between atoms: C_2  and  C_12 
REMARK    3  A    between atoms: O_3  and  C_4 
REMARK       I    between atoms: C_12  and  N_13 
REMARK    4  A    between atoms: N_13  and  C_14 
ROOT
HETATM    1  C   UNL     1       9.350  31.428  61.864  1.00  0.00     0.050 C 
HETATM    2  C   UNL     1       7.932  31.614  61.337  1.00  0.00     0.217 C 
ENDROOT
BRANCH   2   3
HETATM    3  O   UNL     1       7.486  32.942  61.635  1.00  0.00    -0.336 OA
BRANCH   3   4
HETATM    4  C   UNL     1       6.181  33.161  61.979  1.00  0.00     0.087 A 
HETATM    5  C   UNL     1       5.920  33.381  63.345  1.00  0.00     0.047 A 
HETATM    6 BR   UNL     1       7.330  33.408  64.623  1.00  0.00    -0.048 Br
HETATM    7  C   UNL     1       4.619  33.595  63.803  1.00  0.00     0.064 A 
HETATM    8  C   UNL     1       3.573  33.586  62.892  1.00  0.00     0.117 A 
HETATM    9  F   UNL     1       2.322  33.788  63.322  1.00  0.00    -0.206 F 
HETATM   10  C   UNL     1       3.804  33.365  61.540  1.00  0.00     0.045 A 
HETATM   11  C   UNL     1       5.107  33.149  61.082  1.00  0.00     0.041 A 
ENDBRANCH   3   4
ENDBRANCH   2   3
BRANCH   2  12
HETATM   12  C   UNL     1       7.950  31.415  59.808  1.00  0.00     0.252 C 
HETATM   13  N   UNL     1       7.896  30.082  59.446  1.00  0.00    -0.309 N 
HETATM   14  H   UNL     1       7.903  29.418  60.212  1.00  0.00     0.170 HD
HETATM   15  O   UNL     1       7.990  32.387  59.058  1.00  0.00    -0.270 OA
BRANCH  13  16
HETATM   16  C   UNL     1       7.859  29.580  58.145  1.00  0.00     0.129 A 
HETATM   17  N   UNL     1       6.712  29.119  57.615  1.00  0.00    -0.242 NA
HETATM   18  C   UNL     1       6.745  28.640  56.349  1.00  0.00     0.142 A 
HETATM   19  C   UNL     1       7.890  28.597  55.573  1.00  0.00     0.051 A 
HETATM   20 CL   UNL     1       7.858  27.974  53.975  1.00  0.00    -0.083 Cl
HETATM   21  C   UNL     1       9.070  29.073  56.125  1.00  0.00     0.029 A 
HETATM   22  C   UNL     1       9.056  29.571  57.430  1.00  0.00     0.052 A 
ENDBRANCH  13  16
ENDBRANCH   2  12
TORSDOF 4
ENDMDL
MODEL 7
REMARK VINA RESULT:      -7.2      4.973      8.037
REMARK  4 active torsions:
REMARK  status: ('A' for Active; 'I' for Inactive)
REMARK    1  A    between atoms: C_2  and  O_3 
REMARK    2  A    between atoms: C_2  and  C_12 
REMARK    3  A    between atoms: O_3  and  C_4 
REMARK       I    between atoms: C_12  and  N_13 
REMARK    4  A    between atoms: N_13  and  C_14 
ROOT
HETATM    1  C   UNL     1       5.114  27.657  54.864  1.00  0.00     0.050 C 
HETATM    2  C   UNL     1       6.383  27.772  55.701  1.00  0.00     0.217 C 
ENDROOT
BRANCH   2   3
HETATM    3  O   UNL     1       6.034  28.113  57.047  1.00  0.00    -0.336 OA
BRANCH   3   4
HETATM    4  C   UNL     1       6.685  29.136  57.681  1.00  0.00     0.087 A 
HETATM    5  C   UNL     1       5.959  30.329  57.854  1.00  0.00     0.047 A 
HETATM    6 BR   UNL     1       4.154  30.476  57.266  1.00  0.00    -0.048 Br
HETATM    7  C   UNL     1       6.537  31.439  58.471  1.00  0.00     0.064 A 
HETATM    8  C   UNL     1       7.849  31.358  58.913  1.00  0.00     0.117 A 
HETATM    9  F   UNL     1       8.412  32.418  59.504  1.00  0.00    -0.206 F 
HETATM   10  C   UNL     1       8.588  30.194  58.748  1.00  0.00     0.045 A 
HETATM   11  C   UNL     1       8.009  29.082  58.129  1.00  0.00     0.041 A 
ENDBRANCH   3   4
ENDBRANCH   2   3
BRANCH   2  12
HETATM   12  C   UNL     1       7.097  26.405  55.691  1.00  0.00     0.252 C 
HETATM   13  N   UNL     1       6.622  25.565  54.702  1.00  0.00    -0.309 N 
HETATM   14  H   UNL     1       5.847  25.924  54.155  1.00  0.00     0.170 HD
HETATM   15  O   UNL     1       7.996  26.171  56.495  1.00  0.00    -0.270 OA
BRANCH  13  16
HETATM   16  C   UNL     1       7.087  24.281  54.413  1.00  0.00     0.129 A 
HETATM   17  N   UNL     1       7.144  23.337  55.368  1.00  0.00    -0.242 NA
HETATM   18  C   UNL     1       7.611  22.113  55.023  1.00  0.00     0.142 A 
HETATM   19  C   UNL     1       8.032  21.782  53.748  1.00  0.00     0.051 A 
HETATM   20 CL   UNL     1       8.614  20.210  53.383  1.00  0.00    -0.083 Cl
HETATM   21  C   UNL     1       7.971  22.761  52.767  1.00  0.00     0.029 A 
HETATM   22  C   UNL     1       7.492  24.030  53.103  1.00  0.00     0.052 A 
ENDBRANCH  13  16
ENDBRANCH   2  12
TORSDOF 4
ENDMDL
MODEL 8
REMARK VINA RESULT:      -7.1      3.316      3.956
REMARK  4 active torsions:
REMARK  status: ('A' for Active; 'I' for Inactive)
REMARK    1  A    between atoms: C_2  and  O_3 
REMARK    2  A    between atoms: C_2  and  C_12 
REMARK    3  A    between atoms: O_3  and  C_4 
REMARK       I    between atoms: C_12  and  N_13 
REMARK    4  A    between atoms: N_13  and  C_14 
ROOT
HETATM    1  C   UNL     1       5.985  25.421  51.892  1.00  0.00     0.050 C 
HETATM    2  C   UNL     1       6.244  25.351  53.393  1.00  0.00     0.217 C 
ENDROOT
BRANCH   2   3
HETATM    3  O   UNL     1       7.556  24.826  53.624  1.00  0.00    -0.336 OA
BRANCH   3   4
HETATM    4  C   UNL     1       7.718  23.498  53.906  1.00  0.00     0.087 A 
HETATM    5  C   UNL     1       7.839  23.156  55.266  1.00  0.00     0.047 A 
HETATM    6 BR   UNL     1       7.737  24.484  56.626  1.00  0.00    -0.048 Br
HETATM    7  C   UNL     1       8.027  21.831  55.660  1.00  0.00     0.064 A 
HETATM    8  C   UNL     1       8.100  20.843  54.690  1.00  0.00     0.117 A 
HETATM    9  F   UNL     1       8.283  19.569  55.059  1.00  0.00    -0.206 F 
HETATM   10  C   UNL     1       7.991  21.155  53.341  1.00  0.00     0.045 A 
HETATM   11  C   UNL     1       7.803  22.483  52.947  1.00  0.00     0.041 A 
ENDBRANCH   3   4
ENDBRANCH   2   3
BRANCH   2  12
HETATM   12  C   UNL     1       6.158  26.780  53.968  1.00  0.00     0.252 C 
HETATM   13  N   UNL     1       5.145  26.918  54.898  1.00  0.00    -0.309 N 
HETATM   14  H   UNL     1       4.566  26.097  55.042  1.00  0.00     0.170 HD
HETATM   15  O   UNL     1       6.954  27.641  53.604  1.00  0.00    -0.270 OA
BRANCH  13  16
HETATM   16  C   UNL     1       4.838  28.071  55.621  1.00  0.00     0.129 A 
HETATM   17  N   UNL     1       5.355  28.277  56.845  1.00  0.00    -0.242 NA
HETATM   18  C   UNL     1       5.012  29.414  57.495  1.00  0.00     0.142 A 
HETATM   19  C   UNL     1       4.162  30.372  56.974  1.00  0.00     0.051 A 
HETATM   20 CL   UNL     1       3.770  31.789  57.856  1.00  0.00    -0.083 Cl
HETATM   21  C   UNL     1       3.631  30.154  55.710  1.00  0.00     0.029 A 
HETATM   22  C   UNL     1       3.972  28.986  55.023  1.00  0.00     0.052 A 
ENDBRANCH  13  16
ENDBRANCH   2  12
TORSDOF 4
ENDMDL
MODEL 9
REMARK VINA RESULT:      -7.0      7.098     10.431
REMARK  4 active torsions:
REMARK  status: ('A' for Active; 'I' for Inactive)
REMARK    1  A    between atoms: C_2  and  O_3 
REMARK    2  A    between atoms: C_2  and  C_12 
REMARK    3  A    between atoms: O_3  and  C_4 
REMARK       I    between atoms: C_12  and  N_13 
REMARK    4  A    between atoms: N_13  and  C_14 
ROOT
HETATM    1  C   UNL     1       3.732  32.952  60.277  1.00  0.00     0.050 C 
HETATM    2  C   UNL     1       5.257  32.948  60.300  1.00  0.00     0.217 C 
ENDROOT
BRANCH   2   3
HETATM    3  O   UNL     1       5.713  32.052  61.320  1.00  0.00    -0.336 OA
BRANCH   3   4
HETATM    4  C   UNL     1       6.047  32.538  62.554  1.00  0.00     0.087 A 
HETATM    5  C   UNL     1       7.420  32.572  62.864  1.00  0.00     0.047 A 
HETATM    6 BR   UNL     1       8.727  32.007  61.602  1.00  0.00    -0.048 Br
HETATM    7  C   UNL     1       7.865  33.031  64.104  1.00  0.00     0.064 A 
HETATM    8  C   UNL     1       6.934  33.455  65.041  1.00  0.00     0.117 A 
HETATM    9  F   UNL     1       7.352  33.895  66.233  1.00  0.00    -0.206 F 
HETATM   10  C   UNL     1       5.574  33.424  64.761  1.00  0.00     0.045 A 
HETATM   11  C   UNL     1       5.128  32.963  63.519  1.00  0.00     0.041 A 
ENDBRANCH   3   4
ENDBRANCH   2   3
BRANCH   2  12
HETATM   12  C   UNL     1       5.762  32.458  58.928  1.00  0.00     0.252 C 
HETATM   13  N   UNL     1       6.130  31.126  58.943  1.00  0.00    -0.309 N 
HETATM   14  H   UNL     1       6.072  30.664  59.844  1.00  0.00     0.170 HD
HETATM   15  O   UNL     1       5.786  33.225  57.969  1.00  0.00    -0.270 OA
BRANCH  13  16
HETATM   16  C   UNL     1       6.590  30.383  57.854  1.00  0.00     0.129 A 
HETATM   17  N   UNL     1       7.902  30.138  57.690  1.00  0.00    -0.242 NA
HETATM   18  C   UNL     1       8.282  29.416  56.610  1.00  0.00     0.142 A 
HETATM   19  C   UNL     1       7.400  28.919  55.668  1.00  0.00     0.051 A 
HETATM   20 CL   UNL     1       7.954  28.012  54.322  1.00  0.00    -0.083 Cl
HETATM   21  C   UNL     1       6.048  29.175  55.843  1.00  0.00     0.029 A 
HETATM   22  C   UNL     1       5.635  29.918  56.951  1.00  0.00     0.052 A 
ENDBRANCH  13  16
ENDBRANCH   2  12
TORSDOF 4
ENDMDL
MODEL 10
REMARK VINA RESULT:      -7.0      4.583      7.326
REMARK  4 active torsions:
REMARK  status: ('A' for Active; 'I' for Inactive)
REMARK    1  A    between atoms: C_2  and  O_3 
REMARK    2  A    between atoms: C_2  and  C_12 
REMARK    3  A    between atoms: O_3  and  C_4 
REMARK       I    between atoms: C_12  and  N_13 
REMARK    4  A    between atoms: N_13  and  C_14 
ROOT
HETATM    1  C   UNL     1       5.122  26.359  51.819  1.00  0.00     0.050 C 
HETATM    2  C   UNL     1       6.346  26.781  52.622  1.00  0.00     0.217 C 
ENDROOT
BRANCH   2   3
HETATM    3  O   UNL     1       5.930  27.260  53.906  1.00  0.00    -0.336 OA
BRANCH   3   4
HETATM    4  C   UNL     1       6.862  27.706  54.802  1.00  0.00     0.087 A 
HETATM    5  C   UNL     1       6.711  27.271  56.132  1.00  0.00     0.047 A 
HETATM    6 BR   UNL     1       5.303  26.091  56.627  1.00  0.00    -0.048 Br
HETATM    7  C   UNL     1       7.597  27.684  57.128  1.00  0.00     0.064 A 
HETATM    8  C   UNL     1       8.636  28.540  56.793  1.00  0.00     0.117 A 
HETATM    9  F   UNL     1       9.489  28.943  57.743  1.00  0.00    -0.206 F 
HETATM   10  C   UNL     1       8.802  28.988  55.490  1.00  0.00     0.045 A 
HETATM   11  C   UNL     1       7.914  28.575  54.492  1.00  0.00     0.041 A 
ENDBRANCH   3   4
ENDBRANCH   2   3
BRANCH   2  12
HETATM   12  C   UNL     1       7.255  25.548  52.808  1.00  0.00     0.252 C 
HETATM   13  N   UNL     1       6.689  24.591  53.629  1.00  0.00    -0.309 N 
HETATM   14  H   UNL     1       5.794  24.836  54.037  1.00  0.00     0.170 HD
HETATM   15  O   UNL     1       8.341  25.490  52.239  1.00  0.00    -0.270 OA
BRANCH  13  16
HETATM   16  C   UNL     1       7.243  23.354  53.959  1.00  0.00     0.129 A 
HETATM   17  N   UNL     1       7.597  22.478  53.002  1.00  0.00    -0.242 NA
HETATM   18  C   UNL     1       8.124  21.292  53.390  1.00  0.00     0.142 A 
HETATM   19  C   UNL     1       8.315  20.932  54.712  1.00  0.00     0.051 A 
HETATM   20 CL   UNL     1       8.987  19.411  55.130  1.00  0.00    -0.083 Cl
HETATM   21  C   UNL     1       7.948  21.840  55.695  1.00  0.00     0.029 A 
HETATM   22  C   UNL     1       7.402  23.068  55.314  1.00  0.00     0.052 A 
ENDBRANCH  13  16
ENDBRANCH   2  12
TORSDOF 4
ENDMDL
