MODEL 1
REMARK VINA RESULT:      -9.8      0.000      0.000
REMARK  4 active torsions:
REMARK  status: ('A' for Active; 'I' for Inactive)
REMARK    1  A    between atoms: C_5  and  C_6 
REMARK    2  A    between atoms: C_6  and  N_7 
REMARK    3  A    between atoms: C_17  and  C_18 
REMARK    4  A    between atoms: C_27  and  C_28 
ROOT
HETATM    1  N   UNL     1       4.429  26.393  51.626  1.00  0.00    -0.067 N 
HETATM    2  H   UNL     1       3.462  26.563  51.311  1.00  0.00     0.280 HD
HETATM    3  C   UNL     1       4.430  25.085  52.363  1.00  0.00     0.236 C 
HETATM    4  C   UNL     1       5.759  24.837  53.074  1.00  0.00     0.039 C 
HETATM    5  C   UNL     1       6.259  25.991  53.987  1.00  0.00    -0.013 C 
HETATM    6  C   UNL     1       5.457  26.090  55.314  1.00  0.00     0.244 C 
HETATM    7  N   UNL     1       5.794  24.970  56.264  1.00  0.00    -0.073 N 
HETATM    8  H   UNL     1       5.560  24.068  55.828  1.00  0.00     0.279 HD
HETATM    9  C   UNL     1       4.962  25.036  57.527  1.00  0.00     0.269 C 
HETATM   10  C   UNL     1       7.277  24.922  56.610  1.00  0.00     0.243 C 
HETATM   11  C   UNL     1       8.108  24.677  55.340  1.00  0.00     0.045 C 
HETATM   12  C   UNL     1       7.771  25.806  54.329  1.00  0.00     0.022 C 
HETATM   13  C   UNL     1       6.125  27.327  53.194  1.00  0.00     0.039 C 
HETATM   14  C   UNL     1       4.768  27.547  52.527  1.00  0.00     0.236 C 
ENDROOT
BRANCH  11  15
HETATM   15  C   UNL     1       8.043  23.269  54.749  1.00  0.00    -0.052 A 
HETATM   16  C   UNL     1       8.237  22.988  53.384  1.00  0.00     0.007 A 
HETATM   17  C   UNL     1       8.175  21.677  52.899  1.00  0.00     0.001 A 
HETATM   18  C   UNL     1       7.889  20.623  53.758  1.00  0.00     0.000 A 
HETATM   19  C   UNL     1       7.639  20.880  55.100  1.00  0.00     0.001 A 
HETATM   20  C   UNL     1       7.702  22.189  55.586  1.00  0.00     0.007 A 
ENDBRANCH  11  15
BRANCH   1  21
HETATM   21  C   UNL     1       5.219  26.410  50.314  1.00  0.00     0.277 C 
BRANCH  21  22
HETATM   22  C   UNL     1       4.871  27.460  49.321  1.00  0.00     0.011 A 
HETATM   23  C   UNL     1       5.594  28.642  49.025  1.00  0.00     0.149 A 
HETATM   24  N   UNL     1       4.997  29.414  48.128  1.00  0.00    -0.185 NA
HETATM   25  N   UNL     1       3.904  28.722  47.777  1.00  0.00    -0.278 N 
HETATM   26  C   UNL     1       3.014  29.266  46.775  1.00  0.00     0.179 C 
HETATM   27  C   UNL     1       3.798  27.515  48.434  1.00  0.00     0.043 A 
BRANCH  27  28
HETATM   28  C   UNL     1       2.691  26.505  48.131  1.00  0.00     0.038 A 
HETATM   29  C   UNL     1       2.722  25.748  46.820  1.00  0.00     0.011 A 
HETATM   30  C   UNL     1       2.934  25.016  48.101  1.00  0.00     0.011 A 
ENDBRANCH  27  28
ENDBRANCH  21  22
ENDBRANCH   1  21
TORSDOF 4
ENDMDL
MODEL 2
REMARK VINA RESULT:      -9.5      0.791      2.173
REMARK  4 active torsions:
REMARK  status: ('A' for Active; 'I' for Inactive)
REMARK    1  A    between atoms: C_5  and  C_6 
REMARK    2  A    between atoms: C_6  and  N_7 
REMARK    3  A    between atoms: C_17  and  C_18 
REMARK    4  A    between atoms: C_27  and  C_28 
ROOT
HETATM    1  N   UNL     1       4.430  26.334  51.618  1.00  0.00    -0.067 N 
HETATM    2  H   UNL     1       3.462  26.522  51.318  1.00  0.00     0.280 HD
HETATM    3  C   UNL     1       4.410  25.048  52.392  1.00  0.00     0.236 C 
HETATM    4  C   UNL     1       5.746  24.782  53.085  1.00  0.00     0.039 C 
HETATM    5  C   UNL     1       6.296  25.947  53.954  1.00  0.00    -0.013 C 
HETATM    6  C   UNL     1       5.524  26.105  55.293  1.00  0.00     0.244 C 
HETATM    7  N   UNL     1       5.850  25.004  56.268  1.00  0.00    -0.073 N 
HETATM    8  H   UNL     1       5.582  24.097  55.863  1.00  0.00     0.279 HD
HETATM    9  C   UNL     1       5.046  25.129  57.545  1.00  0.00     0.269 C 
HETATM   10  C   UNL     1       7.338  24.924  56.586  1.00  0.00     0.243 C 
HETATM   11  C   UNL     1       8.136  24.620  55.307  1.00  0.00     0.045 C 
HETATM   12  C   UNL     1       7.809  25.730  54.272  1.00  0.00     0.022 C 
HETATM   13  C   UNL     1       6.182  27.264  53.126  1.00  0.00     0.039 C 
HETATM   14  C   UNL     1       4.818  27.503  52.480  1.00  0.00     0.236 C 
ENDROOT
BRANCH  11  15
HETATM   15  C   UNL     1       8.019  23.199  54.758  1.00  0.00    -0.052 A 
HETATM   16  C   UNL     1       7.693  22.083  55.549  1.00  0.00     0.007 A 
HETATM   17  C   UNL     1       7.591  20.804  54.991  1.00  0.00     0.001 A 
HETATM   18  C   UNL     1       7.839  20.607  53.638  1.00  0.00     0.000 A 
HETATM   19  C   UNL     1       8.217  21.683  52.845  1.00  0.00     0.001 A 
HETATM   20  C   UNL     1       8.318  22.961  53.402  1.00  0.00     0.007 A 
ENDBRANCH  11  15
BRANCH   1  21
HETATM   21  C   UNL     1       5.193  26.292  50.292  1.00  0.00     0.277 C 
BRANCH  21  22
HETATM   22  C   UNL     1       4.509  26.844  49.092  1.00  0.00     0.011 A 
HETATM   23  C   UNL     1       3.981  26.124  47.992  1.00  0.00     0.149 A 
HETATM   24  N   UNL     1       3.481  26.903  47.044  1.00  0.00    -0.185 NA
HETATM   25  N   UNL     1       3.618  28.143  47.534  1.00  0.00    -0.278 N 
HETATM   26  C   UNL     1       3.143  29.267  46.757  1.00  0.00     0.179 C 
HETATM   27  C   UNL     1       4.194  28.166  48.786  1.00  0.00     0.043 A 
BRANCH  27  28
HETATM   28  C   UNL     1       4.365  29.454  49.593  1.00  0.00     0.038 A 
HETATM   29  C   UNL     1       5.759  29.918  49.956  1.00  0.00     0.011 A 
HETATM   30  C   UNL     1       4.941  30.715  48.999  1.00  0.00     0.011 A 
ENDBRANCH  27  28
ENDBRANCH  21  22
ENDBRANCH   1  21
TORSDOF 4
ENDMDL
MODEL 3
REMARK VINA RESULT:      -9.1      4.005      7.589
REMARK  4 active torsions:
REMARK  status: ('A' for Active; 'I' for Inactive)
REMARK    1  A    between atoms: C_5  and  C_6 
REMARK    2  A    between atoms: C_6  and  N_7 
REMARK    3  A    between atoms: C_17  and  C_18 
REMARK    4  A    between atoms: C_27  and  C_28 
ROOT
HETATM    1  N   UNL     1       6.527  29.524  55.435  1.00  0.00    -0.067 N 
HETATM    2  H   UNL     1       6.962  30.455  55.357  1.00  0.00     0.280 HD
HETATM    3  C   UNL     1       7.369  28.575  54.632  1.00  0.00     0.236 C 
HETATM    4  C   UNL     1       6.699  27.210  54.482  1.00  0.00     0.039 C 
HETATM    5  C   UNL     1       5.235  27.234  53.960  1.00  0.00    -0.013 C 
HETATM    6  C   UNL     1       5.150  27.550  52.441  1.00  0.00     0.244 C 
HETATM    7  N   UNL     1       5.608  26.391  51.595  1.00  0.00    -0.073 N 
HETATM    8  H   UNL     1       6.590  26.175  51.811  1.00  0.00     0.279 HD
HETATM    9  C   UNL     1       5.583  26.729  50.120  1.00  0.00     0.269 C 
HETATM   10  C   UNL     1       4.808  25.121  51.860  1.00  0.00     0.243 C 
HETATM   11  C   UNL     1       4.981  24.683  53.324  1.00  0.00     0.045 C 
HETATM   12  C   UNL     1       4.534  25.865  54.226  1.00  0.00     0.022 C 
HETATM   13  C   UNL     1       4.453  28.318  54.764  1.00  0.00     0.039 C 
HETATM   14  C   UNL     1       5.147  29.676  54.860  1.00  0.00     0.236 C 
ENDROOT
BRANCH  11  15
HETATM   15  C   UNL     1       6.339  24.091  53.698  1.00  0.00    -0.052 A 
HETATM   16  C   UNL     1       7.258  23.595  52.756  1.00  0.00     0.007 A 
HETATM   17  C   UNL     1       8.493  23.073  53.154  1.00  0.00     0.001 A 
HETATM   18  C   UNL     1       8.826  23.006  54.502  1.00  0.00     0.000 A 
HETATM   19  C   UNL     1       7.913  23.438  55.456  1.00  0.00     0.001 A 
HETATM   20  C   UNL     1       6.680  23.962  55.058  1.00  0.00     0.007 A 
ENDBRANCH  11  15
BRANCH   1  21
HETATM   21  C   UNL     1       6.520  29.279  56.946  1.00  0.00     0.277 C 
BRANCH  21  22
HETATM   22  C   UNL     1       7.233  30.264  57.801  1.00  0.00     0.011 A 
HETATM   23  C   UNL     1       6.664  31.293  58.592  1.00  0.00     0.149 A 
HETATM   24  N   UNL     1       7.566  32.050  59.199  1.00  0.00    -0.185 NA
HETATM   25  N   UNL     1       8.739  31.493  58.866  1.00  0.00    -0.278 N 
HETATM   26  C   UNL     1       9.965  32.058  59.387  1.00  0.00     0.179 C 
HETATM   27  C   UNL     1       8.597  30.386  58.057  1.00  0.00     0.043 A 
BRANCH  27  28
HETATM   28  C   UNL     1       9.783  29.522  57.625  1.00  0.00     0.038 A 
HETATM   29  C   UNL     1      10.319  29.657  56.216  1.00  0.00     0.011 A 
HETATM   30  C   UNL     1      11.155  30.093  57.370  1.00  0.00     0.011 A 
ENDBRANCH  27  28
ENDBRANCH  21  22
ENDBRANCH   1  21
TORSDOF 4
ENDMDL
MODEL 4
REMARK VINA RESULT:      -8.7      2.060      3.998
REMARK  4 active torsions:
REMARK  status: ('A' for Active; 'I' for Inactive)
REMARK    1  A    between atoms: C_5  and  C_6 
REMARK    2  A    between atoms: C_6  and  N_7 
REMARK    3  A    between atoms: C_17  and  C_18 
REMARK    4  A    between atoms: C_27  and  C_28 
ROOT
HETATM    1  N   UNL     1       5.720  26.388  51.627  1.00  0.00    -0.067 N 
HETATM    2  H   UNL     1       6.036  26.304  50.649  1.00  0.00     0.280 HD
HETATM    3  C   UNL     1       6.920  26.762  52.448  1.00  0.00     0.236 C 
HETATM    4  C   UNL     1       6.627  26.690  53.946  1.00  0.00     0.039 C 
HETATM    5  C   UNL     1       6.004  25.357  54.446  1.00  0.00    -0.013 C 
HETATM    6  C   UNL     1       7.038  24.199  54.495  1.00  0.00     0.244 C 
HETATM    7  N   UNL     1       8.015  24.361  55.631  1.00  0.00    -0.073 N 
HETATM    8  H   UNL     1       8.539  25.238  55.510  1.00  0.00     0.279 HD
HETATM    9  C   UNL     1       9.059  23.264  55.633  1.00  0.00     0.269 C 
HETATM   10  C   UNL     1       7.328  24.439  56.988  1.00  0.00     0.243 C 
HETATM   11  C   UNL     1       6.398  25.663  57.039  1.00  0.00     0.045 C 
HETATM   12  C   UNL     1       5.387  25.537  55.869  1.00  0.00     0.022 C 
HETATM   13  C   UNL     1       4.839  24.976  53.481  1.00  0.00     0.039 C 
HETATM   14  C   UNL     1       5.188  25.031  51.995  1.00  0.00     0.236 C 
ENDROOT
BRANCH  11  15
HETATM   15  C   UNL     1       7.080  27.028  57.133  1.00  0.00    -0.052 A 
HETATM   16  C   UNL     1       8.475  27.203  57.123  1.00  0.00     0.007 A 
HETATM   17  C   UNL     1       9.045  28.479  57.201  1.00  0.00     0.001 A 
HETATM   18  C   UNL     1       8.237  29.603  57.320  1.00  0.00     0.000 A 
HETATM   19  C   UNL     1       6.857  29.453  57.388  1.00  0.00     0.001 A 
HETATM   20  C   UNL     1       6.288  28.179  57.308  1.00  0.00     0.007 A 
ENDBRANCH  11  15
BRANCH   1  21
HETATM   21  C   UNL     1       4.625  27.453  51.539  1.00  0.00     0.277 C 
BRANCH  21  22
HETATM   22  C   UNL     1       4.823  28.557  50.563  1.00  0.00     0.011 A 
HETATM   23  C   UNL     1       5.470  29.799  50.782  1.00  0.00     0.149 A 
HETATM   24  N   UNL     1       5.435  30.604  49.730  1.00  0.00    -0.185 NA
HETATM   25  N   UNL     1       4.818  29.881  48.785  1.00  0.00    -0.278 N 
HETATM   26  C   UNL     1       4.629  30.451  47.469  1.00  0.00     0.179 C 
HETATM   27  C   UNL     1       4.463  28.621  49.218  1.00  0.00     0.043 A 
BRANCH  27  28
HETATM   28  C   UNL     1       3.836  27.577  48.293  1.00  0.00     0.038 A 
HETATM   29  C   UNL     1       4.731  26.569  47.605  1.00  0.00     0.011 A 
HETATM   30  C   UNL     1       3.770  26.112  48.648  1.00  0.00     0.011 A 
ENDBRANCH  27  28
ENDBRANCH  21  22
ENDBRANCH   1  21
TORSDOF 4
ENDMDL
MODEL 5
REMARK VINA RESULT:      -8.5      2.834      8.010
REMARK  4 active torsions:
REMARK  status: ('A' for Active; 'I' for Inactive)
REMARK    1  A    between atoms: C_5  and  C_6 
REMARK    2  A    between atoms: C_6  and  N_7 
REMARK    3  A    between atoms: C_17  and  C_18 
REMARK    4  A    between atoms: C_27  and  C_28 
ROOT
HETATM    1  N   UNL     1       7.510  26.881  55.292  1.00  0.00    -0.067 N 
HETATM    2  H   UNL     1       8.370  26.886  55.859  1.00  0.00     0.280 HD
HETATM    3  C   UNL     1       7.627  28.004  54.302  1.00  0.00     0.236 C 
HETATM    4  C   UNL     1       6.314  28.242  53.558  1.00  0.00     0.039 C 
HETATM    5  C   UNL     1       5.056  28.418  54.453  1.00  0.00    -0.013 C 
HETATM    6  C   UNL     1       5.017  29.800  55.161  1.00  0.00     0.244 C 
HETATM    7  N   UNL     1       4.695  30.917  54.203  1.00  0.00    -0.073 N 
HETATM    8  H   UNL     1       5.420  30.964  53.474  1.00  0.00     0.279 HD
HETATM    9  C   UNL     1       4.723  32.268  54.887  1.00  0.00     0.269 C 
HETATM   10  C   UNL     1       3.364  30.713  53.491  1.00  0.00     0.243 C 
HETATM   11  C   UNL     1       3.405  29.424  52.654  1.00  0.00     0.045 C 
HETATM   12  C   UNL     1       3.753  28.251  53.610  1.00  0.00     0.022 C 
HETATM   13  C   UNL     1       5.062  27.283  55.524  1.00  0.00     0.039 C 
HETATM   14  C   UNL     1       6.386  27.103  56.265  1.00  0.00     0.236 C 
ENDROOT
BRANCH  11  15
HETATM   15  C   UNL     1       4.253  29.468  51.384  1.00  0.00    -0.052 A 
HETATM   16  C   UNL     1       4.969  30.603  50.965  1.00  0.00     0.007 A 
HETATM   17  C   UNL     1       5.739  30.584  49.797  1.00  0.00     0.001 A 
HETATM   18  C   UNL     1       5.788  29.442  49.007  1.00  0.00     0.000 A 
HETATM   19  C   UNL     1       5.046  28.324  49.369  1.00  0.00     0.001 A 
HETATM   20  C   UNL     1       4.278  28.343  50.536  1.00  0.00     0.007 A 
ENDBRANCH  11  15
BRANCH   1  21
HETATM   21  C   UNL     1       7.509  25.472  54.692  1.00  0.00     0.277 C 
BRANCH  21  22
HETATM   22  C   UNL     1       7.887  24.347  55.587  1.00  0.00     0.011 A 
HETATM   23  C   UNL     1       8.261  24.418  56.952  1.00  0.00     0.149 A 
HETATM   24  N   UNL     1       8.601  23.246  57.467  1.00  0.00    -0.185 NA
HETATM   25  N   UNL     1       8.398  22.378  56.465  1.00  0.00    -0.278 N 
HETATM   26  C   UNL     1       8.648  20.970  56.687  1.00  0.00     0.179 C 
HETATM   27  C   UNL     1       7.927  22.981  55.319  1.00  0.00     0.043 A 
BRANCH  27  28
HETATM   28  C   UNL     1       7.527  22.188  54.074  1.00  0.00     0.038 A 
HETATM   29  C   UNL     1       8.091  22.592  52.729  1.00  0.00     0.011 A 
HETATM   30  C   UNL     1       8.490  21.291  53.337  1.00  0.00     0.011 A 
ENDBRANCH  27  28
ENDBRANCH  21  22
ENDBRANCH   1  21
TORSDOF 4
ENDMDL
MODEL 6
REMARK VINA RESULT:      -8.5      2.189      4.207
REMARK  4 active torsions:
REMARK  status: ('A' for Active; 'I' for Inactive)
REMARK    1  A    between atoms: C_5  and  C_6 
REMARK    2  A    between atoms: C_6  and  N_7 
REMARK    3  A    between atoms: C_17  and  C_18 
REMARK    4  A    between atoms: C_27  and  C_28 
ROOT
HETATM    1  N   UNL     1       6.033  26.073  51.365  1.00  0.00    -0.067 N 
HETATM    2  H   UNL     1       6.405  25.865  50.426  1.00  0.00     0.280 HD
HETATM    3  C   UNL     1       7.203  26.431  52.234  1.00  0.00     0.236 C 
HETATM    4  C   UNL     1       6.805  26.536  53.706  1.00  0.00     0.039 C 
HETATM    5  C   UNL     1       6.035  25.316  54.283  1.00  0.00    -0.013 C 
HETATM    6  C   UNL     1       6.958  24.089  54.521  1.00  0.00     0.244 C 
HETATM    7  N   UNL     1       7.867  24.286  55.706  1.00  0.00    -0.073 N 
HETATM    8  H   UNL     1       8.473  25.101  55.542  1.00  0.00     0.279 HD
HETATM    9  C   UNL     1       8.808  23.114  55.892  1.00  0.00     0.269 C 
HETATM   10  C   UNL     1       7.100  24.557  56.994  1.00  0.00     0.243 C 
HETATM   11  C   UNL     1       6.280  25.851  56.857  1.00  0.00     0.045 C 
HETATM   12  C   UNL     1       5.343  25.689  55.631  1.00  0.00     0.022 C 
HETATM   13  C   UNL     1       4.908  24.934  53.274  1.00  0.00     0.039 C 
HETATM   14  C   UNL     1       5.360  24.809  51.820  1.00  0.00     0.236 C 
ENDROOT
BRANCH  11  15
HETATM   15  C   UNL     1       7.071  27.159  56.871  1.00  0.00    -0.052 A 
HETATM   16  C   UNL     1       8.457  27.228  57.102  1.00  0.00     0.007 A 
HETATM   17  C   UNL     1       9.133  28.453  57.092  1.00  0.00     0.001 A 
HETATM   18  C   UNL     1       8.437  29.637  56.882  1.00  0.00     0.000 A 
HETATM   19  C   UNL     1       7.059  29.602  56.706  1.00  0.00     0.001 A 
HETATM   20  C   UNL     1       6.384  28.378  56.714  1.00  0.00     0.007 A 
ENDBRANCH  11  15
BRANCH   1  21
HETATM   21  C   UNL     1       5.044  27.209  51.092  1.00  0.00     0.277 C 
BRANCH  21  22
HETATM   22  C   UNL     1       4.446  27.284  49.733  1.00  0.00     0.011 A 
HETATM   23  C   UNL     1       4.657  26.398  48.647  1.00  0.00     0.149 A 
HETATM   24  N   UNL     1       4.027  26.763  47.540  1.00  0.00    -0.185 NA
HETATM   25  N   UNL     1       3.345  27.861  47.898  1.00  0.00    -0.278 N 
HETATM   26  C   UNL     1       2.507  28.523  46.923  1.00  0.00     0.179 C 
HETATM   27  C   UNL     1       3.527  28.198  49.222  1.00  0.00     0.043 A 
BRANCH  27  28
HETATM   28  C   UNL     1       2.778  29.351  49.891  1.00  0.00     0.038 A 
HETATM   29  C   UNL     1       1.372  29.121  50.401  1.00  0.00     0.011 A 
HETATM   30  C   UNL     1       2.476  29.378  51.369  1.00  0.00     0.011 A 
ENDBRANCH  27  28
ENDBRANCH  21  22
ENDBRANCH   1  21
TORSDOF 4
ENDMDL
MODEL 7
REMARK VINA RESULT:      -8.3      2.483      4.930
REMARK  4 active torsions:
REMARK  status: ('A' for Active; 'I' for Inactive)
REMARK    1  A    between atoms: C_5  and  C_6 
REMARK    2  A    between atoms: C_6  and  N_7 
REMARK    3  A    between atoms: C_17  and  C_18 
REMARK    4  A    between atoms: C_27  and  C_28 
ROOT
HETATM    1  N   UNL     1       5.719  26.362  51.544  1.00  0.00    -0.067 N 
HETATM    2  H   UNL     1       6.067  26.288  50.576  1.00  0.00     0.280 HD
HETATM    3  C   UNL     1       6.876  26.794  52.398  1.00  0.00     0.236 C 
HETATM    4  C   UNL     1       6.541  26.716  53.886  1.00  0.00     0.039 C 
HETATM    5  C   UNL     1       5.964  25.359  54.376  1.00  0.00    -0.013 C 
HETATM    6  C   UNL     1       7.046  24.249  54.463  1.00  0.00     0.244 C 
HETATM    7  N   UNL     1       7.981  24.459  55.626  1.00  0.00    -0.073 N 
HETATM    8  H   UNL     1       8.469  25.358  55.516  1.00  0.00     0.279 HD
HETATM    9  C   UNL     1       9.071  23.410  55.666  1.00  0.00     0.269 C 
HETATM   10  C   UNL     1       7.250  24.513  56.962  1.00  0.00     0.243 C 
HETATM   11  C   UNL     1       6.266  25.695  56.978  1.00  0.00     0.045 C 
HETATM   12  C   UNL     1       5.297  25.519  55.779  1.00  0.00     0.022 C 
HETATM   13  C   UNL     1       4.846  24.922  53.380  1.00  0.00     0.039 C 
HETATM   14  C   UNL     1       5.237  24.985  51.904  1.00  0.00     0.236 C 
ENDROOT
BRANCH  11  15
HETATM   15  C   UNL     1       6.884  27.089  57.083  1.00  0.00    -0.052 A 
HETATM   16  C   UNL     1       8.261  27.320  57.245  1.00  0.00     0.007 A 
HETATM   17  C   UNL     1       8.773  28.620  57.325  1.00  0.00     0.001 A 
HETATM   18  C   UNL     1       7.920  29.715  57.276  1.00  0.00     0.000 A 
HETATM   19  C   UNL     1       6.549  29.513  57.172  1.00  0.00     0.001 A 
HETATM   20  C   UNL     1       6.038  28.216  57.090  1.00  0.00     0.007 A 
ENDBRANCH  11  15
BRANCH   1  21
HETATM   21  C   UNL     1       4.581  27.378  51.416  1.00  0.00     0.277 C 
BRANCH  21  22
HETATM   22  C   UNL     1       4.945  28.770  51.040  1.00  0.00     0.011 A 
HETATM   23  C   UNL     1       5.686  29.193  49.909  1.00  0.00     0.149 A 
HETATM   24  N   UNL     1       5.900  30.500  49.879  1.00  0.00    -0.185 NA
HETATM   25  N   UNL     1       5.252  30.963  50.957  1.00  0.00    -0.278 N 
HETATM   26  C   UNL     1       5.251  32.384  51.226  1.00  0.00     0.179 C 
HETATM   27  C   UNL     1       4.622  29.968  51.673  1.00  0.00     0.043 A 
BRANCH  27  28
HETATM   28  C   UNL     1       3.737  30.258  52.887  1.00  0.00     0.038 A 
HETATM   29  C   UNL     1       3.840  29.365  54.105  1.00  0.00     0.011 A 
HETATM   30  C   UNL     1       4.290  30.784  54.189  1.00  0.00     0.011 A 
ENDBRANCH  27  28
ENDBRANCH  21  22
ENDBRANCH   1  21
TORSDOF 4
ENDMDL
MODEL 8
REMARK VINA RESULT:      -8.3      2.108      7.874
REMARK  4 active torsions:
REMARK  status: ('A' for Active; 'I' for Inactive)
REMARK    1  A    between atoms: C_5  and  C_6 
REMARK    2  A    between atoms: C_6  and  N_7 
REMARK    3  A    between atoms: C_17  and  C_18 
REMARK    4  A    between atoms: C_27  and  C_28 
ROOT
HETATM    1  N   UNL     1       5.715  28.010  54.193  1.00  0.00    -0.067 N 
HETATM    2  H   UNL     1       6.518  28.115  54.831  1.00  0.00     0.280 HD
HETATM    3  C   UNL     1       6.225  28.243  52.800  1.00  0.00     0.236 C 
HETATM    4  C   UNL     1       5.084  28.342  51.789  1.00  0.00     0.039 C 
HETATM    5  C   UNL     1       3.955  29.349  52.145  1.00  0.00    -0.013 C 
HETATM    6  C   UNL     1       4.391  30.826  51.942  1.00  0.00     0.244 C 
HETATM    7  N   UNL     1       4.486  31.194  50.484  1.00  0.00    -0.073 N 
HETATM    8  H   UNL     1       5.189  30.599  50.026  1.00  0.00     0.279 HD
HETATM    9  C   UNL     1       4.974  32.614  50.294  1.00  0.00     0.269 C 
HETATM   10  C   UNL     1       3.174  30.981  49.739  1.00  0.00     0.243 C 
HETATM   11  C   UNL     1       2.774  29.497  49.787  1.00  0.00     0.045 C 
HETATM   12  C   UNL     1       2.684  29.079  51.279  1.00  0.00     0.022 C 
HETATM   13  C   UNL     1       3.556  29.122  53.635  1.00  0.00     0.039 C 
HETATM   14  C   UNL     1       4.728  29.062  54.614  1.00  0.00     0.236 C 
ENDROOT
BRANCH  11  15
HETATM   15  C   UNL     1       3.599  28.546  48.920  1.00  0.00    -0.052 A 
HETATM   16  C   UNL     1       4.683  28.959  48.126  1.00  0.00     0.007 A 
HETATM   17  C   UNL     1       5.410  28.041  47.359  1.00  0.00     0.001 A 
HETATM   18  C   UNL     1       5.053  26.698  47.346  1.00  0.00     0.000 A 
HETATM   19  C   UNL     1       3.951  26.274  48.078  1.00  0.00     0.001 A 
HETATM   20  C   UNL     1       3.226  27.189  48.845  1.00  0.00     0.007 A 
ENDBRANCH  11  15
BRANCH   1  21
HETATM   21  C   UNL     1       5.232  26.588  54.488  1.00  0.00     0.277 C 
BRANCH  21  22
HETATM   22  C   UNL     1       6.133  25.711  55.282  1.00  0.00     0.011 A 
HETATM   23  C   UNL     1       6.003  25.349  56.646  1.00  0.00     0.149 A 
HETATM   24  N   UNL     1       7.001  24.598  57.088  1.00  0.00    -0.185 NA
HETATM   25  N   UNL     1       7.770  24.405  56.007  1.00  0.00    -0.278 N 
HETATM   26  C   UNL     1       8.958  23.589  56.120  1.00  0.00     0.179 C 
HETATM   27  C   UNL     1       7.272  25.018  54.878  1.00  0.00     0.043 A 
BRANCH  27  28
HETATM   28  C   UNL     1       7.917  24.861  53.500  1.00  0.00     0.038 A 
HETATM   29  C   UNL     1       7.715  23.573  52.733  1.00  0.00     0.011 A 
HETATM   30  C   UNL     1       7.114  24.838  52.223  1.00  0.00     0.011 A 
ENDBRANCH  27  28
ENDBRANCH  21  22
ENDBRANCH   1  21
TORSDOF 4
ENDMDL
MODEL 9
REMARK VINA RESULT:      -8.1      2.157      7.966
REMARK  4 active torsions:
REMARK  status: ('A' for Active; 'I' for Inactive)
REMARK    1  A    between atoms: C_5  and  C_6 
REMARK    2  A    between atoms: C_6  and  N_7 
REMARK    3  A    between atoms: C_17  and  C_18 
REMARK    4  A    between atoms: C_27  and  C_28 
ROOT
HETATM    1  N   UNL     1       5.957  27.208  54.226  1.00  0.00    -0.067 N 
HETATM    2  H   UNL     1       6.783  27.233  54.842  1.00  0.00     0.280 HD
HETATM    3  C   UNL     1       6.415  27.623  52.857  1.00  0.00     0.236 C 
HETATM    4  C   UNL     1       5.238  27.847  51.909  1.00  0.00     0.039 C 
HETATM    5  C   UNL     1       4.123  28.793  52.434  1.00  0.00    -0.013 C 
HETATM    6  C   UNL     1       4.550  30.286  52.410  1.00  0.00     0.244 C 
HETATM    7  N   UNL     1       4.591  30.841  51.010  1.00  0.00    -0.073 N 
HETATM    8  H   UNL     1       5.278  30.314  50.453  1.00  0.00     0.279 HD
HETATM    9  C   UNL     1       5.071  32.277  50.989  1.00  0.00     0.269 C 
HETATM   10  C   UNL     1       3.253  30.721  50.292  1.00  0.00     0.243 C 
HETATM   11  C   UNL     1       2.856  29.241  50.160  1.00  0.00     0.045 C 
HETATM   12  C   UNL     1       2.821  28.632  51.587  1.00  0.00     0.022 C 
HETATM   13  C   UNL     1       3.778  28.371  53.896  1.00  0.00     0.039 C 
HETATM   14  C   UNL     1       4.985  28.191  54.815  1.00  0.00     0.236 C 
ENDROOT
BRANCH  11  15
HETATM   15  C   UNL     1       3.649  28.414  49.148  1.00  0.00    -0.052 A 
HETATM   16  C   UNL     1       4.679  28.942  48.349  1.00  0.00     0.007 A 
HETATM   17  C   UNL     1       5.379  28.136  47.444  1.00  0.00     0.001 A 
HETATM   18  C   UNL     1       5.048  26.795  47.297  1.00  0.00     0.000 A 
HETATM   19  C   UNL     1       3.997  26.262  48.034  1.00  0.00     0.001 A 
HETATM   20  C   UNL     1       3.299  27.066  48.938  1.00  0.00     0.007 A 
ENDBRANCH  11  15
BRANCH   1  21
HETATM   21  C   UNL     1       5.486  25.757  54.350  1.00  0.00     0.277 C 
BRANCH  21  22
HETATM   22  C   UNL     1       6.515  24.691  54.223  1.00  0.00     0.011 A 
HETATM   23  C   UNL     1       6.990  24.086  53.033  1.00  0.00     0.149 A 
HETATM   24  N   UNL     1       7.870  23.120  53.249  1.00  0.00    -0.185 NA
HETATM   25  N   UNL     1       8.033  23.117  54.580  1.00  0.00    -0.278 N 
HETATM   26  C   UNL     1       8.966  22.186  55.176  1.00  0.00     0.179 C 
HETATM   27  C   UNL     1       7.272  24.073  55.217  1.00  0.00     0.043 A 
BRANCH  27  28
HETATM   28  C   UNL     1       7.359  24.331  56.722  1.00  0.00     0.038 A 
HETATM   29  C   UNL     1       8.470  25.210  57.256  1.00  0.00     0.011 A 
HETATM   30  C   UNL     1       7.056  25.675  57.336  1.00  0.00     0.011 A 
ENDBRANCH  27  28
ENDBRANCH  21  22
ENDBRANCH   1  21
TORSDOF 4
ENDMDL
MODEL 10
REMARK VINA RESULT:      -7.9      1.942      2.703
REMARK  4 active torsions:
REMARK  status: ('A' for Active; 'I' for Inactive)
REMARK    1  A    between atoms: C_5  and  C_6 
REMARK    2  A    between atoms: C_6  and  N_7 
REMARK    3  A    between atoms: C_17  and  C_18 
REMARK    4  A    between atoms: C_27  and  C_28 
ROOT
HETATM    1  N   UNL     1       3.557  29.057  52.884  1.00  0.00    -0.067 N 
HETATM    2  H   UNL     1       2.564  29.224  52.663  1.00  0.00     0.280 HD
HETATM    3  C   UNL     1       3.742  27.571  52.993  1.00  0.00     0.236 C 
HETATM    4  C   UNL     1       5.121  27.211  53.543  1.00  0.00     0.039 C 
HETATM    5  C   UNL     1       5.524  27.920  54.865  1.00  0.00    -0.013 C 
HETATM    6  C   UNL     1       4.775  27.347  56.100  1.00  0.00     0.244 C 
HETATM    7  N   UNL     1       5.281  25.981  56.485  1.00  0.00    -0.073 N 
HETATM    8  H   UNL     1       5.134  25.328  55.704  1.00  0.00     0.279 HD
HETATM    9  C   UNL     1       4.504  25.402  57.648  1.00  0.00     0.269 C 
HETATM   10  C   UNL     1       6.774  25.974  56.792  1.00  0.00     0.243 C 
HETATM   11  C   UNL     1       7.571  26.396  55.546  1.00  0.00     0.045 C 
HETATM   12  C   UNL     1       7.061  27.796  55.110  1.00  0.00     0.022 C 
HETATM   13  C   UNL     1       5.201  29.439  54.717  1.00  0.00     0.039 C 
HETATM   14  C   UNL     1       3.799  29.752  54.195  1.00  0.00     0.236 C 
ENDROOT
BRANCH  11  15
HETATM   15  C   UNL     1       7.642  25.376  54.410  1.00  0.00    -0.052 A 
HETATM   16  C   UNL     1       7.862  25.723  53.065  1.00  0.00     0.007 A 
HETATM   17  C   UNL     1       7.928  24.745  52.066  1.00  0.00     0.001 A 
HETATM   18  C   UNL     1       7.747  23.404  52.383  1.00  0.00     0.000 A 
HETATM   19  C   UNL     1       7.473  23.040  53.696  1.00  0.00     0.001 A 
HETATM   20  C   UNL     1       7.409  24.016  54.693  1.00  0.00     0.007 A 
ENDBRANCH  11  15
BRANCH   1  21
HETATM   21  C   UNL     1       4.281  29.727  51.712  1.00  0.00     0.277 C 
BRANCH  21  22
HETATM   22  C   UNL     1       4.262  29.020  50.404  1.00  0.00     0.011 A 
HETATM   23  C   UNL     1       5.343  28.372  49.758  1.00  0.00     0.149 A 
HETATM   24  N   UNL     1       5.027  27.881  48.568  1.00  0.00    -0.185 NA
HETATM   25  N   UNL     1       3.719  28.147  48.441  1.00  0.00    -0.278 N 
HETATM   26  C   UNL     1       3.023  27.718  47.248  1.00  0.00     0.179 C 
HETATM   27  C   UNL     1       3.194  28.795  49.538  1.00  0.00     0.043 A 
BRANCH  27  28
HETATM   28  C   UNL     1       1.705  29.116  49.673  1.00  0.00     0.038 A 
HETATM   29  C   UNL     1       1.287  30.487  50.158  1.00  0.00     0.011 A 
HETATM   30  C   UNL     1       0.995  30.080  48.754  1.00  0.00     0.011 A 
ENDBRANCH  27  28
ENDBRANCH  21  22
ENDBRANCH   1  21
TORSDOF 4
ENDMDL
