MODEL 1
REMARK VINA RESULT:      -9.5      0.000      0.000
REMARK  8 active torsions:
REMARK  status: ('A' for Active; 'I' for Inactive)
REMARK    1  A    between atoms: C_2  and  C_3 
REMARK    2  A    between atoms: C_3  and  O_4 
REMARK    3  A    between atoms: O_4  and  C_5 
REMARK    4  A    between atoms: C_8  and  C_9 
REMARK    5  A    between atoms: N_10  and  C_11 
REMARK    6  A    between atoms: C_11  and  C_12 
REMARK    7  A    between atoms: C_25  and  C_26 
REMARK    8  A    between atoms: C_27  and  O_28 
ROOT
HETATM    1  C   UNL     1       6.020  25.270  55.867  1.00  0.00     0.159 A 
HETATM    2  N   UNL     1       5.972  26.547  56.633  1.00  0.00    -0.329 N 
HETATM    3  C   UNL     1       7.132  26.805  57.375  1.00  0.00     0.273 A 
HETATM    4  O   UNL     1       7.349  27.717  58.152  1.00  0.00    -0.266 OA
HETATM    5  C   UNL     1       7.983  25.723  57.048  1.00  0.00     0.129 A 
HETATM    6  C   UNL     1       7.393  24.832  56.203  1.00  0.00     0.034 A 
HETATM    7  N   UNL     1       9.220  25.280  57.313  1.00  0.00    -0.272 N 
HETATM    8  H   UNL     1       9.940  25.692  57.899  1.00  0.00     0.189 HD
HETATM    9  N   UNL     1       9.479  24.113  56.668  1.00  0.00    -0.173 NA
HETATM   10  C   UNL     1       8.350  23.832  55.975  1.00  0.00     0.101 A 
ENDROOT
BRANCH   1  11
HETATM   11  C   UNL     1       5.963  25.431  54.367  1.00  0.00    -0.030 A 
HETATM   12  C   UNL     1       4.983  24.812  53.573  1.00  0.00     0.012 A 
HETATM   13  C   UNL     1       4.904  25.080  52.204  1.00  0.00     0.037 A 
HETATM   14  C   UNL     1       5.789  25.976  51.606  1.00  0.00     0.069 A 
HETATM   15  C   UNL     1       6.806  26.547  52.368  1.00  0.00     0.037 A 
HETATM   16  C   UNL     1       6.888  26.280  53.738  1.00  0.00     0.012 A 
BRANCH  14  17
HETATM   17  O   UNL     1       5.576  26.214  50.275  1.00  0.00    -0.348 OA
BRANCH  17  18
HETATM   18  C   UNL     1       4.553  27.167  49.982  1.00  0.00     0.202 C 
BRANCH  18  19
HETATM   19  C   UNL     1       3.938  26.783  48.670  1.00  0.00    -0.011 C 
HETATM   20  C   UNL     1       3.447  25.569  48.388  1.00  0.00     0.009 C 
ENDBRANCH  18  19
ENDBRANCH  17  18
ENDBRANCH  14  17
ENDBRANCH   1  11
BRANCH   2  21
HETATM   21  C   UNL     1       4.728  27.250  56.862  1.00  0.00     0.167 C 
BRANCH  21  22
HETATM   22  C   UNL     1       4.606  28.467  55.986  1.00  0.00    -0.023 A 
HETATM   23  C   UNL     1       4.980  29.726  56.446  1.00  0.00     0.125 A 
HETATM   24  N   UNL     1       4.941  30.849  55.695  1.00  0.00    -0.273 NA
HETATM   25  C   UNL     1       4.501  30.719  54.426  1.00  0.00     0.116 A 
HETATM   26  C   UNL     1       4.099  29.516  53.871  1.00  0.00     0.020 A 
HETATM   27  C   UNL     1       4.152  28.376  54.667  1.00  0.00     0.012 A 
ENDBRANCH  21  22
ENDBRANCH   2  21
BRANCH  10  28
HETATM   28  C   UNL     1       8.243  22.657  55.119  1.00  0.00     0.028 A 
HETATM   29  C   UNL     1       8.191  21.354  55.635  1.00  0.00     0.078 A 
HETATM   30  C   UNL     1       7.980  20.259  54.798  1.00  0.00     0.037 A 
HETATM   31  C   UNL     1       7.854  20.450  53.422  1.00  0.00     0.003 A 
HETATM   32  C   UNL     1       7.940  21.735  52.889  1.00  0.00     0.001 A 
HETATM   33  C   UNL     1       8.130  22.832  53.732  1.00  0.00     0.017 A 
BRANCH  29  34
HETATM   34  O   UNL     1       8.368  21.073  56.964  1.00  0.00    -0.360 OA
HETATM   35  H   UNL     1       9.291  21.300  57.180  1.00  0.00     0.217 HD
ENDBRANCH  29  34
ENDBRANCH  10  28
TORSDOF 8
ENDMDL
MODEL 2
REMARK VINA RESULT:      -9.1      2.492      6.058
REMARK  8 active torsions:
REMARK  status: ('A' for Active; 'I' for Inactive)
REMARK    1  A    between atoms: C_2  and  C_3 
REMARK    2  A    between atoms: C_3  and  O_4 
REMARK    3  A    between atoms: O_4  and  C_5 
REMARK    4  A    between atoms: C_8  and  C_9 
REMARK    5  A    between atoms: N_10  and  C_11 
REMARK    6  A    between atoms: C_11  and  C_12 
REMARK    7  A    between atoms: C_25  and  C_26 
REMARK    8  A    between atoms: C_27  and  O_28 
ROOT
HETATM    1  C   UNL     1       7.073  27.677  54.681  1.00  0.00     0.159 A 
HETATM    2  N   UNL     1       6.974  27.728  56.166  1.00  0.00    -0.329 N 
HETATM    3  C   UNL     1       5.789  28.311  56.635  1.00  0.00     0.273 A 
HETATM    4  O   UNL     1       5.468  28.561  57.783  1.00  0.00    -0.266 OA
HETATM    5  C   UNL     1       5.066  28.590  55.452  1.00  0.00     0.129 A 
HETATM    6  C   UNL     1       5.756  28.252  54.326  1.00  0.00     0.034 A 
HETATM    7  N   UNL     1       3.885  29.099  55.072  1.00  0.00    -0.272 N 
HETATM    8  H   UNL     1       3.121  29.449  55.643  1.00  0.00     0.189 HD
HETATM    9  N   UNL     1       3.761  29.112  53.719  1.00  0.00    -0.173 NA
HETATM   10  C   UNL     1       4.917  28.584  53.252  1.00  0.00     0.101 A 
ENDROOT
BRANCH   1  11
HETATM   11  C   UNL     1       7.118  26.286  54.097  1.00  0.00    -0.030 A 
HETATM   12  C   UNL     1       7.836  25.972  52.931  1.00  0.00     0.012 A 
HETATM   13  C   UNL     1       7.939  24.649  52.494  1.00  0.00     0.037 A 
HETATM   14  C   UNL     1       7.340  23.617  53.214  1.00  0.00     0.069 A 
HETATM   15  C   UNL     1       6.571  23.919  54.335  1.00  0.00     0.037 A 
HETATM   16  C   UNL     1       6.465  25.242  54.776  1.00  0.00     0.012 A 
BRANCH  14  17
HETATM   17  O   UNL     1       7.564  22.356  52.731  1.00  0.00    -0.348 OA
BRANCH  17  18
HETATM   18  C   UNL     1       8.584  21.617  53.405  1.00  0.00     0.202 C 
BRANCH  18  19
HETATM   19  C   UNL     1       7.910  20.556  54.222  1.00  0.00    -0.011 C 
HETATM   20  C   UNL     1       7.827  20.567  55.560  1.00  0.00     0.009 C 
ENDBRANCH  18  19
ENDBRANCH  17  18
ENDBRANCH  14  17
ENDBRANCH   1  11
BRANCH   2  21
HETATM   21  C   UNL     1       8.131  27.526  57.012  1.00  0.00     0.167 C 
BRANCH  21  22
HETATM   22  C   UNL     1       8.855  28.817  57.284  1.00  0.00    -0.023 A 
HETATM   23  C   UNL     1       8.498  29.631  58.353  1.00  0.00     0.125 A 
HETATM   24  N   UNL     1       9.137  30.777  58.680  1.00  0.00    -0.273 NA
HETATM   25  C   UNL     1      10.180  31.137  57.901  1.00  0.00     0.116 A 
HETATM   26  C   UNL     1      10.613  30.403  56.810  1.00  0.00     0.020 A 
HETATM   27  C   UNL     1       9.937  29.227  56.499  1.00  0.00     0.012 A 
ENDBRANCH  21  22
ENDBRANCH   2  21
BRANCH  10  28
HETATM   28  C   UNL     1       5.159  28.398  51.826  1.00  0.00     0.028 A 
HETATM   29  C   UNL     1       4.891  27.189  51.169  1.00  0.00     0.078 A 
HETATM   30  C   UNL     1       5.030  27.077  49.786  1.00  0.00     0.037 A 
HETATM   31  C   UNL     1       5.479  28.169  49.043  1.00  0.00     0.003 A 
HETATM   32  C   UNL     1       5.785  29.368  49.684  1.00  0.00     0.001 A 
HETATM   33  C   UNL     1       5.624  29.483  51.067  1.00  0.00     0.017 A 
BRANCH  29  34
HETATM   34  O   UNL     1       4.508  26.053  51.831  1.00  0.00    -0.360 OA
HETATM   35  H   UNL     1       4.848  25.298  51.317  1.00  0.00     0.217 HD
ENDBRANCH  29  34
ENDBRANCH  10  28
TORSDOF 8
ENDMDL
MODEL 3
REMARK VINA RESULT:      -8.9      0.748      1.003
REMARK  8 active torsions:
REMARK  status: ('A' for Active; 'I' for Inactive)
REMARK    1  A    between atoms: C_2  and  C_3 
REMARK    2  A    between atoms: C_3  and  O_4 
REMARK    3  A    between atoms: O_4  and  C_5 
REMARK    4  A    between atoms: C_8  and  C_9 
REMARK    5  A    between atoms: N_10  and  C_11 
REMARK    6  A    between atoms: C_11  and  C_12 
REMARK    7  A    between atoms: C_25  and  C_26 
REMARK    8  A    between atoms: C_27  and  O_28 
ROOT
HETATM    1  C   UNL     1       5.788  25.501  55.723  1.00  0.00     0.159 A 
HETATM    2  N   UNL     1       5.679  26.820  56.406  1.00  0.00    -0.329 N 
HETATM    3  C   UNL     1       6.787  27.139  57.201  1.00  0.00     0.273 A 
HETATM    4  O   UNL     1       6.945  28.099  57.934  1.00  0.00    -0.266 OA
HETATM    5  C   UNL     1       7.668  26.053  56.993  1.00  0.00     0.129 A 
HETATM    6  C   UNL     1       7.142  25.104  56.169  1.00  0.00     0.034 A 
HETATM    7  N   UNL     1       8.891  25.645  57.361  1.00  0.00    -0.272 N 
HETATM    8  H   UNL     1       9.568  26.102  57.964  1.00  0.00     0.189 HD
HETATM    9  N   UNL     1       9.203  24.445  56.805  1.00  0.00    -0.173 NA
HETATM   10  C   UNL     1       8.123  24.107  56.062  1.00  0.00     0.101 A 
ENDROOT
BRANCH   1  11
HETATM   11  C   UNL     1       5.823  25.571  54.216  1.00  0.00    -0.030 A 
HETATM   12  C   UNL     1       4.955  24.827  53.399  1.00  0.00     0.012 A 
HETATM   13  C   UNL     1       4.950  25.010  52.014  1.00  0.00     0.037 A 
HETATM   14  C   UNL     1       5.799  25.942  51.420  1.00  0.00     0.069 A 
HETATM   15  C   UNL     1       6.711  26.639  52.210  1.00  0.00     0.037 A 
HETATM   16  C   UNL     1       6.718  26.459  53.596  1.00  0.00     0.012 A 
BRANCH  14  17
HETATM   17  O   UNL     1       5.661  26.086  50.066  1.00  0.00    -0.348 OA
BRANCH  17  18
HETATM   18  C   UNL     1       4.324  26.297  49.609  1.00  0.00     0.202 C 
BRANCH  18  19
HETATM   19  C   UNL     1       4.403  26.988  48.280  1.00  0.00    -0.011 C 
HETATM   20  C   UNL     1       3.384  27.089  47.416  1.00  0.00     0.009 C 
ENDBRANCH  18  19
ENDBRANCH  17  18
ENDBRANCH  14  17
ENDBRANCH   1  11
BRANCH   2  21
HETATM   21  C   UNL     1       4.415  27.517  56.515  1.00  0.00     0.167 C 
BRANCH  21  22
HETATM   22  C   UNL     1       4.342  28.689  55.575  1.00  0.00    -0.023 A 
HETATM   23  C   UNL     1       3.907  28.534  54.263  1.00  0.00     0.125 A 
HETATM   24  N   UNL     1       3.773  29.552  53.383  1.00  0.00    -0.273 NA
HETATM   25  C   UNL     1       4.093  30.786  53.825  1.00  0.00     0.116 A 
HETATM   26  C   UNL     1       4.541  31.051  55.108  1.00  0.00     0.020 A 
HETATM   27  C   UNL     1       4.668  29.984  55.993  1.00  0.00     0.012 A 
ENDBRANCH  21  22
ENDBRANCH   2  21
BRANCH  10  28
HETATM   28  C   UNL     1       8.082  22.881  55.274  1.00  0.00     0.028 A 
HETATM   29  C   UNL     1       8.043  21.609  55.863  1.00  0.00     0.078 A 
HETATM   30  C   UNL     1       7.895  20.461  55.085  1.00  0.00     0.037 A 
HETATM   31  C   UNL     1       7.822  20.569  53.696  1.00  0.00     0.003 A 
HETATM   32  C   UNL     1       7.897  21.822  53.091  1.00  0.00     0.001 A 
HETATM   33  C   UNL     1       8.023  22.972  53.875  1.00  0.00     0.017 A 
BRANCH  29  34
HETATM   34  O   UNL     1       8.171  21.411  57.212  1.00  0.00    -0.360 OA
HETATM   35  H   UNL     1       8.041  20.458  57.371  1.00  0.00     0.217 HD
ENDBRANCH  29  34
ENDBRANCH  10  28
TORSDOF 8
ENDMDL
MODEL 4
REMARK VINA RESULT:      -8.2      2.680      8.238
REMARK  8 active torsions:
REMARK  status: ('A' for Active; 'I' for Inactive)
REMARK    1  A    between atoms: C_2  and  C_3 
REMARK    2  A    between atoms: C_3  and  O_4 
REMARK    3  A    between atoms: O_4  and  C_5 
REMARK    4  A    between atoms: C_8  and  C_9 
REMARK    5  A    between atoms: N_10  and  C_11 
REMARK    6  A    between atoms: C_11  and  C_12 
REMARK    7  A    between atoms: C_25  and  C_26 
REMARK    8  A    between atoms: C_27  and  O_28 
ROOT
HETATM    1  C   UNL     1       4.583  27.487  53.978  1.00  0.00     0.159 A 
HETATM    2  N   UNL     1       4.891  26.493  52.913  1.00  0.00    -0.329 N 
HETATM    3  C   UNL     1       4.953  27.043  51.626  1.00  0.00     0.273 A 
HETATM    4  O   UNL     1       5.103  26.470  50.561  1.00  0.00    -0.266 OA
HETATM    5  C   UNL     1       4.748  28.425  51.846  1.00  0.00     0.129 A 
HETATM    6  C   UNL     1       4.531  28.718  53.159  1.00  0.00     0.034 A 
HETATM    7  N   UNL     1       4.695  29.572  51.154  1.00  0.00    -0.272 N 
HETATM    8  H   UNL     1       4.814  29.730  50.158  1.00  0.00     0.189 HD
HETATM    9  N   UNL     1       4.448  30.632  51.968  1.00  0.00    -0.173 NA
HETATM   10  C   UNL     1       4.349  30.108  53.213  1.00  0.00     0.101 A 
ENDROOT
BRANCH   1  11
HETATM   11  C   UNL     1       5.678  27.681  54.998  1.00  0.00    -0.030 A 
HETATM   12  C   UNL     1       7.009  27.959  54.642  1.00  0.00     0.012 A 
HETATM   13  C   UNL     1       7.963  28.242  55.622  1.00  0.00     0.037 A 
HETATM   14  C   UNL     1       7.608  28.264  56.970  1.00  0.00     0.069 A 
HETATM   15  C   UNL     1       6.309  27.927  57.342  1.00  0.00     0.037 A 
HETATM   16  C   UNL     1       5.351  27.644  56.364  1.00  0.00     0.012 A 
BRANCH  14  17
HETATM   17  O   UNL     1       8.607  28.619  57.836  1.00  0.00    -0.348 OA
BRANCH  17  18
HETATM   18  C   UNL     1       8.712  30.019  58.104  1.00  0.00     0.202 C 
BRANCH  18  19
HETATM   19  C   UNL     1      10.130  30.426  57.839  1.00  0.00    -0.011 C 
HETATM   20  C   UNL     1      10.998  29.717  57.102  1.00  0.00     0.009 C 
ENDBRANCH  18  19
ENDBRANCH  17  18
ENDBRANCH  14  17
ENDBRANCH   1  11
BRANCH   2  21
HETATM   21  C   UNL     1       4.780  25.069  53.147  1.00  0.00     0.167 C 
BRANCH  21  22
HETATM   22  C   UNL     1       6.093  24.469  53.571  1.00  0.00    -0.023 A 
HETATM   23  C   UNL     1       6.378  24.236  54.913  1.00  0.00     0.125 A 
HETATM   24  N   UNL     1       7.517  23.658  55.356  1.00  0.00    -0.273 NA
HETATM   25  C   UNL     1       8.422  23.299  54.422  1.00  0.00     0.116 A 
HETATM   26  C   UNL     1       8.242  23.491  53.063  1.00  0.00     0.020 A 
HETATM   27  C   UNL     1       7.059  24.087  52.635  1.00  0.00     0.012 A 
ENDBRANCH  21  22
ENDBRANCH   2  21
BRANCH  10  28
HETATM   28  C   UNL     1       4.115  30.943  54.385  1.00  0.00     0.028 A 
HETATM   29  C   UNL     1       2.946  31.701  54.547  1.00  0.00     0.078 A 
HETATM   30  C   UNL     1       2.704  32.403  55.727  1.00  0.00     0.037 A 
HETATM   31  C   UNL     1       3.652  32.388  56.751  1.00  0.00     0.003 A 
HETATM   32  C   UNL     1       4.836  31.671  56.592  1.00  0.00     0.001 A 
HETATM   33  C   UNL     1       5.066  30.951  55.417  1.00  0.00     0.017 A 
BRANCH  29  34
HETATM   34  O   UNL     1       1.996  31.819  53.568  1.00  0.00    -0.360 OA
HETATM   35  H   UNL     1       2.444  32.182  52.782  1.00  0.00     0.217 HD
ENDBRANCH  29  34
ENDBRANCH  10  28
TORSDOF 8
ENDMDL
MODEL 5
REMARK VINA RESULT:      -8.2      2.151      6.480
REMARK  8 active torsions:
REMARK  status: ('A' for Active; 'I' for Inactive)
REMARK    1  A    between atoms: C_2  and  C_3 
REMARK    2  A    between atoms: C_3  and  O_4 
REMARK    3  A    between atoms: O_4  and  C_5 
REMARK    4  A    between atoms: C_8  and  C_9 
REMARK    5  A    between atoms: N_10  and  C_11 
REMARK    6  A    between atoms: C_11  and  C_12 
REMARK    7  A    between atoms: C_25  and  C_26 
REMARK    8  A    between atoms: C_27  and  O_28 
ROOT
HETATM    1  C   UNL     1       6.042  28.294  53.213  1.00  0.00     0.159 A 
HETATM    2  N   UNL     1       5.640  28.633  54.607  1.00  0.00    -0.329 N 
HETATM    3  C   UNL     1       4.327  29.105  54.719  1.00  0.00     0.273 A 
HETATM    4  O   UNL     1       3.754  29.531  55.705  1.00  0.00    -0.266 OA
HETATM    5  C   UNL     1       3.829  29.018  53.397  1.00  0.00     0.129 A 
HETATM    6  C   UNL     1       4.765  28.569  52.515  1.00  0.00     0.034 A 
HETATM    7  N   UNL     1       2.697  29.245  52.715  1.00  0.00    -0.272 N 
HETATM    8  H   UNL     1       1.799  29.579  53.050  1.00  0.00     0.189 HD
HETATM    9  N   UNL     1       2.848  28.960  51.395  1.00  0.00    -0.173 NA
HETATM   10  C   UNL     1       4.127  28.537  51.266  1.00  0.00     0.101 A 
ENDROOT
BRANCH   1  11
HETATM   11  C   UNL     1       6.364  26.838  52.984  1.00  0.00    -0.030 A 
HETATM   12  C   UNL     1       7.593  26.404  52.458  1.00  0.00     0.012 A 
HETATM   13  C   UNL     1       7.887  25.041  52.370  1.00  0.00     0.037 A 
HETATM   14  C   UNL     1       6.971  24.089  52.812  1.00  0.00     0.069 A 
HETATM   15  C   UNL     1       5.723  24.501  53.275  1.00  0.00     0.037 A 
HETATM   16  C   UNL     1       5.425  25.864  53.365  1.00  0.00     0.012 A 
BRANCH  14  17
HETATM   17  O   UNL     1       7.391  22.788  52.741  1.00  0.00    -0.348 OA
BRANCH  17  18
HETATM   18  C   UNL     1       8.335  22.397  53.740  1.00  0.00     0.202 C 
BRANCH  18  19
HETATM   19  C   UNL     1       7.977  21.011  54.185  1.00  0.00    -0.011 C 
HETATM   20  C   UNL     1       7.899  20.622  55.465  1.00  0.00     0.009 C 
ENDBRANCH  18  19
ENDBRANCH  17  18
ENDBRANCH  14  17
ENDBRANCH   1  11
BRANCH   2  21
HETATM   21  C   UNL     1       6.619  28.794  55.661  1.00  0.00     0.167 C 
BRANCH  21  22
HETATM   22  C   UNL     1       6.916  27.489  56.350  1.00  0.00    -0.023 A 
HETATM   23  C   UNL     1       8.191  27.199  56.822  1.00  0.00     0.125 A 
HETATM   24  N   UNL     1       8.513  26.068  57.491  1.00  0.00    -0.273 NA
HETATM   25  C   UNL     1       7.519  25.177  57.694  1.00  0.00     0.116 A 
HETATM   26  C   UNL     1       6.218  25.364  57.261  1.00  0.00     0.020 A 
HETATM   27  C   UNL     1       5.916  26.538  56.577  1.00  0.00     0.012 A 
ENDBRANCH  21  22
ENDBRANCH   2  21
BRANCH  10  28
HETATM   28  C   UNL     1       4.671  28.103  49.985  1.00  0.00     0.028 A 
HETATM   29  C   UNL     1       4.601  26.772  49.550  1.00  0.00     0.078 A 
HETATM   30  C   UNL     1       5.033  26.409  48.275  1.00  0.00     0.037 A 
HETATM   31  C   UNL     1       5.579  27.373  47.427  1.00  0.00     0.003 A 
HETATM   32  C   UNL     1       5.690  28.694  47.856  1.00  0.00     0.001 A 
HETATM   33  C   UNL     1       5.237  29.058  49.127  1.00  0.00     0.017 A 
BRANCH  29  34
HETATM   34  O   UNL     1       4.138  25.755  50.342  1.00  0.00    -0.360 OA
HETATM   35  H   UNL     1       3.284  25.471  49.967  1.00  0.00     0.217 HD
ENDBRANCH  29  34
ENDBRANCH  10  28
TORSDOF 8
ENDMDL
MODEL 6
REMARK VINA RESULT:      -8.0      9.577     13.666
REMARK  8 active torsions:
REMARK  status: ('A' for Active; 'I' for Inactive)
REMARK    1  A    between atoms: C_2  and  C_3 
REMARK    2  A    between atoms: C_3  and  O_4 
REMARK    3  A    between atoms: O_4  and  C_5 
REMARK    4  A    between atoms: C_8  and  C_9 
REMARK    5  A    between atoms: N_10  and  C_11 
REMARK    6  A    between atoms: C_11  and  C_12 
REMARK    7  A    between atoms: C_25  and  C_26 
REMARK    8  A    between atoms: C_27  and  O_28 
ROOT
HETATM    1  C   UNL     1       4.963  35.052  62.132  1.00  0.00     0.159 A 
HETATM    2  N   UNL     1       3.626  35.703  62.046  1.00  0.00    -0.329 N 
HETATM    3  C   UNL     1       2.704  35.000  61.260  1.00  0.00     0.273 A 
HETATM    4  O   UNL     1       1.573  35.322  60.943  1.00  0.00    -0.266 OA
HETATM    5  C   UNL     1       3.415  33.839  60.873  1.00  0.00     0.129 A 
HETATM    6  C   UNL     1       4.695  33.831  61.341  1.00  0.00     0.034 A 
HETATM    7  N   UNL     1       3.227  32.712  60.171  1.00  0.00    -0.272 N 
HETATM    8  H   UNL     1       2.396  32.387  59.686  1.00  0.00     0.189 HD
HETATM    9  N   UNL     1       4.348  31.945  60.153  1.00  0.00    -0.173 NA
HETATM   10  C   UNL     1       5.260  32.632  60.881  1.00  0.00     0.101 A 
ENDROOT
BRANCH   1  11
HETATM   11  C   UNL     1       5.359  34.602  63.517  1.00  0.00    -0.030 A 
HETATM   12  C   UNL     1       6.685  34.641  63.980  1.00  0.00     0.012 A 
HETATM   13  C   UNL     1       6.985  34.320  65.306  1.00  0.00     0.037 A 
HETATM   14  C   UNL     1       5.972  33.965  66.195  1.00  0.00     0.069 A 
HETATM   15  C   UNL     1       4.661  33.859  65.735  1.00  0.00     0.037 A 
HETATM   16  C   UNL     1       4.357  34.180  64.408  1.00  0.00     0.012 A 
BRANCH  14  17
HETATM   17  O   UNL     1       6.372  33.738  67.484  1.00  0.00    -0.348 OA
BRANCH  17  18
HETATM   18  C   UNL     1       5.852  34.649  68.454  1.00  0.00     0.202 C 
BRANCH  18  19
HETATM   19  C   UNL     1       7.009  35.418  69.019  1.00  0.00    -0.011 C 
HETATM   20  C   UNL     1       8.092  34.859  69.576  1.00  0.00     0.009 C 
ENDBRANCH  18  19
ENDBRANCH  17  18
ENDBRANCH  14  17
ENDBRANCH   1  11
BRANCH   2  21
HETATM   21  C   UNL     1       3.425  37.082  62.436  1.00  0.00     0.167 C 
BRANCH  21  22
HETATM   22  C   UNL     1       4.690  37.887  62.307  1.00  0.00    -0.023 A 
HETATM   23  C   UNL     1       5.130  38.343  61.069  1.00  0.00     0.125 A 
HETATM   24  N   UNL     1       6.229  39.109  60.890  1.00  0.00    -0.273 NA
HETATM   25  C   UNL     1       6.931  39.435  61.996  1.00  0.00     0.116 A 
HETATM   26  C   UNL     1       6.585  39.030  63.274  1.00  0.00     0.020 A 
HETATM   27  C   UNL     1       5.448  38.243  63.427  1.00  0.00     0.012 A 
ENDBRANCH  21  22
ENDBRANCH   2  21
BRANCH  10  28
HETATM   28  C   UNL     1       6.601  32.114  61.124  1.00  0.00     0.028 A 
HETATM   29  C   UNL     1       7.590  32.090  60.130  1.00  0.00     0.078 A 
HETATM   30  C   UNL     1       8.893  31.690  60.423  1.00  0.00     0.037 A 
HETATM   31  C   UNL     1       9.217  31.269  61.712  1.00  0.00     0.003 A 
HETATM   32  C   UNL     1       8.237  31.251  62.704  1.00  0.00     0.001 A 
HETATM   33  C   UNL     1       6.938  31.673  62.413  1.00  0.00     0.017 A 
BRANCH  29  34
HETATM   34  O   UNL     1       7.340  32.427  58.826  1.00  0.00    -0.360 OA
HETATM   35  H   UNL     1       8.037  33.055  58.559  1.00  0.00     0.217 HD
ENDBRANCH  29  34
ENDBRANCH  10  28
TORSDOF 8
ENDMDL
MODEL 7
REMARK VINA RESULT:      -8.0      1.818      6.375
REMARK  8 active torsions:
REMARK  status: ('A' for Active; 'I' for Inactive)
REMARK    1  A    between atoms: C_2  and  C_3 
REMARK    2  A    between atoms: C_3  and  O_4 
REMARK    3  A    between atoms: O_4  and  C_5 
REMARK    4  A    between atoms: C_8  and  C_9 
REMARK    5  A    between atoms: N_10  and  C_11 
REMARK    6  A    between atoms: C_11  and  C_12 
REMARK    7  A    between atoms: C_25  and  C_26 
REMARK    8  A    between atoms: C_27  and  O_28 
ROOT
HETATM    1  C   UNL     1       6.571  26.923  54.206  1.00  0.00     0.159 A 
HETATM    2  N   UNL     1       7.049  25.846  55.116  1.00  0.00    -0.329 N 
HETATM    3  C   UNL     1       6.360  25.786  56.334  1.00  0.00     0.273 A 
HETATM    4  O   UNL     1       6.579  25.073  57.296  1.00  0.00    -0.266 OA
HETATM    5  C   UNL     1       5.372  26.790  56.205  1.00  0.00     0.129 A 
HETATM    6  C   UNL     1       5.457  27.458  55.021  1.00  0.00     0.034 A 
HETATM    7  N   UNL     1       4.348  27.310  56.897  1.00  0.00    -0.272 N 
HETATM    8  H   UNL     1       3.995  27.055  57.814  1.00  0.00     0.189 HD
HETATM    9  N   UNL     1       3.742  28.313  56.209  1.00  0.00    -0.173 NA
HETATM   10  C   UNL     1       4.424  28.406  55.043  1.00  0.00     0.101 A 
ENDROOT
BRANCH   1  11
HETATM   11  C   UNL     1       5.972  26.435  52.909  1.00  0.00    -0.030 A 
HETATM   12  C   UNL     1       5.204  25.262  52.818  1.00  0.00     0.012 A 
HETATM   13  C   UNL     1       4.578  24.912  51.619  1.00  0.00     0.037 A 
HETATM   14  C   UNL     1       4.697  25.727  50.495  1.00  0.00     0.069 A 
HETATM   15  C   UNL     1       5.509  26.858  50.550  1.00  0.00     0.037 A 
HETATM   16  C   UNL     1       6.136  27.212  51.749  1.00  0.00     0.012 A 
BRANCH  14  17
HETATM   17  O   UNL     1       3.988  25.322  49.397  1.00  0.00    -0.348 OA
BRANCH  17  18
HETATM   18  C   UNL     1       3.981  26.242  48.302  1.00  0.00     0.202 C 
BRANCH  18  19
HETATM   19  C   UNL     1       2.570  26.711  48.113  1.00  0.00    -0.011 C 
HETATM   20  C   UNL     1       2.027  27.758  48.750  1.00  0.00     0.009 C 
ENDBRANCH  18  19
ENDBRANCH  17  18
ENDBRANCH  14  17
ENDBRANCH   1  11
BRANCH   2  21
HETATM   21  C   UNL     1       8.317  25.180  54.905  1.00  0.00     0.167 C 
BRANCH  21  22
HETATM   22  C   UNL     1       8.133  23.732  54.540  1.00  0.00    -0.023 A 
HETATM   23  C   UNL     1       8.009  22.753  55.520  1.00  0.00     0.125 A 
HETATM   24  N   UNL     1       7.794  21.443  55.260  1.00  0.00    -0.273 NA
HETATM   25  C   UNL     1       7.703  21.086  53.962  1.00  0.00     0.116 A 
HETATM   26  C   UNL     1       7.817  21.979  52.909  1.00  0.00     0.020 A 
HETATM   27  C   UNL     1       8.037  23.320  53.207  1.00  0.00     0.012 A 
ENDBRANCH  21  22
ENDBRANCH   2  21
BRANCH  10  28
HETATM   28  C   UNL     1       4.052  29.362  54.006  1.00  0.00     0.028 A 
HETATM   29  C   UNL     1       4.416  30.714  54.064  1.00  0.00     0.078 A 
HETATM   30  C   UNL     1       4.139  31.579  53.006  1.00  0.00     0.037 A 
HETATM   31  C   UNL     1       3.455  31.107  51.885  1.00  0.00     0.003 A 
HETATM   32  C   UNL     1       3.052  29.774  51.827  1.00  0.00     0.001 A 
HETATM   33  C   UNL     1       3.351  28.905  52.879  1.00  0.00     0.017 A 
BRANCH  29  34
HETATM   34  O   UNL     1       5.033  31.272  55.153  1.00  0.00    -0.360 OA
HETATM   35  H   UNL     1       4.771  30.741  55.927  1.00  0.00     0.217 HD
ENDBRANCH  29  34
ENDBRANCH  10  28
TORSDOF 8
ENDMDL
MODEL 8
REMARK VINA RESULT:      -7.5     10.129     13.441
REMARK  8 active torsions:
REMARK  status: ('A' for Active; 'I' for Inactive)
REMARK    1  A    between atoms: C_2  and  C_3 
REMARK    2  A    between atoms: C_3  and  O_4 
REMARK    3  A    between atoms: O_4  and  C_5 
REMARK    4  A    between atoms: C_8  and  C_9 
REMARK    5  A    between atoms: N_10  and  C_11 
REMARK    6  A    between atoms: C_11  and  C_12 
REMARK    7  A    between atoms: C_25  and  C_26 
REMARK    8  A    between atoms: C_27  and  O_28 
ROOT
HETATM    1  C   UNL     1       4.137  35.554  60.963  1.00  0.00     0.159 A 
HETATM    2  N   UNL     1       2.861  35.980  60.324  1.00  0.00    -0.329 N 
HETATM    3  C   UNL     1       2.070  34.914  59.875  1.00  0.00     0.273 A 
HETATM    4  O   UNL     1       1.026  34.954  59.249  1.00  0.00    -0.266 OA
HETATM    5  C   UNL     1       2.796  33.769  60.278  1.00  0.00     0.129 A 
HETATM    6  C   UNL     1       3.971  34.085  60.892  1.00  0.00     0.034 A 
HETATM    7  N   UNL     1       2.696  32.433  60.246  1.00  0.00    -0.272 N 
HETATM    8  H   UNL     1       1.954  31.851  59.869  1.00  0.00     0.189 HD
HETATM    9  N   UNL     1       3.774  31.839  60.823  1.00  0.00    -0.173 NA
HETATM   10  C   UNL     1       4.566  32.860  61.229  1.00  0.00     0.101 A 
ENDROOT
BRANCH   1  11
HETATM   11  C   UNL     1       4.264  35.913  62.423  1.00  0.00    -0.030 A 
HETATM   12  C   UNL     1       3.347  35.480  63.396  1.00  0.00     0.012 A 
HETATM   13  C   UNL     1       3.568  35.744  64.750  1.00  0.00     0.037 A 
HETATM   14  C   UNL     1       4.708  36.434  65.159  1.00  0.00     0.069 A 
HETATM   15  C   UNL     1       5.593  36.927  64.202  1.00  0.00     0.037 A 
HETATM   16  C   UNL     1       5.375  36.663  62.846  1.00  0.00     0.012 A 
BRANCH  14  17
HETATM   17  O   UNL     1       4.856  36.577  66.512  1.00  0.00    -0.348 OA
BRANCH  17  18
HETATM   18  C   UNL     1       4.609  35.397  67.280  1.00  0.00     0.202 C 
BRANCH  18  19
HETATM   19  C   UNL     1       5.850  34.558  67.233  1.00  0.00    -0.011 C 
HETATM   20  C   UNL     1       6.742  34.466  68.229  1.00  0.00     0.009 C 
ENDBRANCH  18  19
ENDBRANCH  17  18
ENDBRANCH  14  17
ENDBRANCH   1  11
BRANCH   2  21
HETATM   21  C   UNL     1       2.644  37.345  59.897  1.00  0.00     0.167 C 
BRANCH  21  22
HETATM   22  C   UNL     1       3.799  37.866  59.085  1.00  0.00    -0.023 A 
HETATM   23  C   UNL     1       4.661  38.831  59.595  1.00  0.00     0.125 A 
HETATM   24  N   UNL     1       5.743  39.305  58.937  1.00  0.00    -0.273 NA
HETATM   25  C   UNL     1       5.978  38.800  57.707  1.00  0.00     0.116 A 
HETATM   26  C   UNL     1       5.180  37.843  57.103  1.00  0.00     0.020 A 
HETATM   27  C   UNL     1       4.074  37.372  57.805  1.00  0.00     0.012 A 
ENDBRANCH  21  22
ENDBRANCH   2  21
BRANCH  10  28
HETATM   28  C   UNL     1       5.823  32.629  61.931  1.00  0.00     0.028 A 
HETATM   29  C   UNL     1       6.927  32.022  61.316  1.00  0.00     0.078 A 
HETATM   30  C   UNL     1       8.148  31.914  61.980  1.00  0.00     0.037 A 
HETATM   31  C   UNL     1       8.271  32.379  63.290  1.00  0.00     0.003 A 
HETATM   32  C   UNL     1       7.172  32.951  63.929  1.00  0.00     0.001 A 
HETATM   33  C   UNL     1       5.956  33.077  63.254  1.00  0.00     0.017 A 
BRANCH  29  34
HETATM   34  O   UNL     1       6.874  31.484  60.058  1.00  0.00    -0.360 OA
HETATM   35  H   UNL     1       5.943  31.527  59.772  1.00  0.00     0.217 HD
ENDBRANCH  29  34
ENDBRANCH  10  28
TORSDOF 8
ENDMDL
MODEL 9
REMARK VINA RESULT:      -7.3      3.278      7.685
REMARK  8 active torsions:
REMARK  status: ('A' for Active; 'I' for Inactive)
REMARK    1  A    between atoms: C_2  and  C_3 
REMARK    2  A    between atoms: C_3  and  O_4 
REMARK    3  A    between atoms: O_4  and  C_5 
REMARK    4  A    between atoms: C_8  and  C_9 
REMARK    5  A    between atoms: N_10  and  C_11 
REMARK    6  A    between atoms: C_11  and  C_12 
REMARK    7  A    between atoms: C_25  and  C_26 
REMARK    8  A    between atoms: C_27  and  O_28 
ROOT
HETATM    1  C   UNL     1       4.474  26.892  50.997  1.00  0.00     0.159 A 
HETATM    2  N   UNL     1       4.622  26.889  49.515  1.00  0.00    -0.329 N 
HETATM    3  C   UNL     1       5.114  28.092  48.993  1.00  0.00     0.273 A 
HETATM    4  O   UNL     1       5.261  28.410  47.827  1.00  0.00    -0.266 OA
HETATM    5  C   UNL     1       5.356  28.878  50.144  1.00  0.00     0.129 A 
HETATM    6  C   UNL     1       5.005  28.240  51.296  1.00  0.00     0.034 A 
HETATM    7  N   UNL     1       5.833  30.087  50.473  1.00  0.00    -0.272 N 
HETATM    8  H   UNL     1       6.188  30.825  49.872  1.00  0.00     0.189 HD
HETATM    9  N   UNL     1       5.812  30.281  51.818  1.00  0.00    -0.173 NA
HETATM   10  C   UNL     1       5.303  29.137  52.333  1.00  0.00     0.101 A 
ENDROOT
BRANCH   1  11
HETATM   11  C   UNL     1       5.352  25.901  51.722  1.00  0.00    -0.030 A 
HETATM   12  C   UNL     1       6.683  25.649  51.350  1.00  0.00     0.012 A 
HETATM   13  C   UNL     1       7.490  24.808  52.120  1.00  0.00     0.037 A 
HETATM   14  C   UNL     1       6.991  24.214  53.278  1.00  0.00     0.069 A 
HETATM   15  C   UNL     1       5.654  24.402  53.624  1.00  0.00     0.037 A 
HETATM   16  C   UNL     1       4.844  25.243  52.856  1.00  0.00     0.012 A 
BRANCH  14  17
HETATM   17  O   UNL     1       7.888  23.465  53.990  1.00  0.00    -0.348 OA
BRANCH  17  18
HETATM   18  C   UNL     1       8.340  22.274  53.340  1.00  0.00     0.202 C 
BRANCH  18  19
HETATM   19  C   UNL     1       8.091  21.127  54.273  1.00  0.00    -0.011 C 
HETATM   20  C   UNL     1       7.738  21.258  55.560  1.00  0.00     0.009 C 
ENDBRANCH  18  19
ENDBRANCH  17  18
ENDBRANCH  14  17
ENDBRANCH   1  11
BRANCH   2  21
HETATM   21  C   UNL     1       3.987  25.883  48.690  1.00  0.00     0.167 C 
BRANCH  21  22
HETATM   22  C   UNL     1       2.763  26.420  47.999  1.00  0.00    -0.023 A 
HETATM   23  C   UNL     1       2.351  25.917  46.769  1.00  0.00     0.125 A 
HETATM   24  N   UNL     1       1.237  26.322  46.120  1.00  0.00    -0.273 NA
HETATM   25  C   UNL     1       0.496  27.279  46.718  1.00  0.00     0.116 A 
HETATM   26  C   UNL     1       0.818  27.852  47.937  1.00  0.00     0.020 A 
HETATM   27  C   UNL     1       1.971  27.414  48.583  1.00  0.00     0.012 A 
ENDBRANCH  21  22
ENDBRANCH   2  21
BRANCH  10  28
HETATM   28  C   UNL     1       5.148  28.940  53.769  1.00  0.00     0.028 A 
HETATM   29  C   UNL     1       4.046  29.433  54.482  1.00  0.00     0.078 A 
HETATM   30  C   UNL     1       3.873  29.135  55.833  1.00  0.00     0.037 A 
HETATM   31  C   UNL     1       4.826  28.367  56.502  1.00  0.00     0.003 A 
HETATM   32  C   UNL     1       5.946  27.899  55.819  1.00  0.00     0.001 A 
HETATM   33  C   UNL     1       6.106  28.181  54.460  1.00  0.00     0.017 A 
BRANCH  29  34
HETATM   34  O   UNL     1       3.099  30.245  53.916  1.00  0.00    -0.360 OA
HETATM   35  H   UNL     1       2.796  29.802  53.103  1.00  0.00     0.217 HD
ENDBRANCH  29  34
ENDBRANCH  10  28
TORSDOF 8
ENDMDL
MODEL 10
REMARK VINA RESULT:      -7.3      9.191     12.290
REMARK  8 active torsions:
REMARK  status: ('A' for Active; 'I' for Inactive)
REMARK    1  A    between atoms: C_2  and  C_3 
REMARK    2  A    between atoms: C_3  and  O_4 
REMARK    3  A    between atoms: O_4  and  C_5 
REMARK    4  A    between atoms: C_8  and  C_9 
REMARK    5  A    between atoms: N_10  and  C_11 
REMARK    6  A    between atoms: C_11  and  C_12 
REMARK    7  A    between atoms: C_25  and  C_26 
REMARK    8  A    between atoms: C_27  and  O_28 
ROOT
HETATM    1  C   UNL     1       4.889  34.711  60.231  1.00  0.00     0.159 A 
HETATM    2  N   UNL     1       3.621  35.099  59.552  1.00  0.00    -0.329 N 
HETATM    3  C   UNL     1       3.194  34.182  58.584  1.00  0.00     0.273 A 
HETATM    4  O   UNL     1       2.250  34.270  57.819  1.00  0.00    -0.266 OA
HETATM    5  C   UNL     1       4.150  33.143  58.666  1.00  0.00     0.129 A 
HETATM    6  C   UNL     1       5.126  33.403  59.580  1.00  0.00     0.034 A 
HETATM    7  N   UNL     1       4.412  31.950  58.113  1.00  0.00    -0.272 N 
HETATM    8  H   UNL     1       3.896  31.443  57.401  1.00  0.00     0.189 HD
HETATM    9  N   UNL     1       5.541  31.399  58.632  1.00  0.00    -0.173 NA
HETATM   10  C   UNL     1       5.985  32.294  59.545  1.00  0.00     0.101 A 
ENDROOT
BRANCH   1  11
HETATM   11  C   UNL     1       4.758  34.448  61.712  1.00  0.00    -0.030 A 
HETATM   12  C   UNL     1       3.580  33.952  62.296  1.00  0.00     0.012 A 
HETATM   13  C   UNL     1       3.545  33.620  63.652  1.00  0.00     0.037 A 
HETATM   14  C   UNL     1       4.681  33.765  64.447  1.00  0.00     0.069 A 
HETATM   15  C   UNL     1       5.836  34.317  63.897  1.00  0.00     0.037 A 
HETATM   16  C   UNL     1       5.875  34.650  62.540  1.00  0.00     0.012 A 
BRANCH  14  17
HETATM   17  O   UNL     1       4.550  33.345  65.743  1.00  0.00    -0.348 OA
BRANCH  17  18
HETATM   18  C   UNL     1       5.151  34.195  66.722  1.00  0.00     0.202 C 
BRANCH  18  19
HETATM   19  C   UNL     1       4.246  35.375  66.915  1.00  0.00    -0.011 C 
HETATM   20  C   UNL     1       4.508  36.612  66.468  1.00  0.00     0.009 C 
ENDBRANCH  18  19
ENDBRANCH  17  18
ENDBRANCH  14  17
ENDBRANCH   1  11
BRANCH   2  21
HETATM   21  C   UNL     1       3.097  36.446  59.636  1.00  0.00     0.167 C 
BRANCH  21  22
HETATM   22  C   UNL     1       4.117  37.469  59.216  1.00  0.00    -0.023 A 
HETATM   23  C   UNL     1       4.686  38.339  60.139  1.00  0.00     0.125 A 
HETATM   24  N   UNL     1       5.641  39.247  59.836  1.00  0.00    -0.273 NA
HETATM   25  C   UNL     1       6.047  39.299  58.550  1.00  0.00     0.116 A 
HETATM   26  C   UNL     1       5.543  38.484  57.551  1.00  0.00     0.020 A 
HETATM   27  C   UNL     1       4.562  37.557  57.893  1.00  0.00     0.012 A 
ENDBRANCH  21  22
ENDBRANCH   2  21
BRANCH  10  28
HETATM   28  C   UNL     1       7.176  32.048  60.351  1.00  0.00     0.028 A 
HETATM   29  C   UNL     1       7.115  31.458  61.621  1.00  0.00     0.078 A 
HETATM   30  C   UNL     1       8.279  31.137  62.319  1.00  0.00     0.037 A 
HETATM   31  C   UNL     1       9.524  31.439  61.769  1.00  0.00     0.003 A 
HETATM   32  C   UNL     1       9.602  32.059  60.523  1.00  0.00     0.001 A 
HETATM   33  C   UNL     1       8.435  32.360  59.817  1.00  0.00     0.017 A 
BRANCH  29  34
HETATM   34  O   UNL     1       5.934  31.187  62.259  1.00  0.00    -0.360 OA
HETATM   35  H   UNL     1       6.096  31.303  63.213  1.00  0.00     0.217 HD
ENDBRANCH  29  34
ENDBRANCH  10  28
TORSDOF 8
ENDMDL
