MODEL 1
REMARK VINA RESULT:      -8.2      0.000      0.000
REMARK  4 active torsions:
REMARK  status: ('A' for Active; 'I' for Inactive)
REMARK    1  A    between atoms: C_2  and  N_3 
REMARK    2  A    between atoms: C_2  and  C_13 
REMARK       I    between atoms: N_3  and  C_4 
REMARK    3  A    between atoms: C_4  and  C_5 
REMARK    4  A    between atoms: C_6  and  C_7 
ROOT
HETATM    1  C   UNL     1       4.853  25.358  53.221  1.00  0.00     0.040 C 
HETATM    2  C   UNL     1       6.323  25.443  53.617  1.00  0.00     0.150 C 
ENDROOT
BRANCH   2   3
HETATM    3  N   UNL     1       6.494  26.337  54.750  1.00  0.00    -0.346 N 
HETATM    4  C   UNL     1       7.326  27.424  54.677  1.00  0.00     0.241 C 
HETATM    5  O   UNL     1       7.930  27.751  53.661  1.00  0.00    -0.269 OA
HETATM    6  H   UNL     1       6.226  25.975  55.657  1.00  0.00     0.163 HD
BRANCH   4   7
HETATM    7  C   UNL     1       7.449  28.151  55.963  1.00  0.00     0.075 C 
HETATM    8  C   UNL     1       8.551  28.877  56.218  1.00  0.00     0.017 C 
BRANCH   8   9
HETATM    9  C   UNL     1       8.796  29.646  57.402  1.00  0.00    -0.029 A 
HETATM   10  C   UNL     1       7.938  29.603  58.483  1.00  0.00     0.061 A 
HETATM   11  S   UNL     1       8.454  30.602  59.773  1.00  0.00    -0.113 SA
HETATM   12  C   UNL     1       9.836  31.101  58.901  1.00  0.00     0.050 A 
HETATM   13  C   UNL     1       9.900  30.520  57.652  1.00  0.00     0.019 A 
ENDBRANCH   8   9
ENDBRANCH   4   7
ENDBRANCH   2   3
BRANCH   2  14
HETATM   14  C   UNL     1       6.883  24.105  53.992  1.00  0.00     0.127 A 
HETATM   15  N   UNL     1       7.039  23.596  55.199  1.00  0.00    -0.231 NA
HETATM   16  C   UNL     1       7.594  22.354  55.006  1.00  0.00     0.085 A 
HETATM   17  C   UNL     1       7.796  22.102  53.653  1.00  0.00     0.062 A 
HETATM   18  C   UNL     1       7.960  21.379  55.945  1.00  0.00     0.034 A 
HETATM   19  N   UNL     1       7.347  23.236  53.030  1.00  0.00    -0.341 N 
HETATM   20  C   UNL     1       8.352  20.918  53.168  1.00  0.00     0.032 A 
HETATM   21  H   UNL     1       7.382  23.438  52.038  1.00  0.00     0.167 HD
HETATM   22  C   UNL     1       8.708  19.955  54.121  1.00  0.00     0.002 A 
HETATM   23  C   UNL     1       8.517  20.179  55.487  1.00  0.00     0.002 A 
ENDBRANCH   2  14
TORSDOF 4
ENDMDL
MODEL 2
REMARK VINA RESULT:      -8.1      2.963      7.565
REMARK  4 active torsions:
REMARK  status: ('A' for Active; 'I' for Inactive)
REMARK    1  A    between atoms: C_2  and  N_3 
REMARK    2  A    between atoms: C_2  and  C_13 
REMARK       I    between atoms: N_3  and  C_4 
REMARK    3  A    between atoms: C_4  and  C_5 
REMARK    4  A    between atoms: C_6  and  C_7 
ROOT
HETATM    1  C   UNL     1       6.050  28.609  52.712  1.00  0.00     0.040 C 
HETATM    2  C   UNL     1       6.118  27.783  53.992  1.00  0.00     0.150 C 
ENDROOT
BRANCH   2   3
HETATM    3  N   UNL     1       6.582  26.436  53.705  1.00  0.00    -0.346 N 
HETATM    4  C   UNL     1       5.716  25.466  53.268  1.00  0.00     0.241 C 
HETATM    5  O   UNL     1       4.529  25.668  53.038  1.00  0.00    -0.269 OA
HETATM    6  H   UNL     1       7.468  26.166  54.112  1.00  0.00     0.163 HD
BRANCH   4   7
HETATM    7  C   UNL     1       6.354  24.135  53.132  1.00  0.00     0.075 C 
HETATM    8  C   UNL     1       7.035  23.612  54.165  1.00  0.00     0.017 C 
BRANCH   8   9
HETATM    9  C   UNL     1       7.681  22.333  54.186  1.00  0.00    -0.029 A 
HETATM   10  C   UNL     1       8.011  21.708  55.373  1.00  0.00     0.061 A 
HETATM   11  S   UNL     1       8.765  20.190  55.130  1.00  0.00    -0.113 SA
HETATM   12  C   UNL     1       8.654  20.350  53.433  1.00  0.00     0.050 A 
HETATM   13  C   UNL     1       8.058  21.536  53.060  1.00  0.00     0.019 A 
ENDBRANCH   8   9
ENDBRANCH   4   7
ENDBRANCH   2   3
BRANCH   2  14
HETATM   14  C   UNL     1       7.044  28.389  55.003  1.00  0.00     0.127 A 
HETATM   15  N   UNL     1       6.789  28.694  56.261  1.00  0.00    -0.231 NA
HETATM   16  C   UNL     1       7.957  29.224  56.755  1.00  0.00     0.085 A 
HETATM   17  C   UNL     1       8.943  29.258  55.775  1.00  0.00     0.062 A 
HETATM   18  C   UNL     1       8.250  29.705  58.039  1.00  0.00     0.034 A 
HETATM   19  N   UNL     1       8.334  28.733  54.667  1.00  0.00    -0.341 N 
HETATM   20  C   UNL     1      10.229  29.753  55.998  1.00  0.00     0.032 A 
HETATM   21  H   UNL     1       8.732  28.644  53.739  1.00  0.00     0.167 HD
HETATM   22  C   UNL     1      10.504  30.227  57.286  1.00  0.00     0.002 A 
HETATM   23  C   UNL     1       9.534  30.205  58.292  1.00  0.00     0.002 A 
ENDBRANCH   2  14
TORSDOF 4
ENDMDL
MODEL 3
REMARK VINA RESULT:      -7.9      4.470      7.983
REMARK  4 active torsions:
REMARK  status: ('A' for Active; 'I' for Inactive)
REMARK    1  A    between atoms: C_2  and  N_3 
REMARK    2  A    between atoms: C_2  and  C_13 
REMARK       I    between atoms: N_3  and  C_4 
REMARK    3  A    between atoms: C_4  and  C_5 
REMARK    4  A    between atoms: C_6  and  C_7 
ROOT
HETATM    1  C   UNL     1       4.490  27.823  53.229  1.00  0.00     0.040 C 
HETATM    2  C   UNL     1       5.406  27.407  52.082  1.00  0.00     0.150 C 
ENDROOT
BRANCH   2   3
HETATM    3  N   UNL     1       6.114  26.182  52.416  1.00  0.00    -0.346 N 
HETATM    4  C   UNL     1       7.296  26.214  53.110  1.00  0.00     0.241 C 
HETATM    5  O   UNL     1       7.804  27.242  53.543  1.00  0.00    -0.269 OA
HETATM    6  H   UNL     1       5.875  25.360  51.877  1.00  0.00     0.163 HD
BRANCH   4   7
HETATM    7  C   UNL     1       7.918  24.876  53.261  1.00  0.00     0.075 C 
HETATM    8  C   UNL     1       7.221  23.876  53.825  1.00  0.00     0.017 C 
BRANCH   8   9
HETATM    9  C   UNL     1       7.682  22.532  54.015  1.00  0.00    -0.029 A 
HETATM   10  C   UNL     1       7.948  22.030  55.274  1.00  0.00     0.061 A 
HETATM   11  S   UNL     1       8.477  20.402  55.234  1.00  0.00    -0.113 SA
HETATM   12  C   UNL     1       8.353  20.349  53.531  1.00  0.00     0.050 A 
HETATM   13  C   UNL     1       7.920  21.548  53.005  1.00  0.00     0.019 A 
ENDBRANCH   8   9
ENDBRANCH   4   7
ENDBRANCH   2   3
BRANCH   2  14
HETATM   14  C   UNL     1       4.646  27.175  50.812  1.00  0.00     0.127 A 
HETATM   15  N   UNL     1       4.855  26.248  49.896  1.00  0.00    -0.231 NA
HETATM   16  C   UNL     1       3.899  26.462  48.933  1.00  0.00     0.085 A 
HETATM   17  C   UNL     1       3.098  27.551  49.257  1.00  0.00     0.062 A 
HETATM   18  C   UNL     1       3.655  25.764  47.741  1.00  0.00     0.034 A 
HETATM   19  N   UNL     1       3.600  27.994  50.451  1.00  0.00    -0.341 N 
HETATM   20  C   UNL     1       2.049  27.998  48.452  1.00  0.00     0.032 A 
HETATM   21  H   UNL     1       3.298  28.808  50.973  1.00  0.00     0.167 HD
HETATM   22  C   UNL     1       1.818  27.287  47.268  1.00  0.00     0.002 A 
HETATM   23  C   UNL     1       2.607  26.188  46.915  1.00  0.00     0.002 A 
ENDBRANCH   2  14
TORSDOF 4
ENDMDL
MODEL 4
REMARK VINA RESULT:      -7.9      5.053      7.798
REMARK  4 active torsions:
REMARK  status: ('A' for Active; 'I' for Inactive)
REMARK    1  A    between atoms: C_2  and  N_3 
REMARK    2  A    between atoms: C_2  and  C_13 
REMARK       I    between atoms: N_3  and  C_4 
REMARK    3  A    between atoms: C_4  and  C_5 
REMARK    4  A    between atoms: C_6  and  C_7 
ROOT
HETATM    1  C   UNL     1       9.744  31.389  58.523  1.00  0.00     0.040 C 
HETATM    2  C   UNL     1       9.025  30.296  59.306  1.00  0.00     0.150 C 
ENDROOT
BRANCH   2   3
HETATM    3  N   UNL     1       8.175  30.879  60.330  1.00  0.00    -0.346 N 
HETATM    4  C   UNL     1       8.559  30.894  61.647  1.00  0.00     0.241 C 
HETATM    5  O   UNL     1       9.643  30.482  62.044  1.00  0.00    -0.269 OA
HETATM    6  H   UNL     1       7.197  30.993  60.095  1.00  0.00     0.163 HD
BRANCH   4   7
HETATM    7  C   UNL     1       7.515  31.434  62.551  1.00  0.00     0.075 C 
HETATM    8  C   UNL     1       7.813  32.441  63.388  1.00  0.00     0.017 C 
BRANCH   8   9
HETATM    9  C   UNL     1       6.904  33.075  64.298  1.00  0.00    -0.029 A 
HETATM   10  C   UNL     1       5.537  33.011  64.116  1.00  0.00     0.061 A 
HETATM   11  S   UNL     1       4.671  33.840  65.339  1.00  0.00    -0.113 SA
HETATM   12  C   UNL     1       6.117  34.290  66.129  1.00  0.00     0.050 A 
HETATM   13  C   UNL     1       7.235  33.820  65.473  1.00  0.00     0.019 A 
ENDBRANCH   8   9
ENDBRANCH   4   7
ENDBRANCH   2   3
BRANCH   2  14
HETATM   14  C   UNL     1       8.170  29.440  58.422  1.00  0.00     0.127 A 
HETATM   15  N   UNL     1       8.511  28.342  57.775  1.00  0.00    -0.231 NA
HETATM   16  C   UNL     1       7.378  27.944  57.106  1.00  0.00     0.085 A 
HETATM   17  C   UNL     1       6.327  28.824  57.335  1.00  0.00     0.062 A 
HETATM   18  C   UNL     1       7.173  26.834  56.273  1.00  0.00     0.034 A 
HETATM   19  N   UNL     1       6.859  29.774  58.166  1.00  0.00    -0.341 N 
HETATM   20  C   UNL     1       5.058  28.666  56.775  1.00  0.00     0.032 A 
HETATM   21  H   UNL     1       6.398  30.609  58.509  1.00  0.00     0.167 HD
HETATM   22  C   UNL     1       4.871  27.552  55.949  1.00  0.00     0.002 A 
HETATM   23  C   UNL     1       5.908  26.649  55.699  1.00  0.00     0.002 A 
ENDBRANCH   2  14
TORSDOF 4
ENDMDL
MODEL 5
REMARK VINA RESULT:      -7.9      3.758      5.931
REMARK  4 active torsions:
REMARK  status: ('A' for Active; 'I' for Inactive)
REMARK    1  A    between atoms: C_2  and  N_3 
REMARK    2  A    between atoms: C_2  and  C_13 
REMARK       I    between atoms: N_3  and  C_4 
REMARK    3  A    between atoms: C_4  and  C_5 
REMARK    4  A    between atoms: C_6  and  C_7 
ROOT
HETATM    1  C   UNL     1       7.512  26.903  55.773  1.00  0.00     0.040 C 
HETATM    2  C   UNL     1       6.417  26.026  55.173  1.00  0.00     0.150 C 
ENDROOT
BRANCH   2   3
HETATM    3  N   UNL     1       6.015  26.534  53.872  1.00  0.00    -0.346 N 
HETATM    4  C   UNL     1       4.980  27.425  53.748  1.00  0.00     0.241 C 
HETATM    5  O   UNL     1       4.367  27.893  54.701  1.00  0.00    -0.269 OA
HETATM    6  H   UNL     1       6.311  25.999  53.066  1.00  0.00     0.163 HD
BRANCH   4   7
HETATM    7  C   UNL     1       4.652  27.743  52.337  1.00  0.00     0.075 C 
HETATM    8  C   UNL     1       5.188  27.012  51.346  1.00  0.00     0.017 C 
BRANCH   8   9
HETATM    9  C   UNL     1       4.945  27.189  49.944  1.00  0.00    -0.029 A 
HETATM   10  C   UNL     1       5.389  28.309  49.270  1.00  0.00     0.061 A 
HETATM   11  S   UNL     1       4.981  28.280  47.607  1.00  0.00    -0.113 SA
HETATM   12  C   UNL     1       4.209  26.765  47.771  1.00  0.00     0.050 A 
HETATM   13  C   UNL     1       4.259  26.294  49.066  1.00  0.00     0.019 A 
ENDBRANCH   8   9
ENDBRANCH   4   7
ENDBRANCH   2   3
BRANCH   2  14
HETATM   14  C   UNL     1       6.865  24.607  55.000  1.00  0.00     0.127 A 
HETATM   15  N   UNL     1       7.075  23.700  55.936  1.00  0.00    -0.231 NA
HETATM   16  C   UNL     1       7.477  22.569  55.267  1.00  0.00     0.085 A 
HETATM   17  C   UNL     1       7.528  22.791  53.895  1.00  0.00     0.062 A 
HETATM   18  C   UNL     1       7.822  21.305  55.768  1.00  0.00     0.034 A 
HETATM   19  N   UNL     1       7.146  24.098  53.752  1.00  0.00    -0.341 N 
HETATM   20  C   UNL     1       7.910  21.816  52.973  1.00  0.00     0.032 A 
HETATM   21  H   UNL     1       7.112  24.631  52.891  1.00  0.00     0.167 HD
HETATM   22  C   UNL     1       8.248  20.560  53.492  1.00  0.00     0.002 A 
HETATM   23  C   UNL     1       8.206  20.305  54.866  1.00  0.00     0.002 A 
ENDBRANCH   2  14
TORSDOF 4
ENDMDL
MODEL 6
REMARK VINA RESULT:      -7.8      3.226      7.953
REMARK  4 active torsions:
REMARK  status: ('A' for Active; 'I' for Inactive)
REMARK    1  A    between atoms: C_2  and  N_3 
REMARK    2  A    between atoms: C_2  and  C_13 
REMARK       I    between atoms: N_3  and  C_4 
REMARK    3  A    between atoms: C_4  and  C_5 
REMARK    4  A    between atoms: C_6  and  C_7 
ROOT
HETATM    1  C   UNL     1       4.703  28.927  55.191  1.00  0.00     0.040 C 
HETATM    2  C   UNL     1       5.579  28.027  56.056  1.00  0.00     0.150 C 
ENDROOT
BRANCH   2   3
HETATM    3  N   UNL     1       5.932  26.816  55.334  1.00  0.00    -0.346 N 
HETATM    4  C   UNL     1       5.870  25.587  55.938  1.00  0.00     0.241 C 
HETATM    5  O   UNL     1       5.469  25.411  57.083  1.00  0.00    -0.269 OA
HETATM    6  H   UNL     1       6.494  26.933  54.501  1.00  0.00     0.163 HD
BRANCH   4   7
HETATM    7  C   UNL     1       6.369  24.488  55.076  1.00  0.00     0.075 C 
HETATM    8  C   UNL     1       7.136  23.520  55.605  1.00  0.00     0.017 C 
BRANCH   8   9
HETATM    9  C   UNL     1       7.668  22.390  54.902  1.00  0.00    -0.029 A 
HETATM   10  C   UNL     1       8.195  21.304  55.573  1.00  0.00     0.061 A 
HETATM   11  S   UNL     1       8.757  20.085  54.510  1.00  0.00    -0.113 SA
HETATM   12  C   UNL     1       8.297  20.995  53.140  1.00  0.00     0.050 A 
HETATM   13  C   UNL     1       7.730  22.204  53.486  1.00  0.00     0.019 A 
ENDBRANCH   8   9
ENDBRANCH   4   7
ENDBRANCH   2   3
BRANCH   2  14
HETATM   14  C   UNL     1       6.847  28.708  56.472  1.00  0.00     0.127 A 
HETATM   15  N   UNL     1       8.051  28.577  55.948  1.00  0.00    -0.231 NA
HETATM   16  C   UNL     1       8.864  29.404  56.685  1.00  0.00     0.085 A 
HETATM   17  C   UNL     1       8.147  30.042  57.691  1.00  0.00     0.062 A 
HETATM   18  C   UNL     1      10.237  29.659  56.556  1.00  0.00     0.034 A 
HETATM   19  N   UNL     1       6.869  29.574  57.542  1.00  0.00    -0.341 N 
HETATM   20  C   UNL     1       8.723  30.936  58.595  1.00  0.00     0.032 A 
HETATM   21  H   UNL     1       6.073  29.781  58.133  1.00  0.00     0.167 HD
HETATM   22  C   UNL     1      10.094  31.180  58.449  1.00  0.00     0.002 A 
HETATM   23  C   UNL     1      10.842  30.555  57.448  1.00  0.00     0.002 A 
ENDBRANCH   2  14
TORSDOF 4
ENDMDL
MODEL 7
REMARK VINA RESULT:      -7.5      6.130     11.166
REMARK  4 active torsions:
REMARK  status: ('A' for Active; 'I' for Inactive)
REMARK    1  A    between atoms: C_2  and  N_3 
REMARK    2  A    between atoms: C_2  and  C_13 
REMARK       I    between atoms: N_3  and  C_4 
REMARK    3  A    between atoms: C_4  and  C_5 
REMARK    4  A    between atoms: C_6  and  C_7 
ROOT
HETATM    1  C   UNL     1       9.381  30.187  62.246  1.00  0.00     0.040 C 
HETATM    2  C   UNL     1       8.612  31.356  61.638  1.00  0.00     0.150 C 
ENDROOT
BRANCH   2   3
HETATM    3  N   UNL     1       7.817  30.909  60.507  1.00  0.00    -0.346 N 
HETATM    4  C   UNL     1       7.934  31.504  59.278  1.00  0.00     0.241 C 
HETATM    5  O   UNL     1       8.737  32.397  59.028  1.00  0.00    -0.269 OA
HETATM    6  H   UNL     1       6.988  30.369  60.722  1.00  0.00     0.163 HD
BRANCH   4   7
HETATM    7  C   UNL     1       6.967  30.981  58.283  1.00  0.00     0.075 C 
HETATM    8  C   UNL     1       7.025  29.692  57.910  1.00  0.00     0.017 C 
BRANCH   8   9
HETATM    9  C   UNL     1       6.146  29.045  56.981  1.00  0.00    -0.029 A 
HETATM   10  C   UNL     1       5.552  29.739  55.945  1.00  0.00     0.061 A 
HETATM   11  S   UNL     1       4.555  28.743  54.972  1.00  0.00    -0.113 SA
HETATM   12  C   UNL     1       4.911  27.370  55.924  1.00  0.00     0.050 A 
HETATM   13  C   UNL     1       5.769  27.666  56.962  1.00  0.00     0.019 A 
ENDBRANCH   8   9
ENDBRANCH   4   7
ENDBRANCH   2   3
BRANCH   2  14
HETATM   14  C   UNL     1       7.692  32.000  62.629  1.00  0.00     0.127 A 
HETATM   15  N   UNL     1       6.376  32.085  62.583  1.00  0.00    -0.231 NA
HETATM   16  C   UNL     1       6.011  32.770  63.717  1.00  0.00     0.085 A 
HETATM   17  C   UNL     1       7.128  33.126  64.466  1.00  0.00     0.062 A 
HETATM   18  C   UNL     1       4.736  33.133  64.175  1.00  0.00     0.034 A 
HETATM   19  N   UNL     1       8.185  32.635  63.747  1.00  0.00    -0.341 N 
HETATM   20  C   UNL     1       7.052  33.835  65.665  1.00  0.00     0.032 A 
HETATM   21  H   UNL     1       9.169  32.747  63.960  1.00  0.00     0.167 HD
HETATM   22  C   UNL     1       5.771  34.185  66.108  1.00  0.00     0.002 A 
HETATM   23  C   UNL     1       4.630  33.842  65.378  1.00  0.00     0.002 A 
ENDBRANCH   2  14
TORSDOF 4
ENDMDL
MODEL 8
REMARK VINA RESULT:      -7.5      3.480      8.596
REMARK  4 active torsions:
REMARK  status: ('A' for Active; 'I' for Inactive)
REMARK    1  A    between atoms: C_2  and  N_3 
REMARK    2  A    between atoms: C_2  and  C_13 
REMARK       I    between atoms: N_3  and  C_4 
REMARK    3  A    between atoms: C_4  and  C_5 
REMARK    4  A    between atoms: C_6  and  C_7 
ROOT
HETATM    1  C   UNL     1       5.505  29.539  55.648  1.00  0.00     0.040 C 
HETATM    2  C   UNL     1       5.909  28.754  56.892  1.00  0.00     0.150 C 
ENDROOT
BRANCH   2   3
HETATM    3  N   UNL     1       6.696  27.589  56.524  1.00  0.00    -0.346 N 
HETATM    4  C   UNL     1       6.169  26.325  56.598  1.00  0.00     0.241 C 
HETATM    5  O   UNL     1       5.008  26.090  56.915  1.00  0.00    -0.269 OA
HETATM    6  H   UNL     1       7.701  27.709  56.505  1.00  0.00     0.163 HD
BRANCH   4   7
HETATM    7  C   UNL     1       7.155  25.264  56.285  1.00  0.00     0.075 C 
HETATM    8  C   UNL     1       6.794  24.222  55.517  1.00  0.00     0.017 C 
BRANCH   8   9
HETATM    9  C   UNL     1       7.643  23.139  55.115  1.00  0.00    -0.029 A 
HETATM   10  C   UNL     1       8.012  22.144  55.998  1.00  0.00     0.061 A 
HETATM   11  S   UNL     1       9.020  20.964  55.275  1.00  0.00    -0.113 SA
HETATM   12  C   UNL     1       8.971  21.771  53.770  1.00  0.00     0.050 A 
HETATM   13  C   UNL     1       8.205  22.916  53.819  1.00  0.00     0.019 A 
ENDBRANCH   8   9
ENDBRANCH   4   7
ENDBRANCH   2   3
BRANCH   2  14
HETATM   14  C   UNL     1       6.720  29.583  57.841  1.00  0.00     0.127 A 
HETATM   15  N   UNL     1       7.971  29.399  58.218  1.00  0.00    -0.231 NA
HETATM   16  C   UNL     1       8.244  30.421  59.096  1.00  0.00     0.085 A 
HETATM   17  C   UNL     1       7.133  31.238  59.272  1.00  0.00     0.062 A 
HETATM   18  C   UNL     1       9.426  30.714  59.792  1.00  0.00     0.034 A 
HETATM   19  N   UNL     1       6.173  30.677  58.473  1.00  0.00    -0.341 N 
HETATM   20  C   UNL     1       7.124  32.350  60.115  1.00  0.00     0.032 A 
HETATM   21  H   UNL     1       5.209  30.974  58.380  1.00  0.00     0.167 HD
HETATM   22  C   UNL     1       8.314  32.628  60.799  1.00  0.00     0.002 A 
HETATM   23  C   UNL     1       9.448  31.826  60.642  1.00  0.00     0.002 A 
ENDBRANCH   2  14
TORSDOF 4
ENDMDL
MODEL 9
REMARK VINA RESULT:      -7.5      3.475      5.149
REMARK  4 active torsions:
REMARK  status: ('A' for Active; 'I' for Inactive)
REMARK    1  A    between atoms: C_2  and  N_3 
REMARK    2  A    between atoms: C_2  and  C_13 
REMARK       I    between atoms: N_3  and  C_4 
REMARK    3  A    between atoms: C_4  and  C_5 
REMARK    4  A    between atoms: C_6  and  C_7 
ROOT
HETATM    1  C   UNL     1       8.275  26.103  57.075  1.00  0.00     0.040 C 
HETATM    2  C   UNL     1       7.051  25.442  56.451  1.00  0.00     0.150 C 
ENDROOT
BRANCH   2   3
HETATM    3  N   UNL     1       6.412  26.342  55.506  1.00  0.00    -0.346 N 
HETATM    4  C   UNL     1       5.347  27.122  55.878  1.00  0.00     0.241 C 
HETATM    5  O   UNL     1       4.899  27.163  57.018  1.00  0.00    -0.269 OA
HETATM    6  H   UNL     1       6.577  26.159  54.525  1.00  0.00     0.163 HD
BRANCH   4   7
HETATM    7  C   UNL     1       4.768  27.892  54.751  1.00  0.00     0.075 C 
HETATM    8  C   UNL     1       4.754  27.361  53.517  1.00  0.00     0.017 C 
BRANCH   8   9
HETATM    9  C   UNL     1       4.209  27.976  52.343  1.00  0.00    -0.029 A 
HETATM   10  C   UNL     1       3.154  28.864  52.416  1.00  0.00     0.061 A 
HETATM   11  S   UNL     1       2.693  29.466  50.880  1.00  0.00    -0.113 SA
HETATM   12  C   UNL     1       3.904  28.547  50.101  1.00  0.00     0.050 A 
HETATM   13  C   UNL     1       4.641  27.797  50.992  1.00  0.00     0.019 A 
ENDBRANCH   8   9
ENDBRANCH   4   7
ENDBRANCH   2   3
BRANCH   2  14
HETATM   14  C   UNL     1       7.402  24.178  55.726  1.00  0.00     0.127 A 
HETATM   15  N   UNL     1       7.303  23.926  54.435  1.00  0.00    -0.231 NA
HETATM   16  C   UNL     1       7.742  22.634  54.278  1.00  0.00     0.085 A 
HETATM   17  C   UNL     1       8.103  22.077  55.500  1.00  0.00     0.062 A 
HETATM   18  C   UNL     1       7.857  21.861  53.114  1.00  0.00     0.034 A 
HETATM   19  N   UNL     1       7.866  23.075  56.407  1.00  0.00    -0.341 N 
HETATM   20  C   UNL     1       8.580  20.773  55.638  1.00  0.00     0.032 A 
HETATM   21  H   UNL     1       7.967  23.019  57.414  1.00  0.00     0.167 HD
HETATM   22  C   UNL     1       8.691  20.018  54.465  1.00  0.00     0.002 A 
HETATM   23  C   UNL     1       8.336  20.549  53.222  1.00  0.00     0.002 A 
ENDBRANCH   2  14
TORSDOF 4
ENDMDL
MODEL 10
REMARK VINA RESULT:      -7.4      1.123      1.438
REMARK  4 active torsions:
REMARK  status: ('A' for Active; 'I' for Inactive)
REMARK    1  A    between atoms: C_2  and  N_3 
REMARK    2  A    between atoms: C_2  and  C_13 
REMARK       I    between atoms: N_3  and  C_4 
REMARK    3  A    between atoms: C_4  and  C_5 
REMARK    4  A    between atoms: C_6  and  C_7 
ROOT
HETATM    1  C   UNL     1       5.274  24.970  52.329  1.00  0.00     0.040 C 
HETATM    2  C   UNL     1       6.528  25.291  53.135  1.00  0.00     0.150 C 
ENDROOT
BRANCH   2   3
HETATM    3  N   UNL     1       6.241  26.299  54.142  1.00  0.00    -0.346 N 
HETATM    4  C   UNL     1       6.570  27.615  53.942  1.00  0.00     0.241 C 
HETATM    5  O   UNL     1       7.065  28.043  52.905  1.00  0.00    -0.269 OA
HETATM    6  H   UNL     1       6.075  25.965  55.083  1.00  0.00     0.163 HD
BRANCH   4   7
HETATM    7  C   UNL     1       6.295  28.470  55.122  1.00  0.00     0.075 C 
HETATM    8  C   UNL     1       7.317  28.983  55.827  1.00  0.00     0.017 C 
BRANCH   8   9
HETATM    9  C   UNL     1       7.204  29.840  56.971  1.00  0.00    -0.029 A 
HETATM   10  C   UNL     1       8.218  29.940  57.902  1.00  0.00     0.061 A 
HETATM   11  S   UNL     1       7.844  31.033  59.166  1.00  0.00    -0.113 SA
HETATM   12  C   UNL     1       6.321  31.386  58.479  1.00  0.00     0.050 A 
HETATM   13  C   UNL     1       6.102  30.684  57.312  1.00  0.00     0.019 A 
ENDBRANCH   8   9
ENDBRANCH   4   7
ENDBRANCH   2   3
BRANCH   2  14
HETATM   14  C   UNL     1       7.075  24.081  53.830  1.00  0.00     0.127 A 
HETATM   15  N   UNL     1       7.428  23.959  55.096  1.00  0.00    -0.231 NA
HETATM   16  C   UNL     1       7.868  22.665  55.231  1.00  0.00     0.085 A 
HETATM   17  C   UNL     1       7.798  21.984  54.020  1.00  0.00     0.062 A 
HETATM   18  C   UNL     1       8.351  21.995  56.365  1.00  0.00     0.034 A 
HETATM   19  N   UNL     1       7.302  22.910  53.143  1.00  0.00    -0.341 N 
HETATM   20  C   UNL     1       8.188  20.653  53.865  1.00  0.00     0.032 A 
HETATM   21  H   UNL     1       7.160  22.789  52.147  1.00  0.00     0.167 HD
HETATM   22  C   UNL     1       8.664  20.001  55.008  1.00  0.00     0.002 A 
HETATM   23  C   UNL     1       8.746  20.657  56.239  1.00  0.00     0.002 A 
ENDBRANCH   2  14
TORSDOF 4
ENDMDL
