MODEL 1
REMARK VINA RESULT:      -8.7      0.000      0.000
REMARK  4 active torsions:
REMARK  status: ('A' for Active; 'I' for Inactive)
REMARK    1  A    between atoms: C_9  and  C_10 
REMARK    2  A    between atoms: C_17  and  C_18 
REMARK       I    between atoms: C_18  and  N_19 
REMARK    3  A    between atoms: N_19  and  C_20 
REMARK    4  A    between atoms: C_23  and  O_24 
ROOT
HETATM    1  C   UNL     1       3.914  29.269  55.757  1.00  0.00     0.070 C 
HETATM    2  C   UNL     1       5.309  28.836  55.375  1.00  0.00     0.037 C 
HETATM    3  N   UNL     1       6.309  29.186  56.279  1.00  0.00    -0.192 N 
HETATM    4  C   UNL     1       7.618  29.180  55.954  1.00  0.00     0.725 A 
HETATM    5  N   UNL     1       8.013  28.608  54.776  1.00  0.00    -0.084 N 
HETATM    6  N   UNL     1       9.336  28.770  54.570  1.00  0.00    -0.149 NA
HETATM    7  C   UNL     1       9.681  29.415  55.690  1.00  0.00     0.275 A 
HETATM    8  N   UNL     1       8.660  29.679  56.567  1.00  0.00    -0.054 NA
HETATM    9  C   UNL     1       7.097  27.940  53.844  1.00  0.00     0.202 C 
HETATM   10  C   UNL     1       5.642  28.228  54.207  1.00  0.00     0.062 C 
HETATM   11  H   UNL     1       6.034  29.733  57.092  1.00  0.00     0.184 HD
ENDROOT
BRANCH  10  12
HETATM   12  C   UNL     1       4.685  27.937  53.105  1.00  0.00     0.256 C 
HETATM   13  N   UNL     1       5.149  28.264  51.850  1.00  0.00    -0.323 N 
HETATM   14  H   UNL     1       6.046  28.729  51.794  1.00  0.00     0.169 HD
HETATM   15  O   UNL     1       3.583  27.487  53.395  1.00  0.00    -0.267 OA
BRANCH  13  16
HETATM   16  C   UNL     1       4.526  27.976  50.615  1.00  0.00     0.035 A 
HETATM   17  C   UNL     1       3.547  28.778  50.029  1.00  0.00     0.032 A 
HETATM   18  C   UNL     1       2.956  28.404  48.817  1.00  0.00     0.039 A 
HETATM   19  C   UNL     1       3.330  27.226  48.169  1.00  0.00     0.068 A 
HETATM   20  C   UNL     1       4.304  26.418  48.750  1.00  0.00     0.039 A 
HETATM   21  C   UNL     1       4.900  26.794  49.963  1.00  0.00     0.032 A 
BRANCH  19  22
HETATM   22  O   UNL     1       2.669  26.983  46.998  1.00  0.00    -0.356 OA
HETATM   23  C   UNL     1       1.265  27.206  46.991  1.00  0.00     0.210 C 
ENDBRANCH  19  22
ENDBRANCH  13  16
ENDBRANCH  10  12
BRANCH   9  24
HETATM   24  C   UNL     1       7.391  26.439  53.798  1.00  0.00    -0.028 A 
HETATM   25  C   UNL     1       7.381  25.643  54.959  1.00  0.00     0.011 A 
HETATM   26  C   UNL     1       7.674  24.279  54.892  1.00  0.00     0.024 A 
HETATM   27  C   UNL     1       7.965  23.693  53.662  1.00  0.00     0.034 A 
HETATM   28 CL   UNL     1       8.337  22.015  53.584  1.00  0.00    -0.084 Cl
HETATM   29  C   UNL     1       7.957  24.458  52.499  1.00  0.00     0.024 A 
HETATM   30  C   UNL     1       7.667  25.823  52.565  1.00  0.00     0.011 A 
ENDBRANCH   9  24
TORSDOF 4
ENDMDL
MODEL 2
REMARK VINA RESULT:      -8.6      4.458      6.693
REMARK  4 active torsions:
REMARK  status: ('A' for Active; 'I' for Inactive)
REMARK    1  A    between atoms: C_9  and  C_10 
REMARK    2  A    between atoms: C_17  and  C_18 
REMARK       I    between atoms: C_18  and  N_19 
REMARK    3  A    between atoms: N_19  and  C_20 
REMARK    4  A    between atoms: C_23  and  O_24 
ROOT
HETATM    1  C   UNL     1      10.828  29.341  56.661  1.00  0.00     0.070 C 
HETATM    2  C   UNL     1       9.651  29.913  57.413  1.00  0.00     0.037 C 
HETATM    3  N   UNL     1       9.874  31.147  58.020  1.00  0.00    -0.192 N 
HETATM    4  C   UNL     1       9.072  31.639  58.987  1.00  0.00     0.725 A 
HETATM    5  N   UNL     1       7.876  31.026  59.240  1.00  0.00    -0.084 N 
HETATM    6  N   UNL     1       7.247  31.590  60.292  1.00  0.00    -0.149 NA
HETATM    7  C   UNL     1       8.108  32.568  60.595  1.00  0.00     0.275 A 
HETATM    8  N   UNL     1       9.235  32.636  59.816  1.00  0.00    -0.054 NA
HETATM    9  C   UNL     1       7.370  29.874  58.483  1.00  0.00     0.202 C 
HETATM   10  C   UNL     1       8.463  29.280  57.598  1.00  0.00     0.062 C 
HETATM   11  H   UNL     1      10.810  31.541  57.947  1.00  0.00     0.184 HD
ENDROOT
BRANCH  10  12
HETATM   12  C   UNL     1       8.161  27.902  57.124  1.00  0.00     0.256 C 
HETATM   13  N   UNL     1       7.813  27.823  55.793  1.00  0.00    -0.323 N 
HETATM   14  H   UNL     1       7.724  28.694  55.286  1.00  0.00     0.169 HD
HETATM   15  O   UNL     1       8.201  26.985  57.935  1.00  0.00    -0.267 OA
BRANCH  13  16
HETATM   16  C   UNL     1       7.612  26.647  55.038  1.00  0.00     0.035 A 
HETATM   17  C   UNL     1       7.375  25.391  55.598  1.00  0.00     0.032 A 
HETATM   18  C   UNL     1       7.218  24.268  54.778  1.00  0.00     0.039 A 
HETATM   19  C   UNL     1       7.294  24.375  53.390  1.00  0.00     0.068 A 
HETATM   20  C   UNL     1       7.534  25.625  52.823  1.00  0.00     0.039 A 
HETATM   21  C   UNL     1       7.688  26.753  53.643  1.00  0.00     0.032 A 
BRANCH  19  22
HETATM   22  O   UNL     1       7.126  23.199  52.715  1.00  0.00    -0.356 OA
HETATM   23  C   UNL     1       7.874  22.081  53.173  1.00  0.00     0.210 C 
ENDBRANCH  19  22
ENDBRANCH  13  16
ENDBRANCH  10  12
BRANCH   9  24
HETATM   24  C   UNL     1       6.134  30.275  57.675  1.00  0.00    -0.028 A 
HETATM   25  C   UNL     1       5.063  29.385  57.465  1.00  0.00     0.011 A 
HETATM   26  C   UNL     1       3.956  29.770  56.704  1.00  0.00     0.024 A 
HETATM   27  C   UNL     1       3.900  31.050  56.159  1.00  0.00     0.034 A 
HETATM   28 CL   UNL     1       2.541  31.516  55.214  1.00  0.00    -0.084 Cl
HETATM   29  C   UNL     1       4.938  31.951  56.374  1.00  0.00     0.024 A 
HETATM   30  C   UNL     1       6.048  31.568  57.131  1.00  0.00     0.011 A 
ENDBRANCH   9  24
TORSDOF 4
ENDMDL
MODEL 3
REMARK VINA RESULT:      -8.5      1.107      1.189
REMARK  4 active torsions:
REMARK  status: ('A' for Active; 'I' for Inactive)
REMARK    1  A    between atoms: C_9  and  C_10 
REMARK    2  A    between atoms: C_17  and  C_18 
REMARK       I    between atoms: C_18  and  N_19 
REMARK    3  A    between atoms: N_19  and  C_20 
REMARK    4  A    between atoms: C_23  and  O_24 
ROOT
HETATM    1  C   UNL     1       3.770  29.998  55.718  1.00  0.00     0.070 C 
HETATM    2  C   UNL     1       5.149  29.387  55.698  1.00  0.00     0.037 C 
HETATM    3  N   UNL     1       5.976  29.746  56.760  1.00  0.00    -0.192 N 
HETATM    4  C   UNL     1       7.313  29.571  56.734  1.00  0.00     0.725 A 
HETATM    5  N   UNL     1       7.870  28.820  55.736  1.00  0.00    -0.084 N 
HETATM    6  N   UNL     1       9.217  28.825  55.810  1.00  0.00    -0.149 NA
HETATM    7  C   UNL     1       9.398  29.568  56.908  1.00  0.00     0.275 A 
HETATM    8  N   UNL     1       8.258  30.038  57.508  1.00  0.00    -0.054 NA
HETATM    9  C   UNL     1       7.093  28.135  54.696  1.00  0.00     0.202 C 
HETATM   10  C   UNL     1       5.641  28.607  54.700  1.00  0.00     0.062 C 
HETATM   11  H   UNL     1       5.607  30.415  57.433  1.00  0.00     0.184 HD
ENDROOT
BRANCH  10  12
HETATM   12  C   UNL     1       4.905  28.277  53.449  1.00  0.00     0.256 C 
HETATM   13  N   UNL     1       5.651  28.415  52.299  1.00  0.00    -0.323 N 
HETATM   14  H   UNL     1       6.586  28.789  52.395  1.00  0.00     0.169 HD
HETATM   15  O   UNL     1       3.724  27.963  53.534  1.00  0.00    -0.267 OA
BRANCH  13  16
HETATM   16  C   UNL     1       5.268  28.042  50.991  1.00  0.00     0.035 A 
HETATM   17  C   UNL     1       5.087  28.945  49.943  1.00  0.00     0.032 A 
HETATM   18  C   UNL     1       4.675  28.497  48.684  1.00  0.00     0.039 A 
HETATM   19  C   UNL     1       4.435  27.144  48.446  1.00  0.00     0.068 A 
HETATM   20  C   UNL     1       4.610  26.236  49.488  1.00  0.00     0.039 A 
HETATM   21  C   UNL     1       5.027  26.683  50.750  1.00  0.00     0.032 A 
BRANCH  19  22
HETATM   22  O   UNL     1       4.035  26.848  47.173  1.00  0.00    -0.356 OA
HETATM   23  C   UNL     1       2.933  25.961  47.034  1.00  0.00     0.210 C 
ENDBRANCH  19  22
ENDBRANCH  13  16
ENDBRANCH  10  12
BRANCH   9  24
HETATM   24  C   UNL     1       7.203  26.618  54.867  1.00  0.00    -0.028 A 
HETATM   25  C   UNL     1       6.894  25.983  56.085  1.00  0.00     0.011 A 
HETATM   26  C   UNL     1       7.025  24.599  56.221  1.00  0.00     0.024 A 
HETATM   27  C   UNL     1       7.449  23.833  55.137  1.00  0.00     0.034 A 
HETATM   28 CL   UNL     1       7.619  22.131  55.310  1.00  0.00    -0.084 Cl
HETATM   29  C   UNL     1       7.737  24.440  53.918  1.00  0.00     0.024 A 
HETATM   30  C   UNL     1       7.611  25.825  53.781  1.00  0.00     0.011 A 
ENDBRANCH   9  24
TORSDOF 4
ENDMDL
MODEL 4
REMARK VINA RESULT:      -8.3      3.145      6.222
REMARK  4 active torsions:
REMARK  status: ('A' for Active; 'I' for Inactive)
REMARK    1  A    between atoms: C_9  and  C_10 
REMARK    2  A    between atoms: C_17  and  C_18 
REMARK       I    between atoms: C_18  and  N_19 
REMARK    3  A    between atoms: N_19  and  C_20 
REMARK    4  A    between atoms: C_23  and  O_24 
ROOT
HETATM    1  C   UNL     1       7.981  28.246  56.702  1.00  0.00     0.070 C 
HETATM    2  C   UNL     1       6.827  28.701  55.843  1.00  0.00     0.037 C 
HETATM    3  N   UNL     1       6.533  30.061  55.911  1.00  0.00    -0.192 N 
HETATM    4  C   UNL     1       5.361  30.575  55.487  1.00  0.00     0.725 A 
HETATM    5  N   UNL     1       4.508  29.788  54.763  1.00  0.00    -0.084 N 
HETATM    6  N   UNL     1       3.351  30.429  54.500  1.00  0.00    -0.149 NA
HETATM    7  C   UNL     1       3.597  31.618  55.062  1.00  0.00     0.275 A 
HETATM    8  N   UNL     1       4.818  31.750  55.671  1.00  0.00    -0.054 NA
HETATM    9  C   UNL     1       4.808  28.407  54.365  1.00  0.00     0.202 C 
HETATM   10  C   UNL     1       6.036  27.880  55.104  1.00  0.00     0.062 C 
HETATM   11  H   UNL     1       7.082  30.625  56.557  1.00  0.00     0.184 HD
ENDROOT
BRANCH  10  12
HETATM   12  C   UNL     1       6.161  26.397  55.068  1.00  0.00     0.256 C 
HETATM   13  N   UNL     1       7.223  25.936  54.323  1.00  0.00    -0.323 N 
HETATM   14  H   UNL     1       7.768  26.622  53.817  1.00  0.00     0.169 HD
HETATM   15  O   UNL     1       5.314  25.728  55.647  1.00  0.00    -0.267 OA
BRANCH  13  16
HETATM   16  C   UNL     1       7.671  24.600  54.223  1.00  0.00     0.035 A 
HETATM   17  C   UNL     1       8.399  23.944  55.216  1.00  0.00     0.032 A 
HETATM   18  C   UNL     1       8.833  22.628  55.025  1.00  0.00     0.039 A 
HETATM   19  C   UNL     1       8.550  21.942  53.844  1.00  0.00     0.068 A 
HETATM   20  C   UNL     1       7.826  22.591  52.846  1.00  0.00     0.039 A 
HETATM   21  C   UNL     1       7.387  23.909  53.038  1.00  0.00     0.032 A 
BRANCH  19  22
HETATM   22  O   UNL     1       9.038  20.667  53.792  1.00  0.00    -0.356 OA
HETATM   23  C   UNL     1       8.887  19.871  54.959  1.00  0.00     0.210 C 
ENDBRANCH  19  22
ENDBRANCH  13  16
ENDBRANCH  10  12
BRANCH   9  24
HETATM   24  C   UNL     1       4.972  28.319  52.845  1.00  0.00    -0.028 A 
HETATM   25  C   UNL     1       5.430  29.410  52.082  1.00  0.00     0.011 A 
HETATM   26  C   UNL     1       5.549  29.309  50.694  1.00  0.00     0.024 A 
HETATM   27  C   UNL     1       5.226  28.113  50.056  1.00  0.00     0.034 A 
HETATM   28 CL   UNL     1       5.364  27.996  48.346  1.00  0.00    -0.084 Cl
HETATM   29  C   UNL     1       4.794  27.016  50.795  1.00  0.00     0.024 A 
HETATM   30  C   UNL     1       4.671  27.116  52.183  1.00  0.00     0.011 A 
ENDBRANCH   9  24
TORSDOF 4
ENDMDL
MODEL 5
REMARK VINA RESULT:      -7.9      3.468      7.078
REMARK  4 active torsions:
REMARK  status: ('A' for Active; 'I' for Inactive)
REMARK    1  A    between atoms: C_9  and  C_10 
REMARK    2  A    between atoms: C_17  and  C_18 
REMARK       I    between atoms: C_18  and  N_19 
REMARK    3  A    between atoms: N_19  and  C_20 
REMARK    4  A    between atoms: C_23  and  O_24 
ROOT
HETATM    1  C   UNL     1       3.825  25.853  49.175  1.00  0.00     0.070 C 
HETATM    2  C   UNL     1       4.353  27.145  49.749  1.00  0.00     0.037 C 
HETATM    3  N   UNL     1       4.202  28.265  48.935  1.00  0.00    -0.192 N 
HETATM    4  C   UNL     1       4.893  29.407  49.131  1.00  0.00     0.725 A 
HETATM    5  N   UNL     1       5.608  29.566  50.287  1.00  0.00    -0.084 N 
HETATM    6  N   UNL     1       6.307  30.720  50.277  1.00  0.00    -0.149 NA
HETATM    7  C   UNL     1       5.931  31.224  49.097  1.00  0.00     0.275 A 
HETATM    8  N   UNL     1       5.061  30.455  48.368  1.00  0.00    -0.054 NA
HETATM    9  C   UNL     1       5.634  28.582  51.375  1.00  0.00     0.202 C 
HETATM   10  C   UNL     1       5.019  27.258  50.929  1.00  0.00     0.062 C 
HETATM   11  H   UNL     1       3.793  28.122  48.014  1.00  0.00     0.184 HD
ENDROOT
BRANCH  10  12
HETATM   12  C   UNL     1       5.368  26.111  51.811  1.00  0.00     0.256 C 
HETATM   13  N   UNL     1       6.721  25.904  51.964  1.00  0.00    -0.323 N 
HETATM   14  H   UNL     1       7.343  26.487  51.418  1.00  0.00     0.169 HD
HETATM   15  O   UNL     1       4.457  25.440  52.281  1.00  0.00    -0.267 OA
BRANCH  13  16
HETATM   16  C   UNL     1       7.345  24.991  52.843  1.00  0.00     0.035 A 
HETATM   17  C   UNL     1       7.830  23.742  52.455  1.00  0.00     0.032 A 
HETATM   18  C   UNL     1       8.407  22.882  53.396  1.00  0.00     0.039 A 
HETATM   19  C   UNL     1       8.510  23.250  54.737  1.00  0.00     0.068 A 
HETATM   20  C   UNL     1       8.024  24.494  55.133  1.00  0.00     0.039 A 
HETATM   21  C   UNL     1       7.449  25.359  54.190  1.00  0.00     0.032 A 
BRANCH  19  22
HETATM   22  O   UNL     1       9.090  22.313  55.545  1.00  0.00    -0.356 OA
HETATM   23  C   UNL     1       8.850  20.949  55.225  1.00  0.00     0.210 C 
ENDBRANCH  19  22
ENDBRANCH  13  16
ENDBRANCH  10  12
BRANCH   9  24
HETATM   24  C   UNL     1       4.939  29.147  52.617  1.00  0.00    -0.028 A 
HETATM   25  C   UNL     1       5.348  28.802  53.919  1.00  0.00     0.011 A 
HETATM   26  C   UNL     1       4.682  29.315  55.035  1.00  0.00     0.024 A 
HETATM   27  C   UNL     1       3.612  30.189  54.862  1.00  0.00     0.034 A 
HETATM   28 CL   UNL     1       2.787  30.811  56.237  1.00  0.00    -0.084 Cl
HETATM   29  C   UNL     1       3.207  30.560  53.582  1.00  0.00     0.024 A 
HETATM   30  C   UNL     1       3.869  30.046  52.465  1.00  0.00     0.011 A 
ENDBRANCH   9  24
TORSDOF 4
ENDMDL
MODEL 6
REMARK VINA RESULT:      -7.9      1.986      2.201
REMARK  4 active torsions:
REMARK  status: ('A' for Active; 'I' for Inactive)
REMARK    1  A    between atoms: C_9  and  C_10 
REMARK    2  A    between atoms: C_17  and  C_18 
REMARK       I    between atoms: C_18  and  N_19 
REMARK    3  A    between atoms: N_19  and  C_20 
REMARK    4  A    between atoms: C_23  and  O_24 
ROOT
HETATM    1  C   UNL     1       3.564  29.263  56.489  1.00  0.00     0.070 C 
HETATM    2  C   UNL     1       4.995  28.832  56.279  1.00  0.00     0.037 C 
HETATM    3  N   UNL     1       5.801  28.867  57.415  1.00  0.00    -0.192 N 
HETATM    4  C   UNL     1       7.148  28.841  57.352  1.00  0.00     0.725 A 
HETATM    5  N   UNL     1       7.758  28.551  56.162  1.00  0.00    -0.084 N 
HETATM    6  N   UNL     1       9.099  28.657  56.259  1.00  0.00    -0.149 NA
HETATM    7  C   UNL     1       9.228  28.974  57.552  1.00  0.00     0.275 A 
HETATM    8  N   UNL     1       8.058  29.090  58.258  1.00  0.00    -0.054 NA
HETATM    9  C   UNL     1       7.032  28.210  54.933  1.00  0.00     0.202 C 
HETATM   10  C   UNL     1       5.542  28.510  55.078  1.00  0.00     0.062 C 
HETATM   11  H   UNL     1       5.382  29.215  58.274  1.00  0.00     0.184 HD
ENDROOT
BRANCH  10  12
HETATM   12  C   UNL     1       4.820  28.578  53.778  1.00  0.00     0.256 C 
HETATM   13  N   UNL     1       5.144  29.672  53.006  1.00  0.00    -0.323 N 
HETATM   14  H   UNL     1       5.772  30.354  53.410  1.00  0.00     0.169 HD
HETATM   15  O   UNL     1       3.993  27.710  53.526  1.00  0.00    -0.267 OA
BRANCH  13  16
HETATM   16  C   UNL     1       4.730  29.924  51.679  1.00  0.00     0.035 A 
HETATM   17  C   UNL     1       5.535  29.721  50.558  1.00  0.00     0.032 A 
HETATM   18  C   UNL     1       5.059  30.027  49.278  1.00  0.00     0.039 A 
HETATM   19  C   UNL     1       3.775  30.541  49.093  1.00  0.00     0.068 A 
HETATM   20  C   UNL     1       2.967  30.750  50.208  1.00  0.00     0.039 A 
HETATM   21  C   UNL     1       3.441  30.440  51.491  1.00  0.00     0.032 A 
BRANCH  19  22
HETATM   22  O   UNL     1       3.444  30.798  47.793  1.00  0.00    -0.356 OA
HETATM   23  C   UNL     1       4.480  30.679  46.828  1.00  0.00     0.210 C 
ENDBRANCH  19  22
ENDBRANCH  13  16
ENDBRANCH  10  12
BRANCH   9  24
HETATM   24  C   UNL     1       7.289  26.749  54.555  1.00  0.00    -0.028 A 
HETATM   25  C   UNL     1       7.088  25.698  55.470  1.00  0.00     0.011 A 
HETATM   26  C   UNL     1       7.351  24.376  55.106  1.00  0.00     0.024 A 
HETATM   27  C   UNL     1       7.804  24.088  53.821  1.00  0.00     0.034 A 
HETATM   28 CL   UNL     1       8.138  22.459  53.379  1.00  0.00    -0.084 Cl
HETATM   29  C   UNL     1       7.987  25.111  52.895  1.00  0.00     0.024 A 
HETATM   30  C   UNL     1       7.728  26.434  53.258  1.00  0.00     0.011 A 
ENDBRANCH   9  24
TORSDOF 4
ENDMDL
MODEL 7
REMARK VINA RESULT:      -7.8      4.575      7.395
REMARK  4 active torsions:
REMARK  status: ('A' for Active; 'I' for Inactive)
REMARK    1  A    between atoms: C_9  and  C_10 
REMARK    2  A    between atoms: C_17  and  C_18 
REMARK       I    between atoms: C_18  and  N_19 
REMARK    3  A    between atoms: N_19  and  C_20 
REMARK    4  A    between atoms: C_23  and  O_24 
ROOT
HETATM    1  C   UNL     1       8.938  30.513  58.268  1.00  0.00     0.070 C 
HETATM    2  C   UNL     1       7.447  30.594  58.049  1.00  0.00     0.037 C 
HETATM    3  N   UNL     1       6.805  31.646  58.699  1.00  0.00    -0.192 N 
HETATM    4  C   UNL     1       5.470  31.679  58.887  1.00  0.00     0.725 A 
HETATM    5  N   UNL     1       4.680  30.771  58.237  1.00  0.00    -0.084 N 
HETATM    6  N   UNL     1       3.388  30.889  58.608  1.00  0.00    -0.149 NA
HETATM    7  C   UNL     1       3.470  31.921  59.456  1.00  0.00     0.275 A 
HETATM    8  N   UNL     1       4.726  32.437  59.650  1.00  0.00    -0.054 NA
HETATM    9  C   UNL     1       5.189  29.774  57.289  1.00  0.00     0.202 C 
HETATM   10  C   UNL     1       6.712  29.687  57.354  1.00  0.00     0.062 C 
HETATM   11  H   UNL     1       7.374  32.243  59.296  1.00  0.00     0.184 HD
ENDROOT
BRANCH  10  12
HETATM   12  C   UNL     1       7.264  28.448  56.741  1.00  0.00     0.256 C 
HETATM   13  N   UNL     1       7.046  27.305  57.478  1.00  0.00    -0.323 N 
HETATM   14  H   UNL     1       6.606  27.414  58.383  1.00  0.00     0.169 HD
HETATM   15  O   UNL     1       7.885  28.545  55.689  1.00  0.00    -0.267 OA
BRANCH  13  16
HETATM   16  C   UNL     1       7.327  25.977  57.086  1.00  0.00     0.035 A 
HETATM   17  C   UNL     1       8.433  25.250  57.528  1.00  0.00     0.032 A 
HETATM   18  C   UNL     1       8.656  23.949  57.065  1.00  0.00     0.039 A 
HETATM   19  C   UNL     1       7.785  23.350  56.156  1.00  0.00     0.068 A 
HETATM   20  C   UNL     1       6.681  24.070  55.707  1.00  0.00     0.039 A 
HETATM   21  C   UNL     1       6.452  25.374  56.173  1.00  0.00     0.032 A 
BRANCH  19  22
HETATM   22  O   UNL     1       8.127  22.079  55.787  1.00  0.00    -0.356 OA
HETATM   23  C   UNL     1       8.437  21.166  56.831  1.00  0.00     0.210 C 
ENDBRANCH  19  22
ENDBRANCH  13  16
ENDBRANCH  10  12
BRANCH   9  24
HETATM   24  C   UNL     1       4.692  30.085  55.875  1.00  0.00    -0.028 A 
HETATM   25  C   UNL     1       4.670  31.398  55.367  1.00  0.00     0.011 A 
HETATM   26  C   UNL     1       4.190  31.657  54.081  1.00  0.00     0.024 A 
HETATM   27  C   UNL     1       3.743  30.606  53.284  1.00  0.00     0.034 A 
HETATM   28 CL   UNL     1       3.143  30.929  51.705  1.00  0.00    -0.084 Cl
HETATM   29  C   UNL     1       3.779  29.298  53.759  1.00  0.00     0.024 A 
HETATM   30  C   UNL     1       4.255  29.038  55.046  1.00  0.00     0.011 A 
ENDBRANCH   9  24
TORSDOF 4
ENDMDL
MODEL 8
REMARK VINA RESULT:      -7.8      2.606      6.755
REMARK  4 active torsions:
REMARK  status: ('A' for Active; 'I' for Inactive)
REMARK    1  A    between atoms: C_9  and  C_10 
REMARK    2  A    between atoms: C_17  and  C_18 
REMARK       I    between atoms: C_18  and  N_19 
REMARK    3  A    between atoms: N_19  and  C_20 
REMARK    4  A    between atoms: C_23  and  O_24 
ROOT
HETATM    1  C   UNL     1       5.563  30.877  50.512  1.00  0.00     0.070 C 
HETATM    2  C   UNL     1       5.270  29.404  50.352  1.00  0.00     0.037 C 
HETATM    3  N   UNL     1       5.493  28.888  49.077  1.00  0.00    -0.192 N 
HETATM    4  C   UNL     1       4.983  27.707  48.671  1.00  0.00     0.725 A 
HETATM    5  N   UNL     1       4.410  26.873  49.592  1.00  0.00    -0.084 N 
HETATM    6  N   UNL     1       3.875  25.785  49.003  1.00  0.00    -0.149 NA
HETATM    7  C   UNL     1       4.201  26.012  47.725  1.00  0.00     0.275 A 
HETATM    8  N   UNL     1       4.886  27.174  47.481  1.00  0.00    -0.054 NA
HETATM    9  C   UNL     1       4.356  27.157  51.031  1.00  0.00     0.202 C 
HETATM   10  C   UNL     1       4.742  28.607  51.316  1.00  0.00     0.062 C 
HETATM   11  H   UNL     1       5.789  29.540  48.354  1.00  0.00     0.184 HD
ENDROOT
BRANCH  10  12
HETATM   12  C   UNL     1       4.327  29.078  52.666  1.00  0.00     0.256 C 
HETATM   13  N   UNL     1       5.363  29.206  53.565  1.00  0.00    -0.323 N 
HETATM   14  H   UNL     1       6.280  28.905  53.261  1.00  0.00     0.169 HD
HETATM   15  O   UNL     1       3.135  29.267  52.875  1.00  0.00    -0.267 OA
BRANCH  13  16
HETATM   16  C   UNL     1       5.295  29.760  54.862  1.00  0.00     0.035 A 
HETATM   17  C   UNL     1       4.753  31.013  55.148  1.00  0.00     0.032 A 
HETATM   18  C   UNL     1       4.753  31.503  56.459  1.00  0.00     0.039 A 
HETATM   19  C   UNL     1       5.292  30.755  57.506  1.00  0.00     0.068 A 
HETATM   20  C   UNL     1       5.838  29.505  57.228  1.00  0.00     0.039 A 
HETATM   21  C   UNL     1       5.835  29.010  55.915  1.00  0.00     0.032 A 
BRANCH  19  22
HETATM   22  O   UNL     1       5.228  31.357  58.731  1.00  0.00    -0.356 OA
HETATM   23  C   UNL     1       6.424  31.951  59.220  1.00  0.00     0.210 C 
ENDBRANCH  19  22
ENDBRANCH  13  16
ENDBRANCH  10  12
BRANCH   9  24
HETATM   24  C   UNL     1       5.235  26.168  51.799  1.00  0.00    -0.028 A 
HETATM   25  C   UNL     1       4.765  25.483  52.935  1.00  0.00     0.011 A 
HETATM   26  C   UNL     1       5.597  24.602  53.631  1.00  0.00     0.024 A 
HETATM   27  C   UNL     1       6.900  24.384  53.190  1.00  0.00     0.034 A 
HETATM   28 CL   UNL     1       7.925  23.307  54.055  1.00  0.00    -0.084 Cl
HETATM   29  C   UNL     1       7.376  25.035  52.055  1.00  0.00     0.024 A 
HETATM   30  C   UNL     1       6.547  25.919  51.360  1.00  0.00     0.011 A 
ENDBRANCH   9  24
TORSDOF 4
ENDMDL
MODEL 9
REMARK VINA RESULT:      -7.7      3.840      6.313
REMARK  4 active torsions:
REMARK  status: ('A' for Active; 'I' for Inactive)
REMARK    1  A    between atoms: C_9  and  C_10 
REMARK    2  A    between atoms: C_17  and  C_18 
REMARK       I    between atoms: C_18  and  N_19 
REMARK    3  A    between atoms: N_19  and  C_20 
REMARK    4  A    between atoms: C_23  and  O_24 
ROOT
HETATM    1  C   UNL     1       8.100  28.285  57.747  1.00  0.00     0.070 C 
HETATM    2  C   UNL     1       6.789  28.943  57.390  1.00  0.00     0.037 C 
HETATM    3  N   UNL     1       6.615  30.233  57.886  1.00  0.00    -0.192 N 
HETATM    4  C   UNL     1       5.408  30.832  57.951  1.00  0.00     0.725 A 
HETATM    5  N   UNL     1       4.342  30.259  57.315  1.00  0.00    -0.084 N 
HETATM    6  N   UNL     1       3.202  30.937  57.559  1.00  0.00    -0.149 NA
HETATM    7  C   UNL     1       3.668  31.935  58.317  1.00  0.00     0.275 A 
HETATM    8  N   UNL     1       5.015  31.912  58.575  1.00  0.00    -0.054 NA
HETATM    9  C   UNL     1       4.431  29.037  56.507  1.00  0.00     0.202 C 
HETATM   10  C   UNL     1       5.775  28.342  56.714  1.00  0.00     0.062 C 
HETATM   11  H   UNL     1       7.354  30.610  58.477  1.00  0.00     0.184 HD
ENDROOT
BRANCH  10  12
HETATM   12  C   UNL     1       5.787  26.924  56.264  1.00  0.00     0.256 C 
HETATM   13  N   UNL     1       6.654  26.666  55.224  1.00  0.00    -0.323 N 
HETATM   14  H   UNL     1       7.139  27.456  54.819  1.00  0.00     0.169 HD
HETATM   15  O   UNL     1       5.022  26.135  56.804  1.00  0.00    -0.267 OA
BRANCH  13  16
HETATM   16  C   UNL     1       6.980  25.401  54.687  1.00  0.00     0.035 A 
HETATM   17  C   UNL     1       7.445  24.327  55.447  1.00  0.00     0.032 A 
HETATM   18  C   UNL     1       7.777  23.115  54.832  1.00  0.00     0.039 A 
HETATM   19  C   UNL     1       7.652  22.951  53.452  1.00  0.00     0.068 A 
HETATM   20  C   UNL     1       7.191  24.020  52.687  1.00  0.00     0.039 A 
HETATM   21  C   UNL     1       6.854  25.235  53.302  1.00  0.00     0.032 A 
BRANCH  19  22
HETATM   22  O   UNL     1       8.014  21.719  52.987  1.00  0.00    -0.356 OA
HETATM   23  C   UNL     1       7.923  20.633  53.899  1.00  0.00     0.210 C 
ENDBRANCH  19  22
ENDBRANCH  13  16
ENDBRANCH  10  12
BRANCH   9  24
HETATM   24  C   UNL     1       4.173  29.357  55.033  1.00  0.00    -0.028 A 
HETATM   25  C   UNL     1       3.760  28.370  54.119  1.00  0.00     0.011 A 
HETATM   26  C   UNL     1       3.553  28.685  52.774  1.00  0.00     0.024 A 
HETATM   27  C   UNL     1       3.740  29.993  52.332  1.00  0.00     0.034 A 
HETATM   28 CL   UNL     1       3.494  30.376  50.673  1.00  0.00    -0.084 Cl
HETATM   29  C   UNL     1       4.125  30.988  53.225  1.00  0.00     0.024 A 
HETATM   30  C   UNL     1       4.337  30.674  54.570  1.00  0.00     0.011 A 
ENDBRANCH   9  24
TORSDOF 4
ENDMDL
MODEL 10
REMARK VINA RESULT:      -7.7      9.000     12.395
REMARK  4 active torsions:
REMARK  status: ('A' for Active; 'I' for Inactive)
REMARK    1  A    between atoms: C_9  and  C_10 
REMARK    2  A    between atoms: C_17  and  C_18 
REMARK       I    between atoms: C_18  and  N_19 
REMARK    3  A    between atoms: N_19  and  C_20 
REMARK    4  A    between atoms: C_23  and  O_24 
ROOT
HETATM    1  C   UNL     1       7.938  33.133  64.153  1.00  0.00     0.070 C 
HETATM    2  C   UNL     1       6.561  33.742  64.259  1.00  0.00     0.037 C 
HETATM    3  N   UNL     1       6.368  34.591  65.346  1.00  0.00    -0.192 N 
HETATM    4  C   UNL     1       5.142  34.951  65.780  1.00  0.00     0.725 A 
HETATM    5  N   UNL     1       4.048  34.661  65.012  1.00  0.00    -0.084 N 
HETATM    6  N   UNL     1       2.904  35.008  65.636  1.00  0.00    -0.149 NA
HETATM    7  C   UNL     1       3.391  35.542  66.761  1.00  0.00     0.275 A 
HETATM    8  N   UNL     1       4.757  35.533  66.886  1.00  0.00    -0.054 NA
HETATM    9  C   UNL     1       4.121  34.015  63.696  1.00  0.00     0.202 C 
HETATM   10  C   UNL     1       5.517  33.453  63.439  1.00  0.00     0.062 C 
HETATM   11  H   UNL     1       7.142  34.701  65.997  1.00  0.00     0.184 HD
ENDROOT
BRANCH  10  12
HETATM   12  C   UNL     1       5.562  32.453  62.338  1.00  0.00     0.256 C 
HETATM   13  N   UNL     1       6.428  32.774  61.316  1.00  0.00    -0.323 N 
HETATM   14  H   UNL     1       6.891  33.673  61.365  1.00  0.00     0.169 HD
HETATM   15  O   UNL     1       4.820  31.480  62.404  1.00  0.00    -0.267 OA
BRANCH  13  16
HETATM   16  C   UNL     1       6.783  31.958  60.219  1.00  0.00     0.035 A 
HETATM   17  C   UNL     1       6.079  31.920  59.015  1.00  0.00     0.032 A 
HETATM   18  C   UNL     1       6.479  31.059  57.987  1.00  0.00     0.039 A 
HETATM   19  C   UNL     1       7.584  30.222  58.140  1.00  0.00     0.068 A 
HETATM   20  C   UNL     1       8.290  30.252  59.340  1.00  0.00     0.039 A 
HETATM   21  C   UNL     1       7.893  31.118  60.370  1.00  0.00     0.032 A 
BRANCH  19  22
HETATM   22  O   UNL     1       7.858  29.432  57.059  1.00  0.00    -0.356 OA
HETATM   23  C   UNL     1       9.154  28.851  56.996  1.00  0.00     0.210 C 
ENDBRANCH  19  22
ENDBRANCH  13  16
ENDBRANCH  10  12
BRANCH   9  24
HETATM   24  C   UNL     1       3.688  34.995  62.602  1.00  0.00    -0.028 A 
HETATM   25  C   UNL     1       4.381  36.197  62.363  1.00  0.00     0.011 A 
HETATM   26  C   UNL     1       3.951  37.083  61.373  1.00  0.00     0.024 A 
HETATM   27  C   UNL     1       2.834  36.772  60.602  1.00  0.00     0.034 A 
HETATM   28 CL   UNL     1       2.300  37.871  59.391  1.00  0.00    -0.084 Cl
HETATM   29  C   UNL     1       2.149  35.578  60.807  1.00  0.00     0.024 A 
HETATM   30  C   UNL     1       2.575  34.691  61.799  1.00  0.00     0.011 A 
ENDBRANCH   9  24
TORSDOF 4
ENDMDL
