MODEL 1
REMARK VINA RESULT:     -10.0      0.000      0.000
REMARK  7 active torsions:
REMARK  status: ('A' for Active; 'I' for Inactive)
REMARK    1  A    between atoms: N_7  and  C_8 
REMARK    2  A    between atoms: C_8  and  C_9 
REMARK       I    between atoms: C_9  and  N_10 
REMARK    3  A    between atoms: N_10  and  C_11 
REMARK    4  A    between atoms: C_11  and  C_12 
REMARK    5  A    between atoms: C_12  and  C_13 
REMARK    6  A    between atoms: C_12  and  C_23 
REMARK    7  A    between atoms: C_26  and  O_27 
ROOT
HETATM    1  C   UNL     1       4.975  29.592  55.007  1.00  0.00     0.136 C 
ENDROOT
BRANCH   1   2
HETATM    2  N   UNL     1       4.682  30.210  53.724  1.00  0.00    -0.359 N 
HETATM    3  C   UNL     1       3.749  29.662  52.869  1.00  0.00     0.236 C 
HETATM    4  O   UNL     1       3.117  28.643  53.135  1.00  0.00    -0.272 OA
HETATM    5  H   UNL     1       5.116  31.104  53.487  1.00  0.00     0.162 HD
BRANCH   3   6
HETATM    6  C   UNL     1       3.587  30.404  51.548  1.00  0.00     0.239 C 
BRANCH   6   7
HETATM    7  N   UNL     1       4.089  29.603  50.455  1.00  0.00    -0.259 N 
HETATM    8  C   UNL     1       5.346  29.703  49.953  1.00  0.00     0.326 A 
HETATM    9  N   UNL     1       5.506  28.755  48.975  1.00  0.00    -0.324 N 
HETATM   10  O   UNL     1       6.202  30.507  50.283  1.00  0.00    -0.247 OA
HETATM   11  C   UNL     1       4.304  27.970  48.748  1.00  0.00     0.119 A 
HETATM   12  H   UNL     1       6.372  28.678  48.457  1.00  0.00     0.165 HD
HETATM   13  C   UNL     1       4.563  26.468  49.012  1.00  0.00     0.019 C 
HETATM   14  C   UNL     1       3.385  28.626  49.809  1.00  0.00     0.257 A 
HETATM   15  C   UNL     1       3.778  28.243  47.332  1.00  0.00     0.041 C 
HETATM   16  C   UNL     1       4.945  26.150  50.465  1.00  0.00     0.013 C 
HETATM   17  C   UNL     1       3.373  25.592  48.588  1.00  0.00     0.007 C 
HETATM   18  C   UNL     1       2.955  25.862  47.147  1.00  0.00     0.001 C 
HETATM   19  C   UNL     1       2.622  27.332  46.929  1.00  0.00     0.003 C 
HETATM   20  O   UNL     1       2.229  28.302  50.040  1.00  0.00    -0.270 OA
ENDBRANCH   6   7
ENDBRANCH   3   6
ENDBRANCH   1   2
BRANCH   1  21
HETATM   21  C   UNL     1       6.315  28.831  55.048  1.00  0.00     0.071 C 
BRANCH  21  22
HETATM   22  C   UNL     1       6.174  27.332  55.183  1.00  0.00    -0.020 A 
HETATM   23  C   UNL     1       6.749  26.343  54.309  1.00  0.00    -0.001 A 
HETATM   24  C   UNL     1       6.389  25.086  54.797  1.00  0.00     0.042 A 
HETATM   25  C   UNL     1       7.552  26.402  53.151  1.00  0.00     0.014 A 
HETATM   26  C   UNL     1       6.795  23.890  54.192  1.00  0.00     0.030 A 
HETATM   27  N   UNL     1       5.615  25.293  55.913  1.00  0.00    -0.365 N 
HETATM   28  C   UNL     1       7.597  23.979  53.051  1.00  0.00     0.002 A 
HETATM   29  C   UNL     1       7.970  25.217  52.534  1.00  0.00     0.001 A 
HETATM   30  H   UNL     1       5.215  24.555  56.476  1.00  0.00     0.165 HD
HETATM   31  C   UNL     1       5.473  26.632  56.151  1.00  0.00     0.097 A 
ENDBRANCH  21  22
BRANCH  21  32
HETATM   32  C   UNL     1       7.236  29.246  56.189  1.00  0.00    -0.048 A 
HETATM   33  C   UNL     1       6.717  29.983  57.266  1.00  0.00     0.011 A 
HETATM   34  C   UNL     1       7.533  30.358  58.338  1.00  0.00     0.037 A 
HETATM   35  C   UNL     1       8.881  30.004  58.365  1.00  0.00     0.068 A 
HETATM   36  C   UNL     1       9.417  29.298  57.291  1.00  0.00     0.037 A 
HETATM   37  C   UNL     1       8.604  28.926  56.213  1.00  0.00     0.011 A 
BRANCH  35  38
HETATM   38  O   UNL     1       9.563  30.414  59.477  1.00  0.00    -0.356 OA
HETATM   39  C   UNL     1       8.782  30.704  60.630  1.00  0.00     0.210 C 
ENDBRANCH  35  38
ENDBRANCH  21  32
ENDBRANCH   1  21
TORSDOF 7
ENDMDL
MODEL 2
REMARK VINA RESULT:      -9.7      1.831      2.599
REMARK  7 active torsions:
REMARK  status: ('A' for Active; 'I' for Inactive)
REMARK    1  A    between atoms: N_7  and  C_8 
REMARK    2  A    between atoms: C_8  and  C_9 
REMARK       I    between atoms: C_9  and  N_10 
REMARK    3  A    between atoms: N_10  and  C_11 
REMARK    4  A    between atoms: C_11  and  C_12 
REMARK    5  A    between atoms: C_12  and  C_13 
REMARK    6  A    between atoms: C_12  and  C_23 
REMARK    7  A    between atoms: C_26  and  O_27 
ROOT
HETATM    1  C   UNL     1       5.415  27.403  56.248  1.00  0.00     0.136 C 
ENDROOT
BRANCH   1   2
HETATM    2  N   UNL     1       4.586  27.273  55.059  1.00  0.00    -0.359 N 
HETATM    3  C   UNL     1       4.333  28.360  54.249  1.00  0.00     0.236 C 
HETATM    4  O   UNL     1       4.789  29.479  54.472  1.00  0.00    -0.272 OA
HETATM    5  H   UNL     1       4.251  26.350  54.780  1.00  0.00     0.162 HD
BRANCH   3   6
HETATM    6  C   UNL     1       3.415  28.071  53.068  1.00  0.00     0.239 C 
BRANCH   6   7
HETATM    7  N   UNL     1       4.148  28.165  51.825  1.00  0.00    -0.259 N 
HETATM    8  C   UNL     1       5.147  27.321  51.466  1.00  0.00     0.326 A 
HETATM    9  N   UNL     1       5.573  27.655  50.205  1.00  0.00    -0.324 N 
HETATM   10  O   UNL     1       5.623  26.423  52.141  1.00  0.00    -0.247 OA
HETATM   11  C   UNL     1       4.869  28.804  49.658  1.00  0.00     0.119 A 
HETATM   12  H   UNL     1       6.333  27.157  49.761  1.00  0.00     0.165 HD
HETATM   13  C   UNL     1       4.129  28.430  48.352  1.00  0.00     0.019 C 
HETATM   14  C   UNL     1       3.912  29.086  50.843  1.00  0.00     0.257 A 
HETATM   15  C   UNL     1       5.858  29.963  49.471  1.00  0.00     0.041 C 
HETATM   16  C   UNL     1       3.028  27.378  48.542  1.00  0.00     0.013 C 
HETATM   17  C   UNL     1       3.546  29.665  47.645  1.00  0.00     0.007 C 
HETATM   18  C   UNL     1       4.601  30.743  47.425  1.00  0.00     0.001 C 
HETATM   19  C   UNL     1       5.258  31.157  48.734  1.00  0.00     0.003 C 
HETATM   20  O   UNL     1       3.072  29.973  50.877  1.00  0.00    -0.270 OA
ENDBRANCH   6   7
ENDBRANCH   3   6
ENDBRANCH   1   2
BRANCH   1  21
HETATM   21  C   UNL     1       6.928  27.291  55.975  1.00  0.00     0.071 C 
BRANCH  21  22
HETATM   22  C   UNL     1       7.538  25.972  56.388  1.00  0.00    -0.020 A 
HETATM   23  C   UNL     1       7.833  24.863  55.518  1.00  0.00    -0.001 A 
HETATM   24  C   UNL     1       8.398  23.853  56.296  1.00  0.00     0.042 A 
HETATM   25  C   UNL     1       7.680  24.632  54.135  1.00  0.00     0.014 A 
HETATM   26  C   UNL     1       8.823  22.629  55.764  1.00  0.00     0.030 A 
HETATM   27  N   UNL     1       8.436  24.313  57.590  1.00  0.00    -0.365 N 
HETATM   28  C   UNL     1       8.665  22.430  54.389  1.00  0.00     0.002 A 
HETATM   29  C   UNL     1       8.100  23.415  53.584  1.00  0.00     0.001 A 
HETATM   30  H   UNL     1       8.801  23.788  58.373  1.00  0.00     0.165 HD
HETATM   31  C   UNL     1       7.918  25.577  57.661  1.00  0.00     0.097 A 
ENDBRANCH  21  22
BRANCH  21  32
HETATM   32  C   UNL     1       7.769  28.353  56.675  1.00  0.00    -0.048 A 
HETATM   33  C   UNL     1       7.244  29.032  57.786  1.00  0.00     0.011 A 
HETATM   34  C   UNL     1       8.001  29.994  58.462  1.00  0.00     0.037 A 
HETATM   35  C   UNL     1       9.298  30.296  58.053  1.00  0.00     0.068 A 
HETATM   36  C   UNL     1       9.824  29.651  56.936  1.00  0.00     0.037 A 
HETATM   37  C   UNL     1       9.066  28.691  56.253  1.00  0.00     0.011 A 
BRANCH  35  38
HETATM   38  O   UNL     1       9.938  31.239  58.810  1.00  0.00    -0.356 OA
HETATM   39  C   UNL     1       9.145  31.930  59.768  1.00  0.00     0.210 C 
ENDBRANCH  35  38
ENDBRANCH  21  32
ENDBRANCH   1  21
TORSDOF 7
ENDMDL
MODEL 3
REMARK VINA RESULT:      -9.5      2.593      5.109
REMARK  7 active torsions:
REMARK  status: ('A' for Active; 'I' for Inactive)
REMARK    1  A    between atoms: N_7  and  C_8 
REMARK    2  A    between atoms: C_8  and  C_9 
REMARK       I    between atoms: C_9  and  N_10 
REMARK    3  A    between atoms: N_10  and  C_11 
REMARK    4  A    between atoms: C_11  and  C_12 
REMARK    5  A    between atoms: C_12  and  C_13 
REMARK    6  A    between atoms: C_12  and  C_23 
REMARK    7  A    between atoms: C_26  and  O_27 
ROOT
HETATM    1  C   UNL     1       4.649  25.386  53.051  1.00  0.00     0.136 C 
ENDROOT
BRANCH   1   2
HETATM    2  N   UNL     1       4.371  26.722  52.547  1.00  0.00    -0.359 N 
HETATM    3  C   UNL     1       4.695  27.073  51.253  1.00  0.00     0.236 C 
HETATM    4  O   UNL     1       5.219  26.294  50.461  1.00  0.00    -0.272 OA
HETATM    5  H   UNL     1       3.861  27.384  53.134  1.00  0.00     0.162 HD
BRANCH   3   6
HETATM    6  C   UNL     1       4.379  28.519  50.890  1.00  0.00     0.239 C 
BRANCH   6   7
HETATM    7  N   UNL     1       3.960  28.613  49.510  1.00  0.00    -0.259 N 
HETATM    8  C   UNL     1       4.814  28.705  48.461  1.00  0.00     0.326 A 
HETATM    9  N   UNL     1       4.085  28.709  47.299  1.00  0.00    -0.324 N 
HETATM   10  O   UNL     1       6.030  28.794  48.514  1.00  0.00    -0.247 OA
HETATM   11  C   UNL     1       2.651  28.650  47.532  1.00  0.00     0.119 A 
HETATM   12  H   UNL     1       4.537  28.794  46.398  1.00  0.00     0.165 HD
HETATM   13  C   UNL     1       2.033  27.392  46.878  1.00  0.00     0.019 C 
HETATM   14  C   UNL     1       2.663  28.589  49.080  1.00  0.00     0.257 A 
HETATM   15  C   UNL     1       2.004  29.954  47.046  1.00  0.00     0.041 C 
HETATM   16  C   UNL     1       2.557  26.070  47.456  1.00  0.00     0.013 C 
HETATM   17  C   UNL     1       0.497  27.407  46.934  1.00  0.00     0.007 C 
HETATM   18  C   UNL     1      -0.079  28.699  46.364  1.00  0.00     0.001 C 
HETATM   19  C   UNL     1       0.478  29.921  47.080  1.00  0.00     0.003 C 
HETATM   20  O   UNL     1       1.672  28.509  49.792  1.00  0.00    -0.270 OA
ENDBRANCH   6   7
ENDBRANCH   3   6
ENDBRANCH   1   2
BRANCH   1  21
HETATM   21  C   UNL     1       5.568  25.359  54.288  1.00  0.00     0.071 C 
BRANCH  21  22
HETATM   22  C   UNL     1       6.401  26.606  54.471  1.00  0.00    -0.020 A 
HETATM   23  C   UNL     1       6.249  27.583  55.517  1.00  0.00    -0.001 A 
HETATM   24  C   UNL     1       7.224  28.563  55.327  1.00  0.00     0.042 A 
HETATM   25  C   UNL     1       5.376  27.718  56.617  1.00  0.00     0.014 A 
HETATM   26  C   UNL     1       7.374  29.663  56.179  1.00  0.00     0.030 A 
HETATM   27  N   UNL     1       7.935  28.213  54.204  1.00  0.00    -0.365 N 
HETATM   28  C   UNL     1       6.500  29.767  57.265  1.00  0.00     0.002 A 
HETATM   29  C   UNL     1       5.513  28.810  57.482  1.00  0.00     0.001 A 
HETATM   30  H   UNL     1       8.709  28.743  53.829  1.00  0.00     0.165 HD
HETATM   31  C   UNL     1       7.448  27.048  53.678  1.00  0.00     0.097 A 
ENDBRANCH  21  22
BRANCH  21  32
HETATM   32  C   UNL     1       6.569  24.209  54.299  1.00  0.00    -0.048 A 
HETATM   33  C   UNL     1       7.055  23.725  55.524  1.00  0.00     0.011 A 
HETATM   34  C   UNL     1       7.956  22.657  55.567  1.00  0.00     0.037 A 
HETATM   35  C   UNL     1       8.388  22.042  54.393  1.00  0.00     0.068 A 
HETATM   36  C   UNL     1       7.936  22.528  53.168  1.00  0.00     0.037 A 
HETATM   37  C   UNL     1       7.038  23.602  53.123  1.00  0.00     0.011 A 
BRANCH  35  38
HETATM   38  O   UNL     1       9.252  20.997  54.572  1.00  0.00    -0.356 OA
HETATM   39  C   UNL     1       9.345  20.469  55.890  1.00  0.00     0.210 C 
ENDBRANCH  35  38
ENDBRANCH  21  32
ENDBRANCH   1  21
TORSDOF 7
ENDMDL
MODEL 4
REMARK VINA RESULT:      -9.2      2.034      3.043
REMARK  7 active torsions:
REMARK  status: ('A' for Active; 'I' for Inactive)
REMARK    1  A    between atoms: N_7  and  C_8 
REMARK    2  A    between atoms: C_8  and  C_9 
REMARK       I    between atoms: C_9  and  N_10 
REMARK    3  A    between atoms: N_10  and  C_11 
REMARK    4  A    between atoms: C_11  and  C_12 
REMARK    5  A    between atoms: C_12  and  C_13 
REMARK    6  A    between atoms: C_12  and  C_23 
REMARK    7  A    between atoms: C_26  and  O_27 
ROOT
HETATM    1  C   UNL     1       5.611  26.250  54.078  1.00  0.00     0.136 C 
ENDROOT
BRANCH   1   2
HETATM    2  N   UNL     1       5.433  27.362  53.158  1.00  0.00    -0.359 N 
HETATM    3  C   UNL     1       5.487  27.170  51.794  1.00  0.00     0.236 C 
HETATM    4  O   UNL     1       5.677  26.070  51.282  1.00  0.00    -0.272 OA
HETATM    5  H   UNL     1       5.189  28.284  53.526  1.00  0.00     0.162 HD
BRANCH   3   6
HETATM    6  C   UNL     1       5.324  28.440  50.967  1.00  0.00     0.239 C 
BRANCH   6   7
HETATM    7  N   UNL     1       3.958  28.573  50.512  1.00  0.00    -0.259 N 
HETATM    8  C   UNL     1       2.907  28.837  51.327  1.00  0.00     0.326 A 
HETATM    9  N   UNL     1       1.776  28.962  50.560  1.00  0.00    -0.324 N 
HETATM   10  O   UNL     1       2.931  28.930  52.543  1.00  0.00    -0.247 OA
HETATM   11  C   UNL     1       2.028  28.746  49.144  1.00  0.00     0.119 A 
HETATM   12  H   UNL     1       0.874  29.139  50.982  1.00  0.00     0.165 HD
HETATM   13  C   UNL     1       1.661  30.000  48.317  1.00  0.00     0.019 C 
HETATM   14  C   UNL     1       3.553  28.482  49.210  1.00  0.00     0.257 A 
HETATM   15  C   UNL     1       1.280  27.487  48.682  1.00  0.00     0.041 C 
HETATM   16  C   UNL     1       2.503  31.237  48.658  1.00  0.00     0.013 C 
HETATM   17  C   UNL     1       1.724  29.733  46.804  1.00  0.00     0.007 C 
HETATM   18  C   UNL     1       0.897  28.515  46.407  1.00  0.00     0.001 C 
HETATM   19  C   UNL     1       1.332  27.273  47.172  1.00  0.00     0.003 C 
HETATM   20  O   UNL     1       4.273  28.256  48.248  1.00  0.00    -0.270 OA
ENDBRANCH   6   7
ENDBRANCH   3   6
ENDBRANCH   1   2
BRANCH   1  21
HETATM   21  C   UNL     1       6.996  26.206  54.752  1.00  0.00     0.071 C 
BRANCH  21  22
HETATM   22  C   UNL     1       7.318  24.891  55.425  1.00  0.00    -0.020 A 
HETATM   23  C   UNL     1       7.552  23.634  54.764  1.00  0.00    -0.001 A 
HETATM   24  C   UNL     1       7.827  22.683  55.747  1.00  0.00     0.042 A 
HETATM   25  C   UNL     1       7.565  23.219  53.416  1.00  0.00     0.014 A 
HETATM   26  C   UNL     1       8.119  21.346  55.453  1.00  0.00     0.030 A 
HETATM   27  N   UNL     1       7.751  23.324  56.961  1.00  0.00    -0.365 N 
HETATM   28  C   UNL     1       8.133  20.966  54.108  1.00  0.00     0.002 A 
HETATM   29  C   UNL     1       7.858  21.887  53.102  1.00  0.00     0.001 A 
HETATM   30  H   UNL     1       7.909  22.877  57.853  1.00  0.00     0.165 HD
HETATM   31  C   UNL     1       7.440  24.643  56.783  1.00  0.00     0.097 A 
ENDBRANCH  21  22
BRANCH  21  32
HETATM   32  C   UNL     1       7.202  27.263  55.830  1.00  0.00    -0.048 A 
HETATM   33  C   UNL     1       6.089  27.795  56.501  1.00  0.00     0.011 A 
HETATM   34  C   UNL     1       6.247  28.750  57.510  1.00  0.00     0.037 A 
HETATM   35  C   UNL     1       7.517  29.191  57.880  1.00  0.00     0.068 A 
HETATM   36  C   UNL     1       8.630  28.693  57.206  1.00  0.00     0.037 A 
HETATM   37  C   UNL     1       8.473  27.741  56.190  1.00  0.00     0.011 A 
BRANCH  35  38
HETATM   38  O   UNL     1       7.537  30.109  58.893  1.00  0.00    -0.356 OA
HETATM   39  C   UNL     1       8.808  30.647  59.238  1.00  0.00     0.210 C 
ENDBRANCH  35  38
ENDBRANCH  21  32
ENDBRANCH   1  21
TORSDOF 7
ENDMDL
MODEL 5
REMARK VINA RESULT:      -9.1      2.240      4.438
REMARK  7 active torsions:
REMARK  status: ('A' for Active; 'I' for Inactive)
REMARK    1  A    between atoms: N_7  and  C_8 
REMARK    2  A    between atoms: C_8  and  C_9 
REMARK       I    between atoms: C_9  and  N_10 
REMARK    3  A    between atoms: N_10  and  C_11 
REMARK    4  A    between atoms: C_11  and  C_12 
REMARK    5  A    between atoms: C_12  and  C_13 
REMARK    6  A    between atoms: C_12  and  C_23 
REMARK    7  A    between atoms: C_26  and  O_27 
ROOT
HETATM    1  C   UNL     1       7.036  28.113  53.752  1.00  0.00     0.136 C 
ENDROOT
BRANCH   1   2
HETATM    2  N   UNL     1       6.050  28.969  53.111  1.00  0.00    -0.359 N 
HETATM    3  C   UNL     1       4.952  28.433  52.473  1.00  0.00     0.236 C 
HETATM    4  O   UNL     1       4.738  27.225  52.414  1.00  0.00    -0.272 OA
HETATM    5  H   UNL     1       6.133  29.984  53.200  1.00  0.00     0.162 HD
BRANCH   3   6
HETATM    6  C   UNL     1       4.036  29.459  51.816  1.00  0.00     0.239 C 
BRANCH   6   7
HETATM    7  N   UNL     1       3.968  29.234  50.390  1.00  0.00    -0.259 N 
HETATM    8  C   UNL     1       5.017  29.392  49.544  1.00  0.00     0.326 A 
HETATM    9  N   UNL     1       4.622  29.032  48.281  1.00  0.00    -0.324 N 
HETATM   10  O   UNL     1       6.129  29.806  49.829  1.00  0.00    -0.247 OA
HETATM   11  C   UNL     1       3.225  28.632  48.219  1.00  0.00     0.119 A 
HETATM   12  H   UNL     1       5.255  29.099  47.495  1.00  0.00     0.165 HD
HETATM   13  C   UNL     1       3.087  27.173  47.723  1.00  0.00     0.019 C 
HETATM   14  C   UNL     1       2.860  28.805  49.715  1.00  0.00     0.257 A 
HETATM   15  C   UNL     1       2.448  29.632  47.352  1.00  0.00     0.041 C 
HETATM   16  C   UNL     1       3.728  26.137  48.657  1.00  0.00     0.013 C 
HETATM   17  C   UNL     1       1.622  26.790  47.455  1.00  0.00     0.007 C 
HETATM   18  C   UNL     1       0.936  27.785  46.526  1.00  0.00     0.001 C 
HETATM   19  C   UNL     1       1.010  29.203  47.075  1.00  0.00     0.003 C 
HETATM   20  O   UNL     1       1.765  28.573  50.206  1.00  0.00    -0.270 OA
ENDBRANCH   6   7
ENDBRANCH   3   6
ENDBRANCH   1   2
BRANCH   1  21
HETATM   21  C   UNL     1       6.588  27.549  55.115  1.00  0.00     0.071 C 
BRANCH  21  22
HETATM   22  C   UNL     1       6.942  28.424  56.295  1.00  0.00    -0.020 A 
HETATM   23  C   UNL     1       8.217  29.048  56.538  1.00  0.00    -0.001 A 
HETATM   24  C   UNL     1       8.114  29.776  57.723  1.00  0.00     0.042 A 
HETATM   25  C   UNL     1       9.449  29.067  55.850  1.00  0.00     0.014 A 
HETATM   26  C   UNL     1       9.172  30.524  58.252  1.00  0.00     0.030 A 
HETATM   27  N   UNL     1       6.836  29.596  58.197  1.00  0.00    -0.365 N 
HETATM   28  C   UNL     1      10.378  30.531  57.545  1.00  0.00     0.002 A 
HETATM   29  C   UNL     1      10.518  29.812  56.362  1.00  0.00     0.001 A 
HETATM   30  H   UNL     1       6.478  30.013  59.045  1.00  0.00     0.165 HD
HETATM   31  C   UNL     1       6.127  28.785  57.356  1.00  0.00     0.097 A 
ENDBRANCH  21  22
BRANCH  21  32
HETATM   32  C   UNL     1       7.171  26.180  55.448  1.00  0.00    -0.048 A 
HETATM   33  C   UNL     1       7.391  25.251  54.418  1.00  0.00     0.011 A 
HETATM   34  C   UNL     1       7.946  23.997  54.690  1.00  0.00     0.037 A 
HETATM   35  C   UNL     1       8.300  23.641  55.990  1.00  0.00     0.068 A 
HETATM   36  C   UNL     1       8.063  24.541  57.026  1.00  0.00     0.037 A 
HETATM   37  C   UNL     1       7.502  25.796  56.758  1.00  0.00     0.011 A 
BRANCH  35  38
HETATM   38  O   UNL     1       8.851  22.396  56.118  1.00  0.00    -0.356 OA
HETATM   39  C   UNL     1       8.183  21.334  55.449  1.00  0.00     0.210 C 
ENDBRANCH  35  38
ENDBRANCH  21  32
ENDBRANCH   1  21
TORSDOF 7
ENDMDL
MODEL 6
REMARK VINA RESULT:      -9.1      1.285      2.157
REMARK  7 active torsions:
REMARK  status: ('A' for Active; 'I' for Inactive)
REMARK    1  A    between atoms: N_7  and  C_8 
REMARK    2  A    between atoms: C_8  and  C_9 
REMARK       I    between atoms: C_9  and  N_10 
REMARK    3  A    between atoms: N_10  and  C_11 
REMARK    4  A    between atoms: C_11  and  C_12 
REMARK    5  A    between atoms: C_12  and  C_13 
REMARK    6  A    between atoms: C_12  and  C_23 
REMARK    7  A    between atoms: C_26  and  O_27 
ROOT
HETATM    1  C   UNL     1       5.137  28.921  54.493  1.00  0.00     0.136 C 
ENDROOT
BRANCH   1   2
HETATM    2  N   UNL     1       5.089  29.721  53.279  1.00  0.00    -0.359 N 
HETATM    3  C   UNL     1       4.043  30.588  53.042  1.00  0.00     0.236 C 
HETATM    4  O   UNL     1       3.112  30.741  53.828  1.00  0.00    -0.272 OA
HETATM    5  H   UNL     1       5.878  29.696  52.630  1.00  0.00     0.162 HD
BRANCH   3   6
HETATM    6  C   UNL     1       4.118  31.321  51.708  1.00  0.00     0.239 C 
BRANCH   6   7
HETATM    7  N   UNL     1       3.660  30.466  50.636  1.00  0.00    -0.259 N 
HETATM    8  C   UNL     1       2.431  30.551  50.068  1.00  0.00     0.326 A 
HETATM    9  N   UNL     1       2.356  29.641  49.044  1.00  0.00    -0.324 N 
HETATM   10  O   UNL     1       1.520  31.289  50.406  1.00  0.00    -0.247 OA
HETATM   11  C   UNL     1       3.570  28.854  48.900  1.00  0.00     0.119 A 
HETATM   12  H   UNL     1       1.508  29.530  48.504  1.00  0.00     0.165 HD
HETATM   13  C   UNL     1       4.196  29.051  47.499  1.00  0.00     0.019 C 
HETATM   14  C   UNL     1       4.406  29.490  50.038  1.00  0.00     0.257 A 
HETATM   15  C   UNL     1       3.261  27.382  49.212  1.00  0.00     0.041 C 
HETATM   16  C   UNL     1       4.653  30.490  47.221  1.00  0.00     0.013 C 
HETATM   17  C   UNL     1       5.362  28.081  47.245  1.00  0.00     0.007 C 
HETATM   18  C   UNL     1       4.961  26.633  47.501  1.00  0.00     0.001 C 
HETATM   19  C   UNL     1       4.426  26.443  48.914  1.00  0.00     0.003 C 
HETATM   20  O   UNL     1       5.552  29.181  50.331  1.00  0.00    -0.270 OA
ENDBRANCH   6   7
ENDBRANCH   3   6
ENDBRANCH   1   2
BRANCH   1  21
HETATM   21  C   UNL     1       6.521  28.310  54.790  1.00  0.00     0.071 C 
BRANCH  21  22
HETATM   22  C   UNL     1       6.505  26.815  55.012  1.00  0.00    -0.020 A 
HETATM   23  C   UNL     1       6.997  25.816  54.100  1.00  0.00    -0.001 A 
HETATM   24  C   UNL     1       6.806  24.569  54.696  1.00  0.00     0.042 A 
HETATM   25  C   UNL     1       7.597  25.860  52.825  1.00  0.00     0.014 A 
HETATM   26  C   UNL     1       7.188  23.368  54.086  1.00  0.00     0.030 A 
HETATM   27  N   UNL     1       6.210  24.790  55.914  1.00  0.00    -0.365 N 
HETATM   28  C   UNL     1       7.788  23.442  52.826  1.00  0.00     0.002 A 
HETATM   29  C   UNL     1       7.989  24.669  52.201  1.00  0.00     0.001 A 
HETATM   30  H   UNL     1       5.956  24.061  56.567  1.00  0.00     0.165 HD
HETATM   31  C   UNL     1       6.018  26.129  56.113  1.00  0.00     0.097 A 
ENDBRANCH  21  22
BRANCH  21  32
HETATM   32  C   UNL     1       7.208  28.887  56.023  1.00  0.00    -0.048 A 
HETATM   33  C   UNL     1       8.604  28.787  56.149  1.00  0.00     0.011 A 
HETATM   34  C   UNL     1       9.264  29.326  57.257  1.00  0.00     0.037 A 
HETATM   35  C   UNL     1       8.553  29.983  58.260  1.00  0.00     0.068 A 
HETATM   36  C   UNL     1       7.166  30.066  58.163  1.00  0.00     0.037 A 
HETATM   37  C   UNL     1       6.501  29.522  57.057  1.00  0.00     0.011 A 
BRANCH  35  38
HETATM   38  O   UNL     1       9.318  30.483  59.278  1.00  0.00    -0.356 OA
HETATM   39  C   UNL     1       9.873  31.777  59.079  1.00  0.00     0.210 C 
ENDBRANCH  35  38
ENDBRANCH  21  32
ENDBRANCH   1  21
TORSDOF 7
ENDMDL
MODEL 7
REMARK VINA RESULT:      -9.1      2.572      5.869
REMARK  7 active torsions:
REMARK  status: ('A' for Active; 'I' for Inactive)
REMARK    1  A    between atoms: N_7  and  C_8 
REMARK    2  A    between atoms: C_8  and  C_9 
REMARK       I    between atoms: C_9  and  N_10 
REMARK    3  A    between atoms: N_10  and  C_11 
REMARK    4  A    between atoms: C_11  and  C_12 
REMARK    5  A    between atoms: C_12  and  C_13 
REMARK    6  A    between atoms: C_12  and  C_23 
REMARK    7  A    between atoms: C_26  and  O_27 
ROOT
HETATM    1  C   UNL     1       6.090  26.001  51.616  1.00  0.00     0.136 C 
ENDROOT
BRANCH   1   2
HETATM    2  N   UNL     1       5.328  27.146  51.146  1.00  0.00    -0.359 N 
HETATM    3  C   UNL     1       4.613  27.088  49.968  1.00  0.00     0.236 C 
HETATM    4  O   UNL     1       4.571  26.083  49.262  1.00  0.00    -0.272 OA
HETATM    5  H   UNL     1       5.259  27.979  51.734  1.00  0.00     0.162 HD
BRANCH   3   6
HETATM    6  C   UNL     1       3.902  28.382  49.592  1.00  0.00     0.239 C 
BRANCH   6   7
HETATM    7  N   UNL     1       4.238  29.432  50.528  1.00  0.00    -0.259 N 
HETATM    8  C   UNL     1       5.401  30.131  50.501  1.00  0.00     0.326 A 
HETATM    9  N   UNL     1       5.361  31.088  51.482  1.00  0.00    -0.324 N 
HETATM   10  O   UNL     1       6.347  29.945  49.754  1.00  0.00    -0.247 OA
HETATM   11  C   UNL     1       4.134  31.048  52.261  1.00  0.00     0.119 A 
HETATM   12  H   UNL     1       6.146  31.705  51.644  1.00  0.00     0.165 HD
HETATM   13  C   UNL     1       3.364  32.385  52.154  1.00  0.00     0.019 C 
HETATM   14  C   UNL     1       3.427  29.877  51.533  1.00  0.00     0.257 A 
HETATM   15  C   UNL     1       4.464  30.665  53.710  1.00  0.00     0.041 C 
HETATM   16  C   UNL     1       2.890  32.717  50.733  1.00  0.00     0.013 C 
HETATM   17  C   UNL     1       2.172  32.445  53.123  1.00  0.00     0.007 C 
HETATM   18  C   UNL     1       2.588  32.128  54.555  1.00  0.00     0.001 C 
HETATM   19  C   UNL     1       3.268  30.770  54.652  1.00  0.00     0.003 C 
HETATM   20  O   UNL     1       2.316  29.444  51.804  1.00  0.00    -0.270 OA
ENDBRANCH   6   7
ENDBRANCH   3   6
ENDBRANCH   1   2
BRANCH   1  21
HETATM   21  C   UNL     1       6.104  25.840  53.149  1.00  0.00     0.071 C 
BRANCH  21  22
HETATM   22  C   UNL     1       6.732  26.998  53.890  1.00  0.00    -0.020 A 
HETATM   23  C   UNL     1       6.190  27.659  55.048  1.00  0.00    -0.001 A 
HETATM   24  C   UNL     1       7.087  28.660  55.423  1.00  0.00     0.042 A 
HETATM   25  C   UNL     1       5.022  27.489  55.820  1.00  0.00     0.014 A 
HETATM   26  C   UNL     1       6.880  29.493  56.529  1.00  0.00     0.030 A 
HETATM   27  N   UNL     1       8.128  28.626  54.526  1.00  0.00    -0.365 N 
HETATM   28  C   UNL     1       5.717  29.297  57.279  1.00  0.00     0.002 A 
HETATM   29  C   UNL     1       4.798  28.312  56.931  1.00  0.00     0.001 A 
HETATM   30  H   UNL     1       8.928  29.242  54.556  1.00  0.00     0.165 HD
HETATM   31  C   UNL     1       7.924  27.641  53.599  1.00  0.00     0.097 A 
ENDBRANCH  21  22
BRANCH  21  32
HETATM   32  C   UNL     1       6.848  24.604  53.642  1.00  0.00    -0.048 A 
HETATM   33  C   UNL     1       6.712  24.200  54.980  1.00  0.00     0.011 A 
HETATM   34  C   UNL     1       7.364  23.059  55.456  1.00  0.00     0.037 A 
HETATM   35  C   UNL     1       8.160  22.289  54.609  1.00  0.00     0.068 A 
HETATM   36  C   UNL     1       8.328  22.692  53.286  1.00  0.00     0.037 A 
HETATM   37  C   UNL     1       7.681  23.838  52.809  1.00  0.00     0.011 A 
BRANCH  35  38
HETATM   38  O   UNL     1       8.725  21.188  55.191  1.00  0.00    -0.356 OA
HETATM   39  C   UNL     1       8.035  20.634  56.305  1.00  0.00     0.210 C 
ENDBRANCH  35  38
ENDBRANCH  21  32
ENDBRANCH   1  21
TORSDOF 7
ENDMDL
MODEL 8
REMARK VINA RESULT:      -8.9      2.461      7.369
REMARK  7 active torsions:
REMARK  status: ('A' for Active; 'I' for Inactive)
REMARK    1  A    between atoms: N_7  and  C_8 
REMARK    2  A    between atoms: C_8  and  C_9 
REMARK       I    between atoms: C_9  and  N_10 
REMARK    3  A    between atoms: N_10  and  C_11 
REMARK    4  A    between atoms: C_11  and  C_12 
REMARK    5  A    between atoms: C_12  and  C_13 
REMARK    6  A    between atoms: C_12  and  C_23 
REMARK    7  A    between atoms: C_26  and  O_27 
ROOT
HETATM    1  C   UNL     1       4.204  30.490  52.011  1.00  0.00     0.136 C 
ENDROOT
BRANCH   1   2
HETATM    2  N   UNL     1       4.201  29.342  52.904  1.00  0.00    -0.359 N 
HETATM    3  C   UNL     1       4.189  29.509  54.273  1.00  0.00     0.236 C 
HETATM    4  O   UNL     1       4.172  30.614  54.811  1.00  0.00    -0.272 OA
HETATM    5  H   UNL     1       4.131  28.401  52.512  1.00  0.00     0.162 HD
BRANCH   3   6
HETATM    6  C   UNL     1       4.230  28.211  55.071  1.00  0.00     0.239 C 
BRANCH   6   7
HETATM    7  N   UNL     1       5.504  27.552  54.894  1.00  0.00    -0.259 N 
HETATM    8  C   UNL     1       6.664  27.974  55.457  1.00  0.00     0.326 A 
HETATM    9  N   UNL     1       7.657  27.083  55.138  1.00  0.00    -0.324 N 
HETATM   10  O   UNL     1       6.828  28.984  56.120  1.00  0.00    -0.247 OA
HETATM   11  C   UNL     1       7.192  26.001  54.286  1.00  0.00     0.119 A 
HETATM   12  H   UNL     1       8.610  27.230  55.444  1.00  0.00     0.165 HD
HETATM   13  C   UNL     1       7.397  24.629  54.970  1.00  0.00     0.019 C 
HETATM   14  C   UNL     1       5.703  26.409  54.171  1.00  0.00     0.257 A 
HETATM   15  C   UNL     1       7.888  26.094  52.920  1.00  0.00     0.041 C 
HETATM   16  C   UNL     1       6.590  24.454  56.265  1.00  0.00     0.013 C 
HETATM   17  C   UNL     1       7.104  23.458  54.018  1.00  0.00     0.007 C 
HETATM   18  C   UNL     1       7.886  23.577  52.715  1.00  0.00     0.001 C 
HETATM   19  C   UNL     1       7.605  24.899  52.014  1.00  0.00     0.003 C 
HETATM   20  O   UNL     1       4.847  25.793  53.552  1.00  0.00    -0.270 OA
ENDBRANCH   6   7
ENDBRANCH   3   6
ENDBRANCH   1   2
BRANCH   1  21
HETATM   21  C   UNL     1       3.839  30.153  50.552  1.00  0.00     0.071 C 
BRANCH  21  22
HETATM   22  C   UNL     1       4.240  28.761  50.117  1.00  0.00    -0.020 A 
HETATM   23  C   UNL     1       3.471  27.880  49.278  1.00  0.00    -0.001 A 
HETATM   24  C   UNL     1       4.206  26.705  49.112  1.00  0.00     0.042 A 
HETATM   25  C   UNL     1       2.220  27.979  48.634  1.00  0.00     0.014 A 
HETATM   26  C   UNL     1       3.758  25.631  48.334  1.00  0.00     0.030 A 
HETATM   27  N   UNL     1       5.368  26.852  49.830  1.00  0.00    -0.365 N 
HETATM   28  C   UNL     1       2.518  25.760  47.702  1.00  0.00     0.002 A 
HETATM   29  C   UNL     1       1.757  26.915  47.850  1.00  0.00     0.001 A 
HETATM   30  H   UNL     1       6.095  26.153  49.888  1.00  0.00     0.165 HD
HETATM   31  C   UNL     1       5.398  28.074  50.442  1.00  0.00     0.097 A 
ENDBRANCH  21  22
BRANCH  21  32
HETATM   32  C   UNL     1       4.463  31.085  49.519  1.00  0.00    -0.048 A 
HETATM   33  C   UNL     1       5.702  31.688  49.789  1.00  0.00     0.011 A 
HETATM   34  C   UNL     1       6.310  32.529  48.852  1.00  0.00     0.037 A 
HETATM   35  C   UNL     1       5.702  32.783  47.623  1.00  0.00     0.068 A 
HETATM   36  C   UNL     1       4.461  32.214  47.351  1.00  0.00     0.037 A 
HETATM   37  C   UNL     1       3.847  31.376  48.291  1.00  0.00     0.011 A 
BRANCH  35  38
HETATM   38  O   UNL     1       6.409  33.605  46.789  1.00  0.00    -0.356 OA
HETATM   39  C   UNL     1       7.612  34.157  47.310  1.00  0.00     0.210 C 
ENDBRANCH  35  38
ENDBRANCH  21  32
ENDBRANCH   1  21
TORSDOF 7
ENDMDL
MODEL 9
REMARK VINA RESULT:      -8.7      1.776      3.403
REMARK  7 active torsions:
REMARK  status: ('A' for Active; 'I' for Inactive)
REMARK    1  A    between atoms: N_7  and  C_8 
REMARK    2  A    between atoms: C_8  and  C_9 
REMARK       I    between atoms: C_9  and  N_10 
REMARK    3  A    between atoms: N_10  and  C_11 
REMARK    4  A    between atoms: C_11  and  C_12 
REMARK    5  A    between atoms: C_12  and  C_13 
REMARK    6  A    between atoms: C_12  and  C_23 
REMARK    7  A    between atoms: C_26  and  O_27 
ROOT
HETATM    1  C   UNL     1       5.906  28.441  54.035  1.00  0.00     0.136 C 
ENDROOT
BRANCH   1   2
HETATM    2  N   UNL     1       5.875  28.564  52.586  1.00  0.00    -0.359 N 
HETATM    3  C   UNL     1       5.224  27.629  51.808  1.00  0.00     0.236 C 
HETATM    4  O   UNL     1       4.637  26.659  52.282  1.00  0.00    -0.272 OA
HETATM    5  H   UNL     1       6.275  29.394  52.144  1.00  0.00     0.162 HD
BRANCH   3   6
HETATM    6  C   UNL     1       5.318  27.876  50.308  1.00  0.00     0.239 C 
BRANCH   6   7
HETATM    7  N   UNL     1       4.668  29.120  49.960  1.00  0.00    -0.259 N 
HETATM    8  C   UNL     1       3.345  29.236  49.686  1.00  0.00     0.326 A 
HETATM    9  N   UNL     1       3.056  30.558  49.464  1.00  0.00    -0.324 N 
HETATM   10  O   UNL     1       2.531  28.330  49.619  1.00  0.00    -0.247 OA
HETATM   11  C   UNL     1       4.228  31.414  49.552  1.00  0.00     0.119 A 
HETATM   12  H   UNL     1       2.120  30.856  49.220  1.00  0.00     0.165 HD
HETATM   13  C   UNL     1       4.058  32.476  50.663  1.00  0.00     0.019 C 
HETATM   14  C   UNL     1       5.287  30.337  49.894  1.00  0.00     0.257 A 
HETATM   15  C   UNL     1       4.509  32.033  48.175  1.00  0.00     0.041 C 
HETATM   16  C   UNL     1       3.926  31.883  52.073  1.00  0.00     0.013 C 
HETATM   17  C   UNL     1       5.188  33.518  50.645  1.00  0.00     0.007 C 
HETATM   18  C   UNL     1       5.360  34.146  49.266  1.00  0.00     0.001 C 
HETATM   19  C   UNL     1       5.611  33.089  48.200  1.00  0.00     0.003 C 
HETATM   20  O   UNL     1       6.474  30.551  50.093  1.00  0.00    -0.270 OA
ENDBRANCH   6   7
ENDBRANCH   3   6
ENDBRANCH   1   2
BRANCH   1  21
HETATM   21  C   UNL     1       7.247  27.926  54.594  1.00  0.00     0.071 C 
BRANCH  21  22
HETATM   22  C   UNL     1       7.204  26.501  55.097  1.00  0.00    -0.020 A 
HETATM   23  C   UNL     1       7.429  25.316  54.312  1.00  0.00    -0.001 A 
HETATM   24  C   UNL     1       7.311  24.216  55.161  1.00  0.00     0.042 A 
HETATM   25  C   UNL     1       7.734  25.080  52.955  1.00  0.00     0.014 A 
HETATM   26  C   UNL     1       7.487  22.897  54.727  1.00  0.00     0.030 A 
HETATM   27  N   UNL     1       7.011  24.702  56.412  1.00  0.00    -0.365 N 
HETATM   28  C   UNL     1       7.795  22.693  53.380  1.00  0.00     0.002 A 
HETATM   29  C   UNL     1       7.916  23.767  52.503  1.00  0.00     0.001 A 
HETATM   30  H   UNL     1       6.872  24.125  57.230  1.00  0.00     0.165 HD
HETATM   31  C   UNL     1       6.937  26.067  56.386  1.00  0.00     0.097 A 
ENDBRANCH  21  22
BRANCH  21  32
HETATM   32  C   UNL     1       7.792  28.741  55.761  1.00  0.00    -0.048 A 
HETATM   33  C   UNL     1       6.906  29.458  56.581  1.00  0.00     0.011 A 
HETATM   34  C   UNL     1       7.374  30.196  57.672  1.00  0.00     0.037 A 
HETATM   35  C   UNL     1       8.734  30.233  57.975  1.00  0.00     0.068 A 
HETATM   36  C   UNL     1       9.630  29.550  57.155  1.00  0.00     0.037 A 
HETATM   37  C   UNL     1       9.163  28.815  56.058  1.00  0.00     0.011 A 
BRANCH  35  38
HETATM   38  O   UNL     1       9.060  30.973  59.078  1.00  0.00    -0.356 OA
HETATM   39  C   UNL     1       8.219  30.823  60.215  1.00  0.00     0.210 C 
ENDBRANCH  35  38
ENDBRANCH  21  32
ENDBRANCH   1  21
TORSDOF 7
ENDMDL
MODEL 10
REMARK VINA RESULT:      -8.7      2.201      4.555
REMARK  7 active torsions:
REMARK  status: ('A' for Active; 'I' for Inactive)
REMARK    1  A    between atoms: N_7  and  C_8 
REMARK    2  A    between atoms: C_8  and  C_9 
REMARK       I    between atoms: C_9  and  N_10 
REMARK    3  A    between atoms: N_10  and  C_11 
REMARK    4  A    between atoms: C_11  and  C_12 
REMARK    5  A    between atoms: C_12  and  C_13 
REMARK    6  A    between atoms: C_12  and  C_23 
REMARK    7  A    between atoms: C_26  and  O_27 
ROOT
HETATM    1  C   UNL     1       5.991  28.526  52.815  1.00  0.00     0.136 C 
ENDROOT
BRANCH   1   2
HETATM    2  N   UNL     1       4.849  29.185  52.201  1.00  0.00    -0.359 N 
HETATM    3  C   UNL     1       5.025  30.172  51.254  1.00  0.00     0.236 C 
HETATM    4  O   UNL     1       6.133  30.541  50.873  1.00  0.00    -0.272 OA
HETATM    5  H   UNL     1       3.905  28.860  52.419  1.00  0.00     0.162 HD
BRANCH   3   6
HETATM    6  C   UNL     1       3.733  30.793  50.738  1.00  0.00     0.239 C 
BRANCH   6   7
HETATM    7  N   UNL     1       3.422  30.286  49.420  1.00  0.00    -0.259 N 
HETATM    8  C   UNL     1       3.615  30.983  48.272  1.00  0.00     0.326 A 
HETATM    9  N   UNL     1       3.278  30.183  47.210  1.00  0.00    -0.324 N 
HETATM   10  O   UNL     1       4.000  32.136  48.174  1.00  0.00    -0.247 OA
HETATM   11  C   UNL     1       2.794  28.874  47.620  1.00  0.00     0.119 A 
HETATM   12  H   UNL     1       3.330  30.525  46.260  1.00  0.00     0.165 HD
HETATM   13  C   UNL     1       3.688  27.748  47.049  1.00  0.00     0.019 C 
HETATM   14  C   UNL     1       2.927  29.040  49.155  1.00  0.00     0.257 A 
HETATM   15  C   UNL     1       1.320  28.728  47.216  1.00  0.00     0.041 C 
HETATM   16  C   UNL     1       5.135  27.785  47.560  1.00  0.00     0.013 C 
HETATM   17  C   UNL     1       3.089  26.353  47.296  1.00  0.00     0.007 C 
HETATM   18  C   UNL     1       1.650  26.258  46.801  1.00  0.00     0.001 C 
HETATM   19  C   UNL     1       0.768  27.322  47.440  1.00  0.00     0.003 C 
HETATM   20  O   UNL     1       2.655  28.184  49.984  1.00  0.00    -0.270 OA
ENDBRANCH   6   7
ENDBRANCH   3   6
ENDBRANCH   1   2
BRANCH   1  21
HETATM   21  C   UNL     1       5.613  27.428  53.830  1.00  0.00     0.071 C 
BRANCH  21  22
HETATM   22  C   UNL     1       5.753  27.844  55.276  1.00  0.00    -0.020 A 
HETATM   23  C   UNL     1       6.936  28.381  55.894  1.00  0.00    -0.001 A 
HETATM   24  C   UNL     1       6.634  28.644  57.231  1.00  0.00     0.042 A 
HETATM   25  C   UNL     1       8.237  28.679  55.435  1.00  0.00     0.014 A 
HETATM   26  C   UNL     1       7.559  29.192  58.127  1.00  0.00     0.030 A 
HETATM   27  N   UNL     1       5.326  28.271  57.430  1.00  0.00    -0.365 N 
HETATM   28  C   UNL     1       8.838  29.483  57.643  1.00  0.00     0.002 A 
HETATM   29  C   UNL     1       9.175  29.229  56.317  1.00  0.00     0.001 A 
HETATM   30  H   UNL     1       4.837  28.353  58.310  1.00  0.00     0.165 HD
HETATM   31  C   UNL     1       4.790  27.784  56.270  1.00  0.00     0.097 A 
ENDBRANCH  21  22
BRANCH  21  32
HETATM   32  C   UNL     1       6.436  26.150  53.704  1.00  0.00    -0.048 A 
HETATM   33  C   UNL     1       6.340  25.163  54.699  1.00  0.00     0.011 A 
HETATM   34  C   UNL     1       7.064  23.972  54.600  1.00  0.00     0.037 A 
HETATM   35  C   UNL     1       7.894  23.732  53.506  1.00  0.00     0.068 A 
HETATM   36  C   UNL     1       8.021  24.712  52.525  1.00  0.00     0.037 A 
HETATM   37  C   UNL     1       7.301  25.909  52.625  1.00  0.00     0.011 A 
BRANCH  35  38
HETATM   38  O   UNL     1       8.530  22.521  53.518  1.00  0.00    -0.356 OA
HETATM   39  C   UNL     1       7.839  21.447  54.146  1.00  0.00     0.210 C 
ENDBRANCH  35  38
ENDBRANCH  21  32
ENDBRANCH   1  21
TORSDOF 7
ENDMDL
