MODEL 1
REMARK VINA RESULT:      -6.3      0.000      0.000
REMARK  2 active torsions:
REMARK  status: ('A' for Active; 'I' for Inactive)
REMARK    1  A    between atoms: N_7  and  C_9 
REMARK    2  A    between atoms: C_9  and  C_10 
ROOT
HETATM    1  C   UNL     1      10.619  30.564  57.142  1.00  0.00     0.136 A 
HETATM    2  N   UNL     1      10.301  30.047  55.909  1.00  0.00    -0.244 NA
HETATM    3  C   UNL     1       9.212  29.335  56.094  1.00  0.00     0.131 A 
HETATM    4  N   UNL     1       8.826  29.376  57.409  1.00  0.00    -0.341 N 
HETATM    5  C   UNL     1       7.703  28.644  57.953  1.00  0.00     0.157 C 
HETATM    6  C   UNL     1       6.738  28.185  56.855  1.00  0.00     0.256 C 
HETATM    7  N   UNL     1       7.501  27.567  55.692  1.00  0.00    -0.059 N 
HETATM    8  H   UNL     1       8.101  26.819  56.061  1.00  0.00     0.280 HD
HETATM    9  C   UNL     1       8.440  28.587  55.071  1.00  0.00     0.313 C 
HETATM   10  C   UNL     1       9.711  30.153  58.090  1.00  0.00     0.111 A 
ENDROOT
BRANCH   7  11
HETATM   11  C   UNL     1       6.623  26.938  54.642  1.00  0.00     0.274 C 
BRANCH  11  12
HETATM   12  C   UNL     1       7.067  25.560  54.271  1.00  0.00    -0.024 A 
HETATM   13  C   UNL     1       7.436  25.161  52.995  1.00  0.00     0.059 A 
HETATM   14  S   UNL     1       7.913  23.516  52.929  1.00  0.00    -0.094 SA
HETATM   15  C   UNL     1       7.603  23.312  54.578  1.00  0.00     0.051 A 
HETATM   16 BR   UNL     1       7.848  21.687  55.475  1.00  0.00    -0.043 Br
HETATM   17  C   UNL     1       7.157  24.457  55.191  1.00  0.00     0.036 A 
ENDBRANCH  11  12
ENDBRANCH   7  11
TORSDOF 2
ENDMDL
MODEL 2
REMARK VINA RESULT:      -6.3      2.044      2.843
REMARK  2 active torsions:
REMARK  status: ('A' for Active; 'I' for Inactive)
REMARK    1  A    between atoms: N_7  and  C_9 
REMARK    2  A    between atoms: C_9  and  C_10 
ROOT
HETATM    1  C   UNL     1       5.578  30.466  57.432  1.00  0.00     0.136 A 
HETATM    2  N   UNL     1       4.885  29.318  57.132  1.00  0.00    -0.244 NA
HETATM    3  C   UNL     1       5.780  28.356  57.122  1.00  0.00     0.131 A 
HETATM    4  N   UNL     1       7.026  28.855  57.401  1.00  0.00    -0.341 N 
HETATM    5  C   UNL     1       8.239  28.065  57.402  1.00  0.00     0.157 C 
HETATM    6  C   UNL     1       7.942  26.566  57.502  1.00  0.00     0.256 C 
HETATM    7  N   UNL     1       6.831  26.173  56.538  1.00  0.00    -0.059 N 
HETATM    8  H   UNL     1       7.097  26.485  55.595  1.00  0.00     0.280 HD
HETATM    9  C   UNL     1       5.547  26.912  56.876  1.00  0.00     0.313 C 
HETATM   10  C   UNL     1       6.916  30.196  57.601  1.00  0.00     0.111 A 
ENDROOT
BRANCH   7  11
HETATM   11  C   UNL     1       6.587  24.689  56.449  1.00  0.00     0.274 C 
BRANCH  11  12
HETATM   12  C   UNL     1       7.069  24.103  55.161  1.00  0.00    -0.024 A 
HETATM   13  C   UNL     1       7.303  24.823  53.999  1.00  0.00     0.059 A 
HETATM   14  S   UNL     1       7.872  23.841  52.715  1.00  0.00    -0.094 SA
HETATM   15  C   UNL     1       7.781  22.453  53.676  1.00  0.00     0.051 A 
HETATM   16 BR   UNL     1       8.237  20.746  53.058  1.00  0.00    -0.043 Br
HETATM   17  C   UNL     1       7.342  22.706  54.952  1.00  0.00     0.036 A 
ENDBRANCH  11  12
ENDBRANCH   7  11
TORSDOF 2
ENDMDL
MODEL 3
REMARK VINA RESULT:      -6.3      1.676      2.092
REMARK  2 active torsions:
REMARK  status: ('A' for Active; 'I' for Inactive)
REMARK    1  A    between atoms: N_7  and  C_9 
REMARK    2  A    between atoms: C_9  and  C_10 
ROOT
HETATM    1  C   UNL     1       8.817  29.745  57.912  1.00  0.00     0.136 A 
HETATM    2  N   UNL     1       9.149  28.860  56.916  1.00  0.00    -0.244 NA
HETATM    3  C   UNL     1       8.026  28.269  56.577  1.00  0.00     0.131 A 
HETATM    4  N   UNL     1       6.984  28.744  57.331  1.00  0.00    -0.341 N 
HETATM    5  C   UNL     1       5.626  28.252  57.249  1.00  0.00     0.157 C 
HETATM    6  C   UNL     1       5.379  27.478  55.950  1.00  0.00     0.256 C 
HETATM    7  N   UNL     1       6.514  26.500  55.683  1.00  0.00    -0.059 N 
HETATM    8  H   UNL     1       6.626  25.902  56.511  1.00  0.00     0.280 HD
HETATM    9  C   UNL     1       7.829  27.243  55.523  1.00  0.00     0.313 C 
HETATM   10  C   UNL     1       7.470  29.684  58.186  1.00  0.00     0.111 A 
ENDROOT
BRANCH   7  11
HETATM   11  C   UNL     1       6.273  25.580  54.515  1.00  0.00     0.274 C 
BRANCH  11  12
HETATM   12  C   UNL     1       6.893  24.233  54.706  1.00  0.00    -0.024 A 
HETATM   13  C   UNL     1       7.286  23.705  55.927  1.00  0.00     0.059 A 
HETATM   14  S   UNL     1       7.940  22.128  55.786  1.00  0.00    -0.094 SA
HETATM   15  C   UNL     1       7.741  22.146  54.107  1.00  0.00     0.051 A 
HETATM   16 BR   UNL     1       8.234  20.719  53.001  1.00  0.00    -0.043 Br
HETATM   17  C   UNL     1       7.181  23.309  53.641  1.00  0.00     0.036 A 
ENDBRANCH  11  12
ENDBRANCH   7  11
TORSDOF 2
ENDMDL
MODEL 4
REMARK VINA RESULT:      -6.2      2.129      2.771
REMARK  2 active torsions:
REMARK  status: ('A' for Active; 'I' for Inactive)
REMARK    1  A    between atoms: N_7  and  C_9 
REMARK    2  A    between atoms: C_9  and  C_10 
ROOT
HETATM    1  C   UNL     1       6.486  30.352  57.709  1.00  0.00     0.136 A 
HETATM    2  N   UNL     1       7.513  29.771  57.007  1.00  0.00    -0.244 NA
HETATM    3  C   UNL     1       6.955  28.839  56.268  1.00  0.00     0.131 A 
HETATM    4  N   UNL     1       5.601  28.803  56.480  1.00  0.00    -0.341 N 
HETATM    5  C   UNL     1       4.705  27.846  55.868  1.00  0.00     0.157 C 
HETATM    6  C   UNL     1       5.335  27.180  54.641  1.00  0.00     0.256 C 
HETATM    7  N   UNL     1       6.760  26.737  54.942  1.00  0.00    -0.059 N 
HETATM    8  H   UNL     1       6.742  26.140  55.779  1.00  0.00     0.280 HD
HETATM    9  C   UNL     1       7.624  27.934  55.301  1.00  0.00     0.313 C 
HETATM   10  C   UNL     1       5.285  29.759  57.395  1.00  0.00     0.111 A 
ENDROOT
BRANCH   7  11
HETATM   11  C   UNL     1       7.399  25.925  53.846  1.00  0.00     0.274 C 
BRANCH  11  12
HETATM   12  C   UNL     1       7.574  24.489  54.222  1.00  0.00    -0.024 A 
HETATM   13  C   UNL     1       7.555  23.999  55.520  1.00  0.00     0.059 A 
HETATM   14  S   UNL     1       7.765  22.300  55.589  1.00  0.00    -0.094 SA
HETATM   15  C   UNL     1       7.918  22.204  53.908  1.00  0.00     0.051 A 
HETATM   16 BR   UNL     1       8.211  20.597  52.995  1.00  0.00    -0.043 Br
HETATM   17  C   UNL     1       7.804  23.422  53.284  1.00  0.00     0.036 A 
ENDBRANCH  11  12
ENDBRANCH   7  11
TORSDOF 2
ENDMDL
MODEL 5
REMARK VINA RESULT:      -6.2      3.159      4.571
REMARK  2 active torsions:
REMARK  status: ('A' for Active; 'I' for Inactive)
REMARK    1  A    between atoms: N_7  and  C_9 
REMARK    2  A    between atoms: C_9  and  C_10 
ROOT
HETATM    1  C   UNL     1       4.617  27.948  52.152  1.00  0.00     0.136 A 
HETATM    2  N   UNL     1       4.366  26.857  52.949  1.00  0.00    -0.244 NA
HETATM    3  C   UNL     1       5.417  26.738  53.729  1.00  0.00     0.131 A 
HETATM    4  N   UNL     1       6.336  27.717  53.452  1.00  0.00    -0.341 N 
HETATM    5  C   UNL     1       7.630  27.826  54.090  1.00  0.00     0.157 C 
HETATM    6  C   UNL     1       7.689  27.026  55.395  1.00  0.00     0.256 C 
HETATM    7  N   UNL     1       7.099  25.636  55.202  1.00  0.00    -0.059 N 
HETATM    8  H   UNL     1       7.583  25.187  54.414  1.00  0.00     0.280 HD
HETATM    9  C   UNL     1       5.638  25.731  54.796  1.00  0.00     0.313 C 
HETATM   10  C   UNL     1       5.843  28.496  52.451  1.00  0.00     0.111 A 
ENDROOT
BRANCH   7  11
HETATM   11  C   UNL     1       7.267  24.724  56.389  1.00  0.00     0.274 C 
BRANCH  11  12
HETATM   12  C   UNL     1       7.737  23.359  56.002  1.00  0.00    -0.024 A 
HETATM   13  C   UNL     1       8.281  22.429  56.875  1.00  0.00     0.059 A 
HETATM   14  S   UNL     1       8.693  20.956  56.101  1.00  0.00    -0.094 SA
HETATM   15  C   UNL     1       8.186  21.550  54.601  1.00  0.00     0.051 A 
HETATM   16 BR   UNL     1       8.278  20.554  53.019  1.00  0.00    -0.043 Br
HETATM   17  C   UNL     1       7.700  22.832  54.663  1.00  0.00     0.036 A 
ENDBRANCH  11  12
ENDBRANCH   7  11
TORSDOF 2
ENDMDL
MODEL 6
REMARK VINA RESULT:      -6.1      3.649      6.454
REMARK  2 active torsions:
REMARK  status: ('A' for Active; 'I' for Inactive)
REMARK    1  A    between atoms: N_7  and  C_9 
REMARK    2  A    between atoms: C_9  and  C_10 
ROOT
HETATM    1  C   UNL     1       8.053  21.611  54.322  1.00  0.00     0.136 A 
HETATM    2  N   UNL     1       7.571  22.109  55.507  1.00  0.00    -0.244 NA
HETATM    3  C   UNL     1       7.348  23.386  55.292  1.00  0.00     0.131 A 
HETATM    4  N   UNL     1       7.679  23.722  54.004  1.00  0.00    -0.341 N 
HETATM    5  C   UNL     1       7.612  25.065  53.469  1.00  0.00     0.157 C 
HETATM    6  C   UNL     1       6.728  25.976  54.326  1.00  0.00     0.256 C 
HETATM    7  N   UNL     1       7.056  25.808  55.803  1.00  0.00    -0.059 N 
HETATM    8  H   UNL     1       8.064  25.964  55.930  1.00  0.00     0.280 HD
HETATM    9  C   UNL     1       6.795  24.378  56.246  1.00  0.00     0.313 C 
HETATM   10  C   UNL     1       8.130  22.605  53.373  1.00  0.00     0.111 A 
ENDROOT
BRANCH   7  11
HETATM   11  C   UNL     1       6.351  26.786  56.707  1.00  0.00     0.274 C 
BRANCH  11  12
HETATM   12  C   UNL     1       7.215  27.945  57.085  1.00  0.00    -0.024 A 
HETATM   13  C   UNL     1       6.782  29.068  57.774  1.00  0.00     0.059 A 
HETATM   14  S   UNL     1       8.041  30.195  58.061  1.00  0.00    -0.094 SA
HETATM   15  C   UNL     1       9.159  29.223  57.245  1.00  0.00     0.051 A 
HETATM   16 BR   UNL     1      10.957  29.693  57.023  1.00  0.00    -0.043 Br
HETATM   17  C   UNL     1       8.614  28.057  56.767  1.00  0.00     0.036 A 
ENDBRANCH  11  12
ENDBRANCH   7  11
TORSDOF 2
ENDMDL
MODEL 7
REMARK VINA RESULT:      -5.9      3.825      6.589
REMARK  2 active torsions:
REMARK  status: ('A' for Active; 'I' for Inactive)
REMARK    1  A    between atoms: N_7  and  C_9 
REMARK    2  A    between atoms: C_9  and  C_10 
ROOT
HETATM    1  C   UNL     1       7.984  20.512  53.611  1.00  0.00     0.136 A 
HETATM    2  N   UNL     1       7.934  21.653  52.848  1.00  0.00    -0.244 NA
HETATM    3  C   UNL     1       7.875  22.649  53.703  1.00  0.00     0.131 A 
HETATM    4  N   UNL     1       7.879  22.179  54.991  1.00  0.00    -0.341 N 
HETATM    5  C   UNL     1       7.758  23.016  56.165  1.00  0.00     0.157 C 
HETATM    6  C   UNL     1       8.069  24.483  55.852  1.00  0.00     0.256 C 
HETATM    7  N   UNL     1       7.359  24.924  54.580  1.00  0.00    -0.059 N 
HETATM    8  H   UNL     1       6.356  24.723  54.684  1.00  0.00     0.280 HD
HETATM    9  C   UNL     1       7.831  24.099  53.395  1.00  0.00     0.313 C 
HETATM   10  C   UNL     1       7.948  20.821  54.951  1.00  0.00     0.111 A 
ENDROOT
BRANCH   7  11
HETATM   11  C   UNL     1       7.476  26.398  54.288  1.00  0.00     0.274 C 
BRANCH  11  12
HETATM   12  C   UNL     1       7.027  27.248  55.432  1.00  0.00    -0.024 A 
HETATM   13  C   UNL     1       5.709  27.416  55.829  1.00  0.00     0.059 A 
HETATM   14  S   UNL     1       5.554  28.441  57.193  1.00  0.00    -0.094 SA
HETATM   15  C   UNL     1       7.224  28.697  57.248  1.00  0.00     0.051 A 
HETATM   16 BR   UNL     1       8.054  29.793  58.520  1.00  0.00    -0.043 Br
HETATM   17  C   UNL     1       7.908  28.020  56.269  1.00  0.00     0.036 A 
ENDBRANCH  11  12
ENDBRANCH   7  11
TORSDOF 2
ENDMDL
MODEL 8
REMARK VINA RESULT:      -5.8      1.512      2.150
REMARK  2 active torsions:
REMARK  status: ('A' for Active; 'I' for Inactive)
REMARK    1  A    between atoms: N_7  and  C_9 
REMARK    2  A    between atoms: C_9  and  C_10 
ROOT
HETATM    1  C   UNL     1       8.483  31.667  59.172  1.00  0.00     0.136 A 
HETATM    2  N   UNL     1       7.282  31.054  58.909  1.00  0.00    -0.244 NA
HETATM    3  C   UNL     1       7.573  29.998  58.183  1.00  0.00     0.131 A 
HETATM    4  N   UNL     1       8.924  29.920  57.968  1.00  0.00    -0.341 N 
HETATM    5  C   UNL     1       9.563  28.910  57.151  1.00  0.00     0.157 C 
HETATM    6  C   UNL     1       8.650  27.701  56.924  1.00  0.00     0.256 C 
HETATM    7  N   UNL     1       7.247  28.152  56.541  1.00  0.00    -0.059 N 
HETATM    8  H   UNL     1       7.320  28.780  55.730  1.00  0.00     0.280 HD
HETATM    9  C   UNL     1       6.632  28.979  57.657  1.00  0.00     0.313 C 
HETATM   10  C   UNL     1       9.519  30.974  58.590  1.00  0.00     0.111 A 
ENDROOT
BRANCH   7  11
HETATM   11  C   UNL     1       6.327  27.029  56.137  1.00  0.00     0.274 C 
BRANCH  11  12
HETATM   12  C   UNL     1       6.868  26.224  55.000  1.00  0.00    -0.024 A 
HETATM   13  C   UNL     1       7.149  26.721  53.737  1.00  0.00     0.059 A 
HETATM   14  S   UNL     1       7.779  25.528  52.680  1.00  0.00    -0.094 SA
HETATM   15  C   UNL     1       7.653  24.338  53.875  1.00  0.00     0.051 A 
HETATM   16 BR   UNL     1       8.145  22.553  53.602  1.00  0.00    -0.043 Br
HETATM   17  C   UNL     1       7.157  24.815  55.063  1.00  0.00     0.036 A 
ENDBRANCH  11  12
ENDBRANCH   7  11
TORSDOF 2
ENDMDL
MODEL 9
REMARK VINA RESULT:      -5.8      6.113      8.486
REMARK  2 active torsions:
REMARK  status: ('A' for Active; 'I' for Inactive)
REMARK    1  A    between atoms: N_7  and  C_9 
REMARK    2  A    between atoms: C_9  and  C_10 
ROOT
HETATM    1  C   UNL     1       0.720  28.169  47.204  1.00  0.00     0.136 A 
HETATM    2  N   UNL     1       1.391  28.894  48.159  1.00  0.00    -0.244 NA
HETATM    3  C   UNL     1       2.381  28.127  48.556  1.00  0.00     0.131 A 
HETATM    4  N   UNL     1       2.361  26.930  47.887  1.00  0.00    -0.341 N 
HETATM    5  C   UNL     1       3.279  25.839  48.138  1.00  0.00     0.157 C 
HETATM    6  C   UNL     1       4.527  26.309  48.892  1.00  0.00     0.256 C 
HETATM    7  N   UNL     1       4.144  27.208  50.059  1.00  0.00    -0.059 N 
HETATM    8  H   UNL     1       3.466  26.705  50.645  1.00  0.00     0.280 HD
HETATM    9  C   UNL     1       3.425  28.449  49.560  1.00  0.00     0.313 C 
HETATM   10  C   UNL     1       1.310  26.940  47.023  1.00  0.00     0.111 A 
ENDROOT
BRANCH   7  11
HETATM   11  C   UNL     1       5.297  27.581  50.954  1.00  0.00     0.274 C 
BRANCH  11  12
HETATM   12  C   UNL     1       5.609  26.521  51.961  1.00  0.00    -0.024 A 
HETATM   13  C   UNL     1       4.988  26.389  53.194  1.00  0.00     0.059 A 
HETATM   14  S   UNL     1       5.573  25.050  54.090  1.00  0.00    -0.094 SA
HETATM   15  C   UNL     1       6.675  24.657  52.869  1.00  0.00     0.051 A 
HETATM   16 BR   UNL     1       7.858  23.211  52.982  1.00  0.00    -0.043 Br
HETATM   17  C   UNL     1       6.611  25.502  51.789  1.00  0.00     0.036 A 
ENDBRANCH  11  12
ENDBRANCH   7  11
TORSDOF 2
ENDMDL
MODEL 10
REMARK VINA RESULT:      -5.5      4.296      6.402
REMARK  2 active torsions:
REMARK  status: ('A' for Active; 'I' for Inactive)
REMARK    1  A    between atoms: N_7  and  C_9 
REMARK    2  A    between atoms: C_9  and  C_10 
ROOT
HETATM    1  C   UNL     1       4.677  27.590  52.307  1.00  0.00     0.136 A 
HETATM    2  N   UNL     1       5.924  27.293  52.800  1.00  0.00    -0.244 NA
HETATM    3  C   UNL     1       5.869  27.553  54.086  1.00  0.00     0.131 A 
HETATM    4  N   UNL     1       4.625  28.013  54.432  1.00  0.00    -0.341 N 
HETATM    5  C   UNL     1       4.257  28.450  55.762  1.00  0.00     0.157 C 
HETATM    6  C   UNL     1       5.237  27.936  56.821  1.00  0.00     0.256 C 
HETATM    7  N   UNL     1       6.675  28.146  56.369  1.00  0.00    -0.059 N 
HETATM    8  H   UNL     1       6.798  29.139  56.132  1.00  0.00     0.280 HD
HETATM    9  C   UNL     1       6.948  27.375  55.089  1.00  0.00     0.313 C 
HETATM   10  C   UNL     1       3.853  28.043  53.312  1.00  0.00     0.111 A 
ENDROOT
BRANCH   7  11
HETATM   11  C   UNL     1       7.706  27.822  57.420  1.00  0.00     0.274 C 
BRANCH  11  12
HETATM   12  C   UNL     1       8.535  29.008  57.796  1.00  0.00    -0.024 A 
HETATM   13  C   UNL     1       9.665  29.435  57.117  1.00  0.00     0.059 A 
HETATM   14  S   UNL     1      10.361  30.841  57.806  1.00  0.00    -0.094 SA
HETATM   15  C   UNL     1       9.192  30.875  59.028  1.00  0.00     0.051 A 
HETATM   16 BR   UNL     1       9.154  32.173  60.376  1.00  0.00    -0.043 Br
HETATM   17  C   UNL     1       8.276  29.858  58.928  1.00  0.00     0.036 A 
ENDBRANCH  11  12
ENDBRANCH   7  11
TORSDOF 2
ENDMDL
