MODEL 1
REMARK VINA RESULT:     -10.4      0.000      0.000
REMARK  7 active torsions:
REMARK  status: ('A' for Active; 'I' for Inactive)
REMARK    1  A    between atoms: C_2  and  C_3 
REMARK    2  A    between atoms: C_4  and  N_5 
REMARK       I    between atoms: N_5  and  C_6 
REMARK    3  A    between atoms: C_6  and  C_7 
REMARK    4  A    between atoms: C_8  and  N_9 
REMARK       I    between atoms: N_9  and  C_10 
REMARK    5  A    between atoms: C_10  and  C_11 
REMARK    6  A    between atoms: C_11  and  N_12 
REMARK    7  A    between atoms: C_25  and  C_26 
ROOT
HETATM    1  C   UNL     1       6.411  26.588  52.600  1.00  0.00     0.073 A 
HETATM    2  C   UNL     1       6.512  27.725  53.384  1.00  0.00     0.093 A 
HETATM    3  S   UNL     1       5.539  29.011  52.861  1.00  0.00    -0.075 SA
HETATM    4  C   UNL     1       4.874  28.068  51.616  1.00  0.00    -0.008 A 
HETATM    5  C   UNL     1       5.420  26.799  51.556  1.00  0.00    -0.026 A 
HETATM    6  C   UNL     1       5.030  25.855  50.455  1.00  0.00     0.041 C 
HETATM    7  C   UNL     1       4.420  26.598  49.253  1.00  0.00     0.010 C 
HETATM    8  C   UNL     1       3.305  27.589  49.684  1.00  0.00    -0.002 C 
HETATM    9  C   UNL     1       3.887  28.657  50.650  1.00  0.00     0.052 C 
ENDROOT
BRANCH   1  10
HETATM   10  C   UNL     1       7.308  25.429  52.748  1.00  0.00     0.259 C 
HETATM   11  N   UNL     1       6.843  24.479  53.635  1.00  0.00    -0.322 N 
HETATM   12  H   UNL     1       6.047  24.760  54.190  1.00  0.00     0.169 HD
HETATM   13  O   UNL     1       8.371  25.386  52.132  1.00  0.00    -0.267 OA
BRANCH  11  14
HETATM   14  C   UNL     1       7.401  23.211  53.927  1.00  0.00     0.041 A 
HETATM   15  C   UNL     1       7.716  22.884  55.266  1.00  0.00    -0.032 A 
HETATM   16  C   UNL     1       8.282  21.625  55.551  1.00  0.00     0.009 A 
HETATM   17  C   UNL     1       8.510  20.693  54.542  1.00  0.00     0.001 A 
HETATM   18  C   UNL     1       8.175  21.004  53.232  1.00  0.00     0.002 A 
HETATM   19  C   UNL     1       7.624  22.252  52.929  1.00  0.00     0.030 A 
BRANCH  15  20
HETATM   20  C   UNL     1       7.502  23.824  56.433  1.00  0.00     0.036 C 
HETATM   21  C   UNL     1       8.782  24.062  57.220  1.00  0.00     0.010 C 
ENDBRANCH  15  20
ENDBRANCH  11  14
ENDBRANCH   1  10
BRANCH   2  22
HETATM   22  N   UNL     1       7.283  28.066  54.473  1.00  0.00    -0.319 N 
HETATM   23  C   UNL     1       6.993  27.621  55.742  1.00  0.00     0.248 C 
HETATM   24  O   UNL     1       5.889  27.261  56.153  1.00  0.00    -0.271 OA
HETATM   25  H   UNL     1       7.941  28.823  54.324  1.00  0.00     0.169 HD
BRANCH  23  26
HETATM   26  C   UNL     1       8.188  27.632  56.690  1.00  0.00     0.337 C 
BRANCH  26  27
HETATM   27  N   UNL     1       8.618  29.053  57.039  1.00  0.00    -0.059 N 
HETATM   28  H   UNL     1       8.192  29.650  56.312  1.00  0.00     0.280 HD
HETATM   29  C   UNL     1       8.020  29.537  58.362  1.00  0.00     0.261 C 
HETATM   30  C   UNL     1       8.491  30.970  58.636  1.00  0.00     0.195 C 
HETATM   31  O   UNL     1       9.923  31.048  58.646  1.00  0.00    -0.388 OA
HETATM   32  C   UNL     1      10.480  30.673  57.382  1.00  0.00     0.195 C 
HETATM   33  C   UNL     1      10.122  29.227  57.033  1.00  0.00     0.261 C 
ENDBRANCH  26  27
ENDBRANCH  23  26
ENDBRANCH   2  22
BRANCH   8  34
HETATM   34  C   UNL     1       2.518  28.222  48.473  1.00  0.00    -0.047 C 
HETATM   35  C   UNL     1       1.662  29.411  48.959  1.00  0.00     0.015 C 
HETATM   36  C   UNL     1       3.501  28.769  47.415  1.00  0.00     0.015 C 
HETATM   37  C   UNL     1       1.582  27.211  47.782  1.00  0.00     0.015 C 
ENDBRANCH   8  34
TORSDOF 7
ENDMDL
MODEL 2
REMARK VINA RESULT:     -10.4      2.500      8.450
REMARK  7 active torsions:
REMARK  status: ('A' for Active; 'I' for Inactive)
REMARK    1  A    between atoms: C_2  and  C_3 
REMARK    2  A    between atoms: C_4  and  N_5 
REMARK       I    between atoms: N_5  and  C_6 
REMARK    3  A    between atoms: C_6  and  C_7 
REMARK    4  A    between atoms: C_8  and  N_9 
REMARK       I    between atoms: N_9  and  C_10 
REMARK    5  A    between atoms: C_10  and  C_11 
REMARK    6  A    between atoms: C_11  and  N_12 
REMARK    7  A    between atoms: C_25  and  C_26 
ROOT
HETATM    1  C   UNL     1       5.252  26.604  54.554  1.00  0.00     0.073 A 
HETATM    2  C   UNL     1       4.769  26.660  53.257  1.00  0.00     0.093 A 
HETATM    3  S   UNL     1       5.234  25.346  52.290  1.00  0.00    -0.075 SA
HETATM    4  C   UNL     1       6.026  24.602  53.596  1.00  0.00    -0.008 A 
HETATM    5  C   UNL     1       5.988  25.364  54.748  1.00  0.00    -0.026 A 
HETATM    6  C   UNL     1       6.723  24.916  55.979  1.00  0.00     0.041 C 
HETATM    7  C   UNL     1       7.822  23.890  55.649  1.00  0.00     0.010 C 
HETATM    8  C   UNL     1       7.294  22.737  54.752  1.00  0.00    -0.002 C 
HETATM    9  C   UNL     1       6.764  23.308  53.408  1.00  0.00     0.052 C 
ENDROOT
BRANCH   1  10
HETATM   10  C   UNL     1       5.142  27.726  55.500  1.00  0.00     0.259 C 
HETATM   11  N   UNL     1       6.343  28.081  56.081  1.00  0.00    -0.322 N 
HETATM   12  H   UNL     1       7.106  27.438  55.921  1.00  0.00     0.169 HD
HETATM   13  O   UNL     1       4.047  28.238  55.729  1.00  0.00    -0.267 OA
BRANCH  11  14
HETATM   14  C   UNL     1       6.606  29.171  56.944  1.00  0.00     0.041 A 
HETATM   15  C   UNL     1       7.922  29.379  57.418  1.00  0.00    -0.032 A 
HETATM   16  C   UNL     1       8.178  30.460  58.287  1.00  0.00     0.009 A 
HETATM   17  C   UNL     1       7.163  31.337  58.662  1.00  0.00     0.001 A 
HETATM   18  C   UNL     1       5.878  31.149  58.175  1.00  0.00     0.002 A 
HETATM   19  C   UNL     1       5.603  30.076  57.323  1.00  0.00     0.030 A 
BRANCH  15  20
HETATM   20  C   UNL     1       9.093  28.487  57.064  1.00  0.00     0.036 C 
HETATM   21  C   UNL     1      10.381  29.276  56.885  1.00  0.00     0.010 C 
ENDBRANCH  15  20
ENDBRANCH  11  14
ENDBRANCH   1  10
BRANCH   2  22
HETATM   22  N   UNL     1       4.036  27.589  52.553  1.00  0.00    -0.319 N 
HETATM   23  C   UNL     1       4.625  28.480  51.685  1.00  0.00     0.248 C 
HETATM   24  O   UNL     1       5.796  28.861  51.716  1.00  0.00    -0.271 OA
HETATM   25  H   UNL     1       3.080  27.720  52.864  1.00  0.00     0.169 HD
BRANCH  23  26
HETATM   26  C   UNL     1       3.673  29.036  50.630  1.00  0.00     0.337 C 
BRANCH  26  27
HETATM   27  N   UNL     1       3.013  27.923  49.824  1.00  0.00    -0.059 N 
HETATM   28  H   UNL     1       2.548  27.322  50.524  1.00  0.00     0.280 HD
HETATM   29  C   UNL     1       1.888  28.440  48.924  1.00  0.00     0.261 C 
HETATM   30  C   UNL     1       1.272  27.263  48.157  1.00  0.00     0.195 C 
HETATM   31  O   UNL     1       2.270  26.563  47.403  1.00  0.00    -0.388 OA
HETATM   32  C   UNL     1       3.280  26.008  48.252  1.00  0.00     0.195 C 
HETATM   33  C   UNL     1       4.009  27.109  49.027  1.00  0.00     0.261 C 
ENDBRANCH  26  27
ENDBRANCH  23  26
ENDBRANCH   2  22
BRANCH   8  34
HETATM   34  C   UNL     1       8.328  21.564  54.555  1.00  0.00    -0.047 C 
HETATM   35  C   UNL     1       9.770  22.097  54.699  1.00  0.00     0.015 C 
HETATM   36  C   UNL     1       8.130  20.481  55.638  1.00  0.00     0.015 C 
HETATM   37  C   UNL     1       8.204  20.891  53.174  1.00  0.00     0.015 C 
ENDBRANCH   8  34
TORSDOF 7
ENDMDL
MODEL 3
REMARK VINA RESULT:     -10.1      2.260      7.163
REMARK  7 active torsions:
REMARK  status: ('A' for Active; 'I' for Inactive)
REMARK    1  A    between atoms: C_2  and  C_3 
REMARK    2  A    between atoms: C_4  and  N_5 
REMARK       I    between atoms: N_5  and  C_6 
REMARK    3  A    between atoms: C_6  and  C_7 
REMARK    4  A    between atoms: C_8  and  N_9 
REMARK       I    between atoms: N_9  and  C_10 
REMARK    5  A    between atoms: C_10  and  C_11 
REMARK    6  A    between atoms: C_11  and  N_12 
REMARK    7  A    between atoms: C_25  and  C_26 
ROOT
HETATM    1  C   UNL     1       7.428  26.687  55.557  1.00  0.00     0.073 A 
HETATM    2  C   UNL     1       7.530  26.929  56.917  1.00  0.00     0.093 A 
HETATM    3  S   UNL     1       7.892  25.551  57.837  1.00  0.00    -0.075 SA
HETATM    4  C   UNL     1       8.017  24.591  56.442  1.00  0.00    -0.008 A 
HETATM    5  C   UNL     1       7.735  25.291  55.284  1.00  0.00    -0.026 A 
HETATM    6  C   UNL     1       7.694  24.584  53.960  1.00  0.00     0.041 C 
HETATM    7  C   UNL     1       7.505  23.065  54.127  1.00  0.00     0.010 C 
HETATM    8  C   UNL     1       8.502  22.463  55.154  1.00  0.00    -0.002 C 
HETATM    9  C   UNL     1       8.293  23.119  56.546  1.00  0.00     0.052 C 
ENDROOT
BRANCH   1  10
HETATM   10  C   UNL     1       6.928  27.687  54.600  1.00  0.00     0.259 C 
HETATM   11  N   UNL     1       5.594  27.530  54.280  1.00  0.00    -0.322 N 
HETATM   12  H   UNL     1       5.173  26.670  54.601  1.00  0.00     0.169 HD
HETATM   13  O   UNL     1       7.687  28.541  54.143  1.00  0.00    -0.267 OA
BRANCH  11  14
HETATM   14  C   UNL     1       4.784  28.373  53.482  1.00  0.00     0.041 A 
HETATM   15  C   UNL     1       4.497  27.999  52.148  1.00  0.00    -0.032 A 
HETATM   16  C   UNL     1       3.699  28.846  51.353  1.00  0.00     0.009 A 
HETATM   17  C   UNL     1       3.170  30.027  51.867  1.00  0.00     0.001 A 
HETATM   18  C   UNL     1       3.428  30.380  53.184  1.00  0.00     0.002 A 
HETATM   19  C   UNL     1       4.227  29.558  53.983  1.00  0.00     0.030 A 
BRANCH  15  20
HETATM   20  C   UNL     1       5.019  26.735  51.499  1.00  0.00     0.036 C 
HETATM   21  C   UNL     1       4.850  26.755  49.987  1.00  0.00     0.010 C 
ENDBRANCH  15  20
ENDBRANCH  11  14
ENDBRANCH   1  10
BRANCH   2  22
HETATM   22  N   UNL     1       7.342  28.044  57.703  1.00  0.00    -0.319 N 
HETATM   23  C   UNL     1       8.238  29.087  57.719  1.00  0.00     0.248 C 
HETATM   24  O   UNL     1       9.432  29.027  57.422  1.00  0.00    -0.271 OA
HETATM   25  H   UNL     1       6.627  27.961  58.417  1.00  0.00     0.169 HD
BRANCH  23  26
HETATM   26  C   UNL     1       7.640  30.409  58.190  1.00  0.00     0.337 C 
BRANCH  26  27
HETATM   27  N   UNL     1       7.704  30.549  59.708  1.00  0.00    -0.059 N 
HETATM   28  H   UNL     1       7.276  29.684  60.076  1.00  0.00     0.280 HD
HETATM   29  C   UNL     1       9.141  30.545  60.236  1.00  0.00     0.261 C 
HETATM   30  C   UNL     1       9.119  30.680  61.763  1.00  0.00     0.195 C 
HETATM   31  O   UNL     1       8.413  31.861  62.165  1.00  0.00    -0.388 OA
HETATM   32  C   UNL     1       7.046  31.828  61.742  1.00  0.00     0.195 C 
HETATM   33  C   UNL     1       6.947  31.756  60.216  1.00  0.00     0.261 C 
ENDBRANCH  26  27
ENDBRANCH  23  26
ENDBRANCH   2  22
BRANCH   8  34
HETATM   34  C   UNL     1       8.481  20.888  55.208  1.00  0.00    -0.047 C 
HETATM   35  C   UNL     1       7.225  20.400  55.962  1.00  0.00     0.015 C 
HETATM   36  C   UNL     1       8.416  20.298  53.782  1.00  0.00     0.015 C 
HETATM   37  C   UNL     1       9.719  20.303  55.915  1.00  0.00     0.015 C 
ENDBRANCH   8  34
TORSDOF 7
ENDMDL
MODEL 4
REMARK VINA RESULT:     -10.0      2.659      7.178
REMARK  7 active torsions:
REMARK  status: ('A' for Active; 'I' for Inactive)
REMARK    1  A    between atoms: C_2  and  C_3 
REMARK    2  A    between atoms: C_4  and  N_5 
REMARK       I    between atoms: N_5  and  C_6 
REMARK    3  A    between atoms: C_6  and  C_7 
REMARK    4  A    between atoms: C_8  and  N_9 
REMARK       I    between atoms: N_9  and  C_10 
REMARK    5  A    between atoms: C_10  and  C_11 
REMARK    6  A    between atoms: C_11  and  N_12 
REMARK    7  A    between atoms: C_25  and  C_26 
ROOT
HETATM    1  C   UNL     1       7.343  26.761  55.522  1.00  0.00     0.073 A 
HETATM    2  C   UNL     1       7.460  26.982  56.884  1.00  0.00     0.093 A 
HETATM    3  S   UNL     1       7.831  25.590  57.779  1.00  0.00    -0.075 SA
HETATM    4  C   UNL     1       7.940  24.651  56.368  1.00  0.00    -0.008 A 
HETATM    5  C   UNL     1       7.646  25.370  55.224  1.00  0.00    -0.026 A 
HETATM    6  C   UNL     1       7.590  24.683  53.889  1.00  0.00     0.041 C 
HETATM    7  C   UNL     1       7.402  23.162  54.035  1.00  0.00     0.010 C 
HETATM    8  C   UNL     1       8.410  22.544  55.042  1.00  0.00    -0.002 C 
HETATM    9  C   UNL     1       8.216  23.178  56.446  1.00  0.00     0.052 C 
ENDROOT
BRANCH   1  10
HETATM   10  C   UNL     1       6.833  27.776  54.585  1.00  0.00     0.259 C 
HETATM   11  N   UNL     1       5.456  27.878  54.574  1.00  0.00    -0.322 N 
HETATM   12  H   UNL     1       4.966  27.148  55.071  1.00  0.00     0.169 HD
HETATM   13  O   UNL     1       7.612  28.421  53.886  1.00  0.00    -0.267 OA
BRANCH  11  14
HETATM   14  C   UNL     1       4.656  28.814  53.876  1.00  0.00     0.041 A 
HETATM   15  C   UNL     1       4.400  30.077  54.457  1.00  0.00    -0.032 A 
HETATM   16  C   UNL     1       3.594  31.003  53.764  1.00  0.00     0.009 A 
HETATM   17  C   UNL     1       3.070  30.703  52.510  1.00  0.00     0.001 A 
HETATM   18  C   UNL     1       3.343  29.474  51.927  1.00  0.00     0.002 A 
HETATM   19  C   UNL     1       4.131  28.539  52.605  1.00  0.00     0.030 A 
BRANCH  15  20
HETATM   20  C   UNL     1       4.928  30.501  55.812  1.00  0.00     0.036 C 
HETATM   21  C   UNL     1       3.959  30.165  56.936  1.00  0.00     0.010 C 
ENDBRANCH  15  20
ENDBRANCH  11  14
ENDBRANCH   1  10
BRANCH   2  22
HETATM   22  N   UNL     1       7.280  28.085  57.689  1.00  0.00    -0.319 N 
HETATM   23  C   UNL     1       8.202  29.105  57.748  1.00  0.00     0.248 C 
HETATM   24  O   UNL     1       9.400  29.021  57.477  1.00  0.00    -0.271 OA
HETATM   25  H   UNL     1       6.548  28.005  58.385  1.00  0.00     0.169 HD
BRANCH  23  26
HETATM   26  C   UNL     1       7.625  30.431  58.233  1.00  0.00     0.337 C 
BRANCH  26  27
HETATM   27  N   UNL     1       7.698  30.556  59.752  1.00  0.00    -0.059 N 
HETATM   28  H   UNL     1       7.284  29.681  60.114  1.00  0.00     0.280 HD
HETATM   29  C   UNL     1       9.138  30.567  60.270  1.00  0.00     0.261 C 
HETATM   30  C   UNL     1       9.124  30.686  61.799  1.00  0.00     0.195 C 
HETATM   31  O   UNL     1       8.404  31.853  62.218  1.00  0.00    -0.388 OA
HETATM   32  C   UNL     1       7.035  31.805  61.804  1.00  0.00     0.195 C 
HETATM   33  C   UNL     1       6.926  31.748  60.278  1.00  0.00     0.261 C 
ENDBRANCH  26  27
ENDBRANCH  23  26
ENDBRANCH   2  22
BRANCH   8  34
HETATM   34  C   UNL     1       8.389  20.968  55.072  1.00  0.00    -0.047 C 
HETATM   35  C   UNL     1       9.682  20.431  55.722  1.00  0.00     0.015 C 
HETATM   36  C   UNL     1       7.205  20.459  55.923  1.00  0.00     0.015 C 
HETATM   37  C   UNL     1       8.270  20.350  53.665  1.00  0.00     0.015 C 
ENDBRANCH   8  34
TORSDOF 7
ENDMDL
MODEL 5
REMARK VINA RESULT:     -10.0      1.543      1.909
REMARK  7 active torsions:
REMARK  status: ('A' for Active; 'I' for Inactive)
REMARK    1  A    between atoms: C_2  and  C_3 
REMARK    2  A    between atoms: C_4  and  N_5 
REMARK       I    between atoms: N_5  and  C_6 
REMARK    3  A    between atoms: C_6  and  C_7 
REMARK    4  A    between atoms: C_8  and  N_9 
REMARK       I    between atoms: N_9  and  C_10 
REMARK    5  A    between atoms: C_10  and  C_11 
REMARK    6  A    between atoms: C_11  and  N_12 
REMARK    7  A    between atoms: C_25  and  C_26 
ROOT
HETATM    1  C   UNL     1       5.866  27.147  52.840  1.00  0.00     0.073 A 
HETATM    2  C   UNL     1       5.632  28.346  53.492  1.00  0.00     0.093 A 
HETATM    3  S   UNL     1       4.591  29.393  52.657  1.00  0.00    -0.075 SA
HETATM    4  C   UNL     1       4.338  28.244  51.432  1.00  0.00    -0.008 A 
HETATM    5  C   UNL     1       5.077  27.091  51.620  1.00  0.00    -0.026 A 
HETATM    6  C   UNL     1       5.062  26.003  50.585  1.00  0.00     0.041 C 
HETATM    7  C   UNL     1       4.591  26.522  49.214  1.00  0.00     0.010 C 
HETATM    8  C   UNL     1       3.272  27.335  49.321  1.00  0.00    -0.002 C 
HETATM    9  C   UNL     1       3.479  28.567  50.244  1.00  0.00     0.052 C 
ENDROOT
BRANCH   1  10
HETATM   10  C   UNL     1       6.886  26.181  53.280  1.00  0.00     0.259 C 
HETATM   11  N   UNL     1       6.375  24.934  53.581  1.00  0.00    -0.322 N 
HETATM   12  H   UNL     1       5.368  24.880  53.623  1.00  0.00     0.169 HD
HETATM   13  O   UNL     1       8.063  26.524  53.378  1.00  0.00    -0.267 OA
BRANCH  11  14
HETATM   14  C   UNL     1       7.087  23.760  53.927  1.00  0.00     0.041 A 
HETATM   15  C   UNL     1       7.326  23.471  55.290  1.00  0.00    -0.032 A 
HETATM   16  C   UNL     1       8.044  22.307  55.631  1.00  0.00     0.009 A 
HETATM   17  C   UNL     1       8.498  21.429  54.651  1.00  0.00     0.001 A 
HETATM   18  C   UNL     1       8.240  21.698  53.315  1.00  0.00     0.002 A 
HETATM   19  C   UNL     1       7.539  22.854  52.957  1.00  0.00     0.030 A 
BRANCH  15  20
HETATM   20  C   UNL     1       6.869  24.358  56.430  1.00  0.00     0.036 C 
HETATM   21  C   UNL     1       7.990  25.248  56.947  1.00  0.00     0.010 C 
ENDBRANCH  15  20
ENDBRANCH  11  14
ENDBRANCH   1  10
BRANCH   2  22
HETATM   22  N   UNL     1       6.112  28.909  54.654  1.00  0.00    -0.319 N 
HETATM   23  C   UNL     1       5.723  28.464  55.896  1.00  0.00     0.248 C 
HETATM   24  O   UNL     1       4.678  27.870  56.164  1.00  0.00    -0.271 OA
HETATM   25  H   UNL     1       6.595  29.794  54.545  1.00  0.00     0.169 HD
BRANCH  23  26
HETATM   26  C   UNL     1       6.710  28.802  57.010  1.00  0.00     0.337 C 
BRANCH  26  27
HETATM   27  N   UNL     1       6.245  29.998  57.833  1.00  0.00    -0.059 N 
HETATM   28  H   UNL     1       5.594  29.607  58.534  1.00  0.00     0.280 HD
HETATM   29  C   UNL     1       7.379  30.629  58.643  1.00  0.00     0.261 C 
HETATM   30  C   UNL     1       6.829  31.815  59.446  1.00  0.00     0.195 C 
HETATM   31  O   UNL     1       6.202  32.773  58.583  1.00  0.00    -0.388 OA
HETATM   32  C   UNL     1       5.089  32.205  57.886  1.00  0.00     0.195 C 
HETATM   33  C   UNL     1       5.535  31.042  56.997  1.00  0.00     0.261 C 
ENDBRANCH  26  27
ENDBRANCH  23  26
ENDBRANCH   2  22
BRANCH   8  34
HETATM   34  C   UNL     1       2.647  27.713  47.924  1.00  0.00    -0.047 C 
HETATM   35  C   UNL     1       3.452  28.861  47.276  1.00  0.00     0.015 C 
HETATM   36  C   UNL     1       2.710  26.509  46.959  1.00  0.00     0.015 C 
HETATM   37  C   UNL     1       1.178  28.164  48.034  1.00  0.00     0.015 C 
ENDBRANCH   8  34
TORSDOF 7
ENDMDL
MODEL 6
REMARK VINA RESULT:     -10.0      1.682      2.817
REMARK  7 active torsions:
REMARK  status: ('A' for Active; 'I' for Inactive)
REMARK    1  A    between atoms: C_2  and  C_3 
REMARK    2  A    between atoms: C_4  and  N_5 
REMARK       I    between atoms: N_5  and  C_6 
REMARK    3  A    between atoms: C_6  and  C_7 
REMARK    4  A    between atoms: C_8  and  N_9 
REMARK       I    between atoms: N_9  and  C_10 
REMARK    5  A    between atoms: C_10  and  C_11 
REMARK    6  A    between atoms: C_11  and  N_12 
REMARK    7  A    between atoms: C_25  and  C_26 
ROOT
HETATM    1  C   UNL     1       5.329  28.190  53.132  1.00  0.00     0.073 A 
HETATM    2  C   UNL     1       4.725  29.379  53.506  1.00  0.00     0.093 A 
HETATM    3  S   UNL     1       3.586  29.954  52.387  1.00  0.00    -0.075 SA
HETATM    4  C   UNL     1       3.791  28.587  51.401  1.00  0.00    -0.008 A 
HETATM    5  C   UNL     1       4.754  27.720  51.882  1.00  0.00    -0.026 A 
HETATM    6  C   UNL     1       5.146  26.505  51.090  1.00  0.00     0.041 C 
HETATM    7  C   UNL     1       4.757  26.639  49.607  1.00  0.00     0.010 C 
HETATM    8  C   UNL     1       3.279  27.080  49.429  1.00  0.00    -0.002 C 
HETATM    9  C   UNL     1       3.052  28.463  50.100  1.00  0.00     0.052 C 
ENDROOT
BRANCH   1  10
HETATM   10  C   UNL     1       6.482  27.618  53.847  1.00  0.00     0.259 C 
HETATM   11  N   UNL     1       6.151  26.570  54.683  1.00  0.00    -0.322 N 
HETATM   12  H   UNL     1       5.162  26.432  54.830  1.00  0.00     0.169 HD
HETATM   13  O   UNL     1       7.606  28.094  53.692  1.00  0.00    -0.267 OA
BRANCH  11  14
HETATM   14  C   UNL     1       7.023  25.739  55.426  1.00  0.00     0.041 A 
HETATM   15  C   UNL     1       7.462  24.517  54.865  1.00  0.00    -0.032 A 
HETATM   16  C   UNL     1       8.321  23.687  55.613  1.00  0.00     0.009 A 
HETATM   17  C   UNL     1       8.762  24.061  56.880  1.00  0.00     0.001 A 
HETATM   18  C   UNL     1       8.353  25.272  57.419  1.00  0.00     0.002 A 
HETATM   19  C   UNL     1       7.492  26.104  56.697  1.00  0.00     0.030 A 
BRANCH  15  20
HETATM   20  C   UNL     1       7.045  24.024  53.496  1.00  0.00     0.036 C 
HETATM   21  C   UNL     1       7.983  24.510  52.401  1.00  0.00     0.010 C 
ENDBRANCH  15  20
ENDBRANCH  11  14
ENDBRANCH   1  10
BRANCH   2  22
HETATM   22  N   UNL     1       4.889  30.239  54.568  1.00  0.00    -0.319 N 
HETATM   23  C   UNL     1       4.922  29.795  55.870  1.00  0.00     0.248 C 
HETATM   24  O   UNL     1       4.426  28.751  56.297  1.00  0.00    -0.271 OA
HETATM   25  H   UNL     1       4.772  31.224  54.358  1.00  0.00     0.169 HD
BRANCH  23  26
HETATM   26  C   UNL     1       5.625  30.748  56.831  1.00  0.00     0.337 C 
BRANCH  26  27
HETATM   27  N   UNL     1       6.821  30.086  57.508  1.00  0.00    -0.059 N 
HETATM   28  H   UNL     1       6.481  29.156  57.805  1.00  0.00     0.280 HD
HETATM   29  C   UNL     1       7.966  29.806  56.532  1.00  0.00     0.261 C 
HETATM   30  C   UNL     1       9.120  29.135  57.286  1.00  0.00     0.195 C 
HETATM   31  O   UNL     1       9.554  29.943  58.388  1.00  0.00    -0.388 OA
HETATM   32  C   UNL     1       8.506  30.137  59.343  1.00  0.00     0.195 C 
HETATM   33  C   UNL     1       7.315  30.862  58.710  1.00  0.00     0.261 C 
ENDBRANCH  26  27
ENDBRANCH  23  26
ENDBRANCH   2  22
BRANCH   8  34
HETATM   34  C   UNL     1       2.781  27.035  47.934  1.00  0.00    -0.047 C 
HETATM   35  C   UNL     1       3.439  28.170  47.120  1.00  0.00     0.015 C 
HETATM   36  C   UNL     1       3.185  25.701  47.269  1.00  0.00     0.015 C 
HETATM   37  C   UNL     1       1.252  27.187  47.814  1.00  0.00     0.015 C 
ENDBRANCH   8  34
TORSDOF 7
ENDMDL
MODEL 7
REMARK VINA RESULT:      -9.8      3.108      7.268
REMARK  7 active torsions:
REMARK  status: ('A' for Active; 'I' for Inactive)
REMARK    1  A    between atoms: C_2  and  C_3 
REMARK    2  A    between atoms: C_4  and  N_5 
REMARK       I    between atoms: N_5  and  C_6 
REMARK    3  A    between atoms: C_6  and  C_7 
REMARK    4  A    between atoms: C_8  and  N_9 
REMARK       I    between atoms: N_9  and  C_10 
REMARK    5  A    between atoms: C_10  and  C_11 
REMARK    6  A    between atoms: C_11  and  N_12 
REMARK    7  A    between atoms: C_25  and  C_26 
ROOT
HETATM    1  C   UNL     1       5.250  26.796  54.265  1.00  0.00     0.073 A 
HETATM    2  C   UNL     1       4.932  26.999  55.598  1.00  0.00     0.093 A 
HETATM    3  S   UNL     1       5.505  25.787  56.636  1.00  0.00    -0.075 SA
HETATM    4  C   UNL     1       6.282  24.988  55.354  1.00  0.00    -0.008 A 
HETATM    5  C   UNL     1       6.068  25.601  54.134  1.00  0.00    -0.026 A 
HETATM    6  C   UNL     1       6.591  24.980  52.870  1.00  0.00     0.041 C 
HETATM    7  C   UNL     1       6.894  23.482  53.051  1.00  0.00     0.010 C 
HETATM    8  C   UNL     1       7.757  23.209  54.313  1.00  0.00    -0.002 C 
HETATM    9  C   UNL     1       7.007  23.693  55.584  1.00  0.00     0.052 C 
ENDROOT
BRANCH   1  10
HETATM   10  C   UNL     1       4.688  27.609  53.174  1.00  0.00     0.259 C 
HETATM   11  N   UNL     1       5.607  27.937  52.197  1.00  0.00    -0.322 N 
HETATM   12  H   UNL     1       6.569  27.729  52.424  1.00  0.00     0.169 HD
HETATM   13  O   UNL     1       3.508  27.955  53.204  1.00  0.00    -0.267 OA
BRANCH  11  14
HETATM   14  C   UNL     1       5.377  28.610  50.974  1.00  0.00     0.041 A 
HETATM   15  C   UNL     1       4.948  27.872  49.847  1.00  0.00    -0.032 A 
HETATM   16  C   UNL     1       4.730  28.544  48.627  1.00  0.00     0.009 A 
HETATM   17  C   UNL     1       4.906  29.922  48.522  1.00  0.00     0.001 A 
HETATM   18  C   UNL     1       5.301  30.650  49.635  1.00  0.00     0.002 A 
HETATM   19  C   UNL     1       5.533  29.999  50.850  1.00  0.00     0.030 A 
BRANCH  15  20
HETATM   20  C   UNL     1       4.722  26.375  49.859  1.00  0.00     0.036 C 
HETATM   21  C   UNL     1       3.874  25.913  48.683  1.00  0.00     0.010 C 
ENDBRANCH  15  20
ENDBRANCH  11  14
ENDBRANCH   1  10
BRANCH   2  22
HETATM   22  N   UNL     1       4.192  27.949  56.267  1.00  0.00    -0.319 N 
HETATM   23  C   UNL     1       4.601  29.259  56.365  1.00  0.00     0.248 C 
HETATM   24  O   UNL     1       5.758  29.670  56.277  1.00  0.00    -0.271 OA
HETATM   25  H   UNL     1       3.449  27.590  56.856  1.00  0.00     0.169 HD
BRANCH  23  26
HETATM   26  C   UNL     1       3.466  30.241  56.642  1.00  0.00     0.337 C 
BRANCH  26  27
HETATM   27  N   UNL     1       3.914  31.375  57.559  1.00  0.00    -0.059 N 
HETATM   28  H   UNL     1       4.946  31.358  57.524  1.00  0.00     0.280 HD
HETATM   29  C   UNL     1       3.514  32.752  57.026  1.00  0.00     0.261 C 
HETATM   30  C   UNL     1       4.005  33.833  57.996  1.00  0.00     0.195 C 
HETATM   31  O   UNL     1       3.492  33.610  59.316  1.00  0.00    -0.388 OA
HETATM   32  C   UNL     1       3.934  32.358  59.849  1.00  0.00     0.195 C 
HETATM   33  C   UNL     1       3.443  31.192  58.986  1.00  0.00     0.261 C 
ENDBRANCH  26  27
ENDBRANCH  23  26
ENDBRANCH   2  22
BRANCH   8  34
HETATM   34  C   UNL     1       8.259  21.719  54.427  1.00  0.00    -0.047 C 
HETATM   35  C   UNL     1       9.769  21.690  54.747  1.00  0.00     0.015 C 
HETATM   36  C   UNL     1       7.533  20.991  55.580  1.00  0.00     0.015 C 
HETATM   37  C   UNL     1       8.030  20.917  53.131  1.00  0.00     0.015 C 
ENDBRANCH   8  34
TORSDOF 7
ENDMDL
MODEL 8
REMARK VINA RESULT:      -9.8      2.175      6.859
REMARK  7 active torsions:
REMARK  status: ('A' for Active; 'I' for Inactive)
REMARK    1  A    between atoms: C_2  and  C_3 
REMARK    2  A    between atoms: C_4  and  N_5 
REMARK       I    between atoms: N_5  and  C_6 
REMARK    3  A    between atoms: C_6  and  C_7 
REMARK    4  A    between atoms: C_8  and  N_9 
REMARK       I    between atoms: N_9  and  C_10 
REMARK    5  A    between atoms: C_10  and  C_11 
REMARK    6  A    between atoms: C_11  and  N_12 
REMARK    7  A    between atoms: C_25  and  C_26 
ROOT
HETATM    1  C   UNL     1       6.134  27.580  53.401  1.00  0.00     0.073 A 
HETATM    2  C   UNL     1       6.420  28.221  54.595  1.00  0.00     0.093 A 
HETATM    3  S   UNL     1       7.216  27.242  55.728  1.00  0.00    -0.075 SA
HETATM    4  C   UNL     1       7.291  25.947  54.632  1.00  0.00    -0.008 A 
HETATM    5  C   UNL     1       6.671  26.229  53.429  1.00  0.00    -0.026 A 
HETATM    6  C   UNL     1       6.547  25.169  52.373  1.00  0.00     0.041 C 
HETATM    7  C   UNL     1       6.710  23.754  52.958  1.00  0.00     0.010 C 
HETATM    8  C   UNL     1       7.976  23.636  53.851  1.00  0.00    -0.002 C 
HETATM    9  C   UNL     1       7.882  24.629  55.042  1.00  0.00     0.052 C 
ENDROOT
BRANCH   1  10
HETATM   10  C   UNL     1       5.276  28.171  52.360  1.00  0.00     0.259 C 
HETATM   11  N   UNL     1       5.905  28.311  51.139  1.00  0.00    -0.322 N 
HETATM   12  H   UNL     1       6.902  28.153  51.147  1.00  0.00     0.169 HD
HETATM   13  O   UNL     1       4.125  28.512  52.626  1.00  0.00    -0.267 OA
BRANCH  11  14
HETATM   14  C   UNL     1       5.343  28.741  49.913  1.00  0.00     0.041 A 
HETATM   15  C   UNL     1       4.667  27.806  49.095  1.00  0.00    -0.032 A 
HETATM   16  C   UNL     1       4.118  28.235  47.870  1.00  0.00     0.009 A 
HETATM   17  C   UNL     1       4.209  29.565  47.466  1.00  0.00     0.001 A 
HETATM   18  C   UNL     1       4.848  30.488  48.282  1.00  0.00     0.002 A 
HETATM   19  C   UNL     1       5.409  30.078  49.495  1.00  0.00     0.030 A 
BRANCH  15  20
HETATM   20  C   UNL     1       4.509  26.342  49.446  1.00  0.00     0.036 C 
HETATM   21  C   UNL     1       3.512  25.639  48.537  1.00  0.00     0.010 C 
ENDBRANCH  15  20
ENDBRANCH  11  14
ENDBRANCH   1  10
BRANCH   2  22
HETATM   22  N   UNL     1       6.144  29.474  55.094  1.00  0.00    -0.319 N 
HETATM   23  C   UNL     1       5.372  29.660  56.217  1.00  0.00     0.248 C 
HETATM   24  O   UNL     1       4.528  28.879  56.659  1.00  0.00    -0.271 OA
HETATM   25  H   UNL     1       6.360  30.249  54.477  1.00  0.00     0.169 HD
BRANCH  23  26
HETATM   26  C   UNL     1       5.609  30.996  56.916  1.00  0.00     0.337 C 
BRANCH  26  27
HETATM   27  N   UNL     1       6.319  30.814  58.254  1.00  0.00    -0.059 N 
HETATM   28  H   UNL     1       5.819  30.039  58.721  1.00  0.00     0.280 HD
HETATM   29  C   UNL     1       7.760  30.324  58.092  1.00  0.00     0.261 C 
HETATM   30  C   UNL     1       8.397  30.159  59.476  1.00  0.00     0.195 C 
HETATM   31  O   UNL     1       8.338  31.384  60.219  1.00  0.00    -0.388 OA
HETATM   32  C   UNL     1       6.987  31.799  60.443  1.00  0.00     0.195 C 
HETATM   33  C   UNL     1       6.266  32.056  59.117  1.00  0.00     0.261 C 
ENDBRANCH  26  27
ENDBRANCH  23  26
ENDBRANCH   2  22
BRANCH   8  34
HETATM   34  C   UNL     1       8.293  22.160  54.307  1.00  0.00    -0.047 C 
HETATM   35  C   UNL     1       7.447  21.794  55.546  1.00  0.00     0.015 C 
HETATM   36  C   UNL     1       7.925  21.158  53.190  1.00  0.00     0.015 C 
HETATM   37  C   UNL     1       9.778  21.957  54.665  1.00  0.00     0.015 C 
ENDBRANCH   8  34
TORSDOF 7
ENDMDL
MODEL 9
REMARK VINA RESULT:      -9.7      3.125      7.330
REMARK  7 active torsions:
REMARK  status: ('A' for Active; 'I' for Inactive)
REMARK    1  A    between atoms: C_2  and  C_3 
REMARK    2  A    between atoms: C_4  and  N_5 
REMARK       I    between atoms: N_5  and  C_6 
REMARK    3  A    between atoms: C_6  and  C_7 
REMARK    4  A    between atoms: C_8  and  N_9 
REMARK       I    between atoms: N_9  and  C_10 
REMARK    5  A    between atoms: C_10  and  C_11 
REMARK    6  A    between atoms: C_11  and  N_12 
REMARK    7  A    between atoms: C_25  and  C_26 
ROOT
HETATM    1  C   UNL     1       5.290  26.727  54.252  1.00  0.00     0.073 A 
HETATM    2  C   UNL     1       4.992  26.908  55.592  1.00  0.00     0.093 A 
HETATM    3  S   UNL     1       5.581  25.677  56.600  1.00  0.00    -0.075 SA
HETATM    4  C   UNL     1       6.338  24.900  55.294  1.00  0.00    -0.008 A 
HETATM    5  C   UNL     1       6.106  25.534  54.087  1.00  0.00    -0.026 A 
HETATM    6  C   UNL     1       6.609  24.936  52.806  1.00  0.00     0.041 C 
HETATM    7  C   UNL     1       6.915  23.434  52.956  1.00  0.00     0.010 C 
HETATM    8  C   UNL     1       7.797  23.141  54.200  1.00  0.00    -0.002 C 
HETATM    9  C   UNL     1       7.067  23.603  55.491  1.00  0.00     0.052 C 
ENDROOT
BRANCH   1  10
HETATM   10  C   UNL     1       4.711  27.558  53.183  1.00  0.00     0.259 C 
HETATM   11  N   UNL     1       5.604  27.867  52.176  1.00  0.00    -0.322 N 
HETATM   12  H   UNL     1       6.568  27.635  52.369  1.00  0.00     0.169 HD
HETATM   13  O   UNL     1       3.542  27.933  53.254  1.00  0.00    -0.267 OA
BRANCH  11  14
HETATM   14  C   UNL     1       5.349  28.551  50.963  1.00  0.00     0.041 A 
HETATM   15  C   UNL     1       4.888  27.824  49.842  1.00  0.00    -0.032 A 
HETATM   16  C   UNL     1       4.646  28.507  48.632  1.00  0.00     0.009 A 
HETATM   17  C   UNL     1       4.828  29.884  48.534  1.00  0.00     0.001 A 
HETATM   18  C   UNL     1       5.254  30.601  49.642  1.00  0.00     0.002 A 
HETATM   19  C   UNL     1       5.510  29.939  50.846  1.00  0.00     0.030 A 
BRANCH  15  20
HETATM   20  C   UNL     1       4.654  26.328  49.848  1.00  0.00     0.036 C 
HETATM   21  C   UNL     1       3.864  25.867  48.632  1.00  0.00     0.010 C 
ENDBRANCH  15  20
ENDBRANCH  11  14
ENDBRANCH   1  10
BRANCH   2  22
HETATM   22  N   UNL     1       4.263  27.845  56.288  1.00  0.00    -0.319 N 
HETATM   23  C   UNL     1       4.803  29.048  56.681  1.00  0.00     0.248 C 
HETATM   24  O   UNL     1       5.998  29.287  56.857  1.00  0.00    -0.271 OA
HETATM   25  H   UNL     1       3.385  27.518  56.676  1.00  0.00     0.169 HD
BRANCH  23  26
HETATM   26  C   UNL     1       3.766  30.137  56.939  1.00  0.00     0.337 C 
BRANCH  26  27
HETATM   27  N   UNL     1       3.895  31.285  55.943  1.00  0.00    -0.059 N 
HETATM   28  H   UNL     1       4.500  30.921  55.189  1.00  0.00     0.280 HD
HETATM   29  C   UNL     1       2.565  31.626  55.266  1.00  0.00     0.261 C 
HETATM   30  C   UNL     1       2.781  32.779  54.279  1.00  0.00     0.195 C 
HETATM   31  O   UNL     1       3.344  33.921  54.937  1.00  0.00    -0.388 OA
HETATM   32  C   UNL     1       4.627  33.626  55.500  1.00  0.00     0.195 C 
HETATM   33  C   UNL     1       4.520  32.521  56.555  1.00  0.00     0.261 C 
ENDBRANCH  26  27
ENDBRANCH  23  26
ENDBRANCH   2  22
BRANCH   8  34
HETATM   34  C   UNL     1       8.300  21.649  54.281  1.00  0.00    -0.047 C 
HETATM   35  C   UNL     1       9.820  21.615  54.553  1.00  0.00     0.015 C 
HETATM   36  C   UNL     1       7.610  20.908  55.447  1.00  0.00     0.015 C 
HETATM   37  C   UNL     1       8.030  20.861  52.984  1.00  0.00     0.015 C 
ENDBRANCH   8  34
TORSDOF 7
ENDMDL
MODEL 10
REMARK VINA RESULT:      -9.7      3.102      7.605
REMARK  7 active torsions:
REMARK  status: ('A' for Active; 'I' for Inactive)
REMARK    1  A    between atoms: C_2  and  C_3 
REMARK    2  A    between atoms: C_4  and  N_5 
REMARK       I    between atoms: N_5  and  C_6 
REMARK    3  A    between atoms: C_6  and  C_7 
REMARK    4  A    between atoms: C_8  and  N_9 
REMARK       I    between atoms: N_9  and  C_10 
REMARK    5  A    between atoms: C_10  and  C_11 
REMARK    6  A    between atoms: C_11  and  N_12 
REMARK    7  A    between atoms: C_25  and  C_26 
ROOT
HETATM    1  C   UNL     1       4.912  27.514  53.628  1.00  0.00     0.073 A 
HETATM    2  C   UNL     1       4.245  28.187  52.618  1.00  0.00     0.093 A 
HETATM    3  S   UNL     1       3.844  29.789  53.006  1.00  0.00    -0.075 SA
HETATM    4  C   UNL     1       4.629  29.675  54.507  1.00  0.00    -0.008 A 
HETATM    5  C   UNL     1       5.148  28.416  54.744  1.00  0.00    -0.026 A 
HETATM    6  C   UNL     1       5.789  28.095  56.064  1.00  0.00     0.041 C 
HETATM    7  C   UNL     1       5.356  29.080  57.166  1.00  0.00     0.010 C 
HETATM    8  C   UNL     1       5.504  30.559  56.715  1.00  0.00    -0.002 C 
HETATM    9  C   UNL     1       4.615  30.827  55.470  1.00  0.00     0.052 C 
ENDROOT
BRANCH   1  10
HETATM   10  C   UNL     1       5.176  26.066  53.587  1.00  0.00     0.259 C 
HETATM   11  N   UNL     1       6.479  25.732  53.901  1.00  0.00    -0.322 N 
HETATM   12  H   UNL     1       7.122  26.509  53.956  1.00  0.00     0.169 HD
HETATM   13  O   UNL     1       4.284  25.282  53.268  1.00  0.00    -0.267 OA
BRANCH  11  14
HETATM   14  C   UNL     1       7.034  24.439  54.057  1.00  0.00     0.041 A 
HETATM   15  C   UNL     1       7.175  23.897  55.356  1.00  0.00    -0.032 A 
HETATM   16  C   UNL     1       7.739  22.614  55.508  1.00  0.00     0.009 A 
HETATM   17  C   UNL     1       8.133  21.866  54.402  1.00  0.00     0.001 A 
HETATM   18  C   UNL     1       7.970  22.387  53.127  1.00  0.00     0.002 A 
HETATM   19  C   UNL     1       7.424  23.662  52.957  1.00  0.00     0.030 A 
BRANCH  15  20
HETATM   20  C   UNL     1       6.771  24.627  56.619  1.00  0.00     0.036 C 
HETATM   21  C   UNL     1       7.959  25.291  57.302  1.00  0.00     0.010 C 
ENDBRANCH  15  20
ENDBRANCH  11  14
ENDBRANCH   1  10
BRANCH   2  22
HETATM   22  N   UNL     1       3.776  27.820  51.376  1.00  0.00    -0.319 N 
HETATM   23  C   UNL     1       4.617  27.631  50.304  1.00  0.00     0.248 C 
HETATM   24  O   UNL     1       5.736  28.126  50.159  1.00  0.00    -0.271 OA
HETATM   25  H   UNL     1       2.775  27.904  51.244  1.00  0.00     0.169 HD
BRANCH  23  26
HETATM   26  C   UNL     1       4.034  26.740  49.211  1.00  0.00     0.337 C 
BRANCH  26  27
HETATM   27  N   UNL     1       2.772  27.344  48.604  1.00  0.00    -0.059 N 
HETATM   28  H   UNL     1       2.146  27.523  49.407  1.00  0.00     0.280 HD
HETATM   29  C   UNL     1       3.023  28.716  47.974  1.00  0.00     0.261 C 
HETATM   30  C   UNL     1       1.709  29.256  47.397  1.00  0.00     0.195 C 
HETATM   31  O   UNL     1       1.147  28.337  46.451  1.00  0.00    -0.388 OA
HETATM   32  C   UNL     1       0.835  27.079  47.060  1.00  0.00     0.195 C 
HETATM   33  C   UNL     1       2.095  26.415  47.620  1.00  0.00     0.261 C 
ENDBRANCH  26  27
ENDBRANCH  23  26
ENDBRANCH   2  22
BRANCH   8  34
HETATM   34  C   UNL     1       5.265  31.601  57.874  1.00  0.00    -0.047 C 
HETATM   35  C   UNL     1       5.065  33.014  57.286  1.00  0.00     0.015 C 
HETATM   36  C   UNL     1       3.984  31.248  58.663  1.00  0.00     0.015 C 
HETATM   37  C   UNL     1       6.441  31.660  58.869  1.00  0.00     0.015 C 
ENDBRANCH   8  34
TORSDOF 7
ENDMDL
