MODEL 1
REMARK VINA RESULT:     -10.7      0.000      0.000
REMARK  7 active torsions:
REMARK  status: ('A' for Active; 'I' for Inactive)
REMARK    1  A    between atoms: C_3  and  C_4 
REMARK       I    between atoms: C_4  and  N_5 
REMARK    2  A    between atoms: N_8  and  C_9 
REMARK    3  A    between atoms: C_12  and  N_13 
REMARK    4  A    between atoms: N_13  and  C_14 
REMARK    5  A    between atoms: C_14  and  N_15 
REMARK       I    between atoms: N_15  and  C_16 
REMARK    6  A    between atoms: C_16  and  C_17 
REMARK    7  A    between atoms: C_19  and  O_20 
ROOT
HETATM    1  C   UNL     1       7.351  29.554  57.513  1.00  0.00     0.030 A 
HETATM    2  C   UNL     1       6.385  30.555  57.682  1.00  0.00     0.031 A 
HETATM    3  C   UNL     1       6.550  31.583  58.618  1.00  0.00     0.026 A 
HETATM    4  C   UNL     1       7.697  31.635  59.412  1.00  0.00     0.014 A 
HETATM    5  C   UNL     1       8.710  30.702  59.194  1.00  0.00     0.026 A 
HETATM    6  C   UNL     1       8.529  29.666  58.262  1.00  0.00     0.031 A 
ENDROOT
BRANCH   4   7
HETATM    7  N   UNL     1       7.720  32.583  60.481  1.00  0.00    -0.236 NA
HETATM    8  H   UNL     1       7.298  33.450  60.156  1.00  0.00     0.136 HD
BRANCH   7   9
HETATM    9  C   UNL     1       7.265  32.240  61.724  1.00  0.00     0.157 C 
HETATM   10  S   UNL     1       8.295  32.153  63.036  1.00  0.00    -0.047 SA
BRANCH   9  11
HETATM   11  N   UNL     1       5.948  31.880  61.872  1.00  0.00    -0.304 N 
HETATM   12  C   UNL     1       5.158  31.870  63.008  1.00  0.00     0.257 C 
HETATM   13  O   UNL     1       4.691  30.812  63.425  1.00  0.00    -0.267 OA
HETATM   14  H   UNL     1       5.728  31.110  61.253  1.00  0.00     0.171 HD
BRANCH  12  15
HETATM   15  C   UNL     1       4.719  33.186  63.581  1.00  0.00     0.035 A 
HETATM   16  C   UNL     1       5.135  33.492  64.889  1.00  0.00     0.053 A 
HETATM   17  C   UNL     1       4.668  34.641  65.535  1.00  0.00     0.069 A 
HETATM   18  C   UNL     1       3.835  35.525  64.851  1.00  0.00     0.037 A 
HETATM   19  C   UNL     1       3.415  35.234  63.556  1.00  0.00     0.004 A 
HETATM   20  C   UNL     1       3.836  34.058  62.932  1.00  0.00     0.017 A 
BRANCH  17  21
HETATM   21  O   UNL     1       4.967  35.001  66.820  1.00  0.00    -0.356 OA
HETATM   22  C   UNL     1       4.579  34.066  67.822  1.00  0.00     0.210 C 
ENDBRANCH  17  21
ENDBRANCH  12  15
ENDBRANCH   9  11
ENDBRANCH   7   9
ENDBRANCH   4   7
BRANCH   1  23
HETATM   23  N   UNL     1       7.063  28.479  56.669  1.00  0.00    -0.378 N 
HETATM   24  C   UNL     1       5.646  28.170  56.385  1.00  0.00     0.143 C 
HETATM   25  C   UNL     1       5.551  27.271  55.141  1.00  0.00     0.146 C 
HETATM   26  N   UNL     1       6.404  26.079  55.223  1.00  0.00    -0.345 N 
HETATM   27  C   UNL     1       6.034  24.988  54.436  1.00  0.00     0.254 C 
HETATM   28  C   UNL     1       7.779  26.316  55.696  1.00  0.00     0.146 C 
HETATM   29  O   UNL     1       4.961  24.903  53.845  1.00  0.00    -0.267 OA
HETATM   30  C   UNL     1       7.865  27.262  56.912  1.00  0.00     0.143 C 
BRANCH  27  31
HETATM   31  C   UNL     1       6.964  23.844  54.330  1.00  0.00     0.038 A 
HETATM   32  C   UNL     1       7.755  23.627  53.189  1.00  0.00    -0.046 A 
HETATM   33  C   UNL     1       7.749  24.554  52.007  1.00  0.00     0.049 C 
HETATM   34  C   UNL     1       8.610  22.514  53.177  1.00  0.00     0.007 A 
HETATM   35  C   UNL     1       8.639  21.623  54.253  1.00  0.00     0.001 A 
HETATM   36  C   UNL     1       7.820  21.830  55.360  1.00  0.00     0.001 A 
HETATM   37  C   UNL     1       6.980  22.942  55.402  1.00  0.00     0.017 A 
ENDBRANCH  27  31
ENDBRANCH   1  23
TORSDOF 7
ENDMDL
MODEL 2
REMARK VINA RESULT:     -10.6      0.907      1.605
REMARK  7 active torsions:
REMARK  status: ('A' for Active; 'I' for Inactive)
REMARK    1  A    between atoms: C_3  and  C_4 
REMARK       I    between atoms: C_4  and  N_5 
REMARK    2  A    between atoms: N_8  and  C_9 
REMARK    3  A    between atoms: C_12  and  N_13 
REMARK    4  A    between atoms: N_13  and  C_14 
REMARK    5  A    between atoms: C_14  and  N_15 
REMARK       I    between atoms: N_15  and  C_16 
REMARK    6  A    between atoms: C_16  and  C_17 
REMARK    7  A    between atoms: C_19  and  O_20 
ROOT
HETATM    1  C   UNL     1       7.327  29.550  57.555  1.00  0.00     0.030 A 
HETATM    2  C   UNL     1       6.432  30.629  57.589  1.00  0.00     0.031 A 
HETATM    3  C   UNL     1       6.574  31.671  58.514  1.00  0.00     0.026 A 
HETATM    4  C   UNL     1       7.626  31.658  59.432  1.00  0.00     0.014 A 
HETATM    5  C   UNL     1       8.577  30.643  59.354  1.00  0.00     0.026 A 
HETATM    6  C   UNL     1       8.418  29.594  58.432  1.00  0.00     0.031 A 
ENDROOT
BRANCH   4   7
HETATM    7  N   UNL     1       7.606  32.637  60.475  1.00  0.00    -0.236 NA
HETATM    8  H   UNL     1       7.146  33.475  60.125  1.00  0.00     0.136 HD
BRANCH   7   9
HETATM    9  C   UNL     1       7.165  32.309  61.726  1.00  0.00     0.157 C 
HETATM   10  S   UNL     1       8.203  32.275  63.035  1.00  0.00    -0.047 SA
BRANCH   9  11
HETATM   11  N   UNL     1       5.859  31.920  61.889  1.00  0.00    -0.304 N 
HETATM   12  C   UNL     1       5.101  31.828  63.043  1.00  0.00     0.257 C 
HETATM   13  O   UNL     1       4.662  30.740  63.408  1.00  0.00    -0.267 OA
HETATM   14  H   UNL     1       5.631  31.185  61.231  1.00  0.00     0.171 HD
BRANCH  12  15
HETATM   15  C   UNL     1       4.661  33.100  63.708  1.00  0.00     0.035 A 
HETATM   16  C   UNL     1       3.937  34.020  62.928  1.00  0.00     0.053 A 
HETATM   17  C   UNL     1       3.599  35.276  63.440  1.00  0.00     0.069 A 
HETATM   18  C   UNL     1       3.923  35.594  64.758  1.00  0.00     0.037 A 
HETATM   19  C   UNL     1       4.640  34.693  65.541  1.00  0.00     0.004 A 
HETATM   20  C   UNL     1       5.028  33.462  65.011  1.00  0.00     0.017 A 
BRANCH  17  21
HETATM   21  O   UNL     1       2.946  36.260  62.749  1.00  0.00    -0.356 OA
HETATM   22  C   UNL     1       3.776  37.103  61.956  1.00  0.00     0.210 C 
ENDBRANCH  17  21
ENDBRANCH  12  15
ENDBRANCH   9  11
ENDBRANCH   7   9
ENDBRANCH   4   7
BRANCH   1  23
HETATM   23  N   UNL     1       7.048  28.474  56.710  1.00  0.00    -0.378 N 
HETATM   24  C   UNL     1       5.634  28.150  56.430  1.00  0.00     0.143 C 
HETATM   25  C   UNL     1       5.545  27.253  55.184  1.00  0.00     0.146 C 
HETATM   26  N   UNL     1       6.412  26.070  55.260  1.00  0.00    -0.345 N 
HETATM   27  C   UNL     1       6.053  24.977  54.471  1.00  0.00     0.254 C 
HETATM   28  C   UNL     1       7.786  26.322  55.728  1.00  0.00     0.146 C 
HETATM   29  O   UNL     1       4.978  24.881  53.884  1.00  0.00    -0.267 OA
HETATM   30  C   UNL     1       7.865  27.266  56.947  1.00  0.00     0.143 C 
BRANCH  27  31
HETATM   31  C   UNL     1       6.996  23.845  54.359  1.00  0.00     0.038 A 
HETATM   32  C   UNL     1       7.782  23.638  53.213  1.00  0.00    -0.046 A 
HETATM   33  C   UNL     1       7.759  24.566  52.032  1.00  0.00     0.049 C 
HETATM   34  C   UNL     1       8.651  22.536  53.195  1.00  0.00     0.007 A 
HETATM   35  C   UNL     1       8.697  21.644  54.270  1.00  0.00     0.001 A 
HETATM   36  C   UNL     1       7.882  21.840  55.383  1.00  0.00     0.001 A 
HETATM   37  C   UNL     1       7.029  22.942  55.430  1.00  0.00     0.017 A 
ENDBRANCH  27  31
ENDBRANCH   1  23
TORSDOF 7
ENDMDL
MODEL 3
REMARK VINA RESULT:     -10.5      2.369      4.251
REMARK  7 active torsions:
REMARK  status: ('A' for Active; 'I' for Inactive)
REMARK    1  A    between atoms: C_3  and  C_4 
REMARK       I    between atoms: C_4  and  N_5 
REMARK    2  A    between atoms: N_8  and  C_9 
REMARK    3  A    between atoms: C_12  and  N_13 
REMARK    4  A    between atoms: N_13  and  C_14 
REMARK    5  A    between atoms: C_14  and  N_15 
REMARK       I    between atoms: N_15  and  C_16 
REMARK    6  A    between atoms: C_16  and  C_17 
REMARK    7  A    between atoms: C_19  and  O_20 
ROOT
HETATM    1  C   UNL     1       5.207  29.880  57.394  1.00  0.00     0.030 A 
HETATM    2  C   UNL     1       6.349  30.451  57.975  1.00  0.00     0.031 A 
HETATM    3  C   UNL     1       6.269  31.588  58.787  1.00  0.00     0.026 A 
HETATM    4  C   UNL     1       5.032  32.184  59.044  1.00  0.00     0.014 A 
HETATM    5  C   UNL     1       3.877  31.578  58.552  1.00  0.00     0.026 A 
HETATM    6  C   UNL     1       3.970  30.446  57.725  1.00  0.00     0.031 A 
ENDROOT
BRANCH   4   7
HETATM    7  N   UNL     1       5.033  33.449  59.711  1.00  0.00    -0.236 NA
HETATM    8  H   UNL     1       4.345  34.051  59.265  1.00  0.00     0.136 HD
BRANCH   7   9
HETATM    9  C   UNL     1       4.949  33.515  61.073  1.00  0.00     0.157 C 
HETATM   10  S   UNL     1       3.552  33.083  61.882  1.00  0.00    -0.047 SA
BRANCH   9  11
HETATM   11  N   UNL     1       6.008  34.028  61.780  1.00  0.00    -0.304 N 
HETATM   12  C   UNL     1       6.903  33.388  62.619  1.00  0.00     0.257 C 
HETATM   13  O   UNL     1       6.960  33.694  63.808  1.00  0.00    -0.267 OA
HETATM   14  H   UNL     1       5.789  34.962  62.105  1.00  0.00     0.171 HD
BRANCH  12  15
HETATM   15  C   UNL     1       7.929  32.480  62.006  1.00  0.00     0.035 A 
HETATM   16  C   UNL     1       8.527  32.898  60.804  1.00  0.00     0.053 A 
HETATM   17  C   UNL     1       9.399  32.054  60.112  1.00  0.00     0.069 A 
HETATM   18  C   UNL     1       9.731  30.812  60.651  1.00  0.00     0.037 A 
HETATM   19  C   UNL     1       9.145  30.385  61.841  1.00  0.00     0.004 A 
HETATM   20  C   UNL     1       8.230  31.205  62.502  1.00  0.00     0.017 A 
BRANCH  17  21
HETATM   21  O   UNL     1       9.990  32.342  58.912  1.00  0.00    -0.356 OA
HETATM   22  C   UNL     1      10.247  31.220  58.073  1.00  0.00     0.210 C 
ENDBRANCH  17  21
ENDBRANCH  12  15
ENDBRANCH   9  11
ENDBRANCH   7   9
ENDBRANCH   4   7
BRANCH   1  23
HETATM   23  N   UNL     1       5.370  28.838  56.479  1.00  0.00    -0.378 N 
HETATM   24  C   UNL     1       4.191  28.391  55.709  1.00  0.00     0.143 C 
HETATM   25  C   UNL     1       4.648  27.571  54.491  1.00  0.00     0.146 C 
HETATM   26  N   UNL     1       5.567  26.480  54.840  1.00  0.00    -0.345 N 
HETATM   27  C   UNL     1       5.636  25.409  53.949  1.00  0.00     0.254 C 
HETATM   28  C   UNL     1       6.651  26.839  55.771  1.00  0.00     0.146 C 
HETATM   29  O   UNL     1       4.854  25.242  53.017  1.00  0.00    -0.267 OA
HETATM   30  C   UNL     1       6.188  27.706  56.961  1.00  0.00     0.143 C 
BRANCH  27  31
HETATM   31  C   UNL     1       6.685  24.387  54.151  1.00  0.00     0.038 A 
HETATM   32  C   UNL     1       7.661  24.116  53.177  1.00  0.00    -0.046 A 
HETATM   33  C   UNL     1       7.742  24.863  51.876  1.00  0.00     0.049 C 
HETATM   34  C   UNL     1       8.618  23.128  53.455  1.00  0.00     0.007 A 
HETATM   35  C   UNL     1       8.573  22.404  54.650  1.00  0.00     0.001 A 
HETATM   36  C   UNL     1       7.575  22.658  55.589  1.00  0.00     0.001 A 
HETATM   37  C   UNL     1       6.629  23.651  55.341  1.00  0.00     0.017 A 
ENDBRANCH  27  31
ENDBRANCH   1  23
TORSDOF 7
ENDMDL
MODEL 4
REMARK VINA RESULT:      -9.9      2.316      3.296
REMARK  7 active torsions:
REMARK  status: ('A' for Active; 'I' for Inactive)
REMARK    1  A    between atoms: C_3  and  C_4 
REMARK       I    between atoms: C_4  and  N_5 
REMARK    2  A    between atoms: N_8  and  C_9 
REMARK    3  A    between atoms: C_12  and  N_13 
REMARK    4  A    between atoms: N_13  and  C_14 
REMARK    5  A    between atoms: C_14  and  N_15 
REMARK       I    between atoms: N_15  and  C_16 
REMARK    6  A    between atoms: C_16  and  C_17 
REMARK    7  A    between atoms: C_19  and  O_20 
ROOT
HETATM    1  C   UNL     1       5.214  29.932  57.239  1.00  0.00     0.030 A 
HETATM    2  C   UNL     1       6.340  30.449  57.894  1.00  0.00     0.031 A 
HETATM    3  C   UNL     1       6.269  31.613  58.669  1.00  0.00     0.026 A 
HETATM    4  C   UNL     1       5.056  32.290  58.811  1.00  0.00     0.014 A 
HETATM    5  C   UNL     1       3.907  31.742  58.244  1.00  0.00     0.026 A 
HETATM    6  C   UNL     1       3.992  30.582  57.456  1.00  0.00     0.031 A 
ENDROOT
BRANCH   4   7
HETATM    7  N   UNL     1       5.085  33.572  59.444  1.00  0.00    -0.236 NA
HETATM    8  H   UNL     1       5.484  34.246  58.795  1.00  0.00     0.136 HD
BRANCH   7   9
HETATM    9  C   UNL     1       3.969  34.069  60.058  1.00  0.00     0.157 C 
HETATM   10  S   UNL     1       3.092  35.323  59.389  1.00  0.00    -0.047 SA
BRANCH   9  11
HETATM   11  N   UNL     1       3.616  33.578  61.291  1.00  0.00    -0.304 N 
HETATM   12  C   UNL     1       4.139  32.513  62.001  1.00  0.00     0.257 C 
HETATM   13  O   UNL     1       3.432  31.545  62.271  1.00  0.00    -0.267 OA
HETATM   14  H   UNL     1       2.616  33.665  61.425  1.00  0.00     0.171 HD
BRANCH  12  15
HETATM   15  C   UNL     1       5.505  32.663  62.605  1.00  0.00     0.035 A 
HETATM   16  C   UNL     1       6.489  31.736  62.215  1.00  0.00     0.053 A 
HETATM   17  C   UNL     1       7.748  31.737  62.824  1.00  0.00     0.069 A 
HETATM   18  C   UNL     1       8.052  32.705  63.780  1.00  0.00     0.037 A 
HETATM   19  C   UNL     1       7.086  33.628  64.175  1.00  0.00     0.004 A 
HETATM   20  C   UNL     1       5.811  33.591  63.608  1.00  0.00     0.017 A 
BRANCH  17  21
HETATM   21  O   UNL     1       8.754  30.848  62.558  1.00  0.00    -0.356 OA
HETATM   22  C   UNL     1       9.069  30.679  61.180  1.00  0.00     0.210 C 
ENDBRANCH  17  21
ENDBRANCH  12  15
ENDBRANCH   9  11
ENDBRANCH   7   9
ENDBRANCH   4   7
BRANCH   1  23
HETATM   23  N   UNL     1       5.380  28.855  56.366  1.00  0.00    -0.378 N 
HETATM   24  C   UNL     1       4.190  28.325  55.670  1.00  0.00     0.143 C 
HETATM   25  C   UNL     1       4.629  27.467  54.472  1.00  0.00     0.146 C 
HETATM   26  N   UNL     1       5.607  26.432  54.829  1.00  0.00    -0.345 N 
HETATM   27  C   UNL     1       5.683  25.323  53.986  1.00  0.00     0.254 C 
HETATM   28  C   UNL     1       6.713  26.877  55.694  1.00  0.00     0.146 C 
HETATM   29  O   UNL     1       4.869  25.081  53.098  1.00  0.00    -0.267 OA
HETATM   30  C   UNL     1       6.265  27.781  56.863  1.00  0.00     0.143 C 
BRANCH  27  31
HETATM   31  C   UNL     1       6.781  24.354  54.187  1.00  0.00     0.038 A 
HETATM   32  C   UNL     1       7.729  24.081  53.187  1.00  0.00    -0.046 A 
HETATM   33  C   UNL     1       7.728  24.774  51.854  1.00  0.00     0.049 C 
HETATM   34  C   UNL     1       8.737  23.146  53.467  1.00  0.00     0.007 A 
HETATM   35  C   UNL     1       8.769  22.474  54.692  1.00  0.00     0.001 A 
HETATM   36  C   UNL     1       7.799  22.727  55.659  1.00  0.00     0.001 A 
HETATM   37  C   UNL     1       6.802  23.668  55.409  1.00  0.00     0.017 A 
ENDBRANCH  27  31
ENDBRANCH   1  23
TORSDOF 7
ENDMDL
MODEL 5
REMARK VINA RESULT:      -9.6      7.281     10.467
REMARK  7 active torsions:
REMARK  status: ('A' for Active; 'I' for Inactive)
REMARK    1  A    between atoms: C_3  and  C_4 
REMARK       I    between atoms: C_4  and  N_5 
REMARK    2  A    between atoms: N_8  and  C_9 
REMARK    3  A    between atoms: C_12  and  N_13 
REMARK    4  A    between atoms: N_13  and  C_14 
REMARK    5  A    between atoms: C_14  and  N_15 
REMARK       I    between atoms: N_15  and  C_16 
REMARK    6  A    between atoms: C_16  and  C_17 
REMARK    7  A    between atoms: C_19  and  O_20 
ROOT
HETATM    1  C   UNL     1       4.703  28.001  54.176  1.00  0.00     0.030 A 
HETATM    2  C   UNL     1       4.790  29.243  54.820  1.00  0.00     0.031 A 
HETATM    3  C   UNL     1       4.093  30.363  54.352  1.00  0.00     0.026 A 
HETATM    4  C   UNL     1       3.280  30.264  53.221  1.00  0.00     0.014 A 
HETATM    5  C   UNL     1       3.108  29.017  52.621  1.00  0.00     0.026 A 
HETATM    6  C   UNL     1       3.824  27.903  53.090  1.00  0.00     0.031 A 
ENDROOT
BRANCH   4   7
HETATM    7  N   UNL     1       2.754  31.477  52.676  1.00  0.00    -0.236 NA
HETATM    8  H   UNL     1       2.679  32.163  53.423  1.00  0.00     0.136 HD
BRANCH   7   9
HETATM    9  C   UNL     1       3.297  32.023  51.547  1.00  0.00     0.157 C 
HETATM   10  S   UNL     1       4.565  33.108  51.626  1.00  0.00    -0.047 SA
BRANCH   9  11
HETATM   11  N   UNL     1       2.729  31.736  50.330  1.00  0.00    -0.304 N 
HETATM   12  C   UNL     1       3.319  31.281  49.164  1.00  0.00     0.257 C 
HETATM   13  O   UNL     1       3.286  31.971  48.147  1.00  0.00    -0.267 OA
HETATM   14  H   UNL     1       1.969  32.378  50.142  1.00  0.00     0.171 HD
BRANCH  12  15
HETATM   15  C   UNL     1       3.804  29.862  49.119  1.00  0.00     0.035 A 
HETATM   16  C   UNL     1       2.904  28.886  48.651  1.00  0.00     0.053 A 
HETATM   17  C   UNL     1       3.240  27.530  48.694  1.00  0.00     0.069 A 
HETATM   18  C   UNL     1       4.503  27.145  49.142  1.00  0.00     0.037 A 
HETATM   19  C   UNL     1       5.403  28.101  49.607  1.00  0.00     0.004 A 
HETATM   20  C   UNL     1       5.046  29.450  49.619  1.00  0.00     0.017 A 
BRANCH  17  21
HETATM   21  O   UNL     1       2.421  26.502  48.315  1.00  0.00    -0.356 OA
HETATM   22  C   UNL     1       3.078  25.271  48.028  1.00  0.00     0.210 C 
ENDBRANCH  17  21
ENDBRANCH  12  15
ENDBRANCH   9  11
ENDBRANCH   7   9
ENDBRANCH   4   7
BRANCH   1  23
HETATM   23  N   UNL     1       5.534  26.963  54.604  1.00  0.00    -0.378 N 
HETATM   24  C   UNL     1       6.801  27.312  55.278  1.00  0.00     0.143 C 
HETATM   25  C   UNL     1       7.340  26.086  56.034  1.00  0.00     0.146 C 
HETATM   26  N   UNL     1       7.436  24.886  55.194  1.00  0.00    -0.345 N 
HETATM   27  C   UNL     1       8.345  23.908  55.599  1.00  0.00     0.254 C 
HETATM   28  C   UNL     1       6.262  24.609  54.350  1.00  0.00     0.146 C 
HETATM   29  O   UNL     1       9.182  24.075  56.484  1.00  0.00    -0.267 OA
HETATM   30  C   UNL     1       5.698  25.857  53.638  1.00  0.00     0.143 C 
BRANCH  27  31
HETATM   31  C   UNL     1       8.337  22.603  54.907  1.00  0.00     0.038 A 
HETATM   32  C   UNL     1       8.290  21.385  55.607  1.00  0.00    -0.046 A 
HETATM   33  C   UNL     1       8.206  21.311  57.105  1.00  0.00     0.049 C 
HETATM   34  C   UNL     1       8.285  20.194  54.865  1.00  0.00     0.007 A 
HETATM   35  C   UNL     1       8.369  20.219  53.470  1.00  0.00     0.001 A 
HETATM   36  C   UNL     1       8.455  21.433  52.793  1.00  0.00     0.001 A 
HETATM   37  C   UNL     1       8.438  22.628  53.510  1.00  0.00     0.017 A 
ENDBRANCH  27  31
ENDBRANCH   1  23
TORSDOF 7
ENDMDL
MODEL 6
REMARK VINA RESULT:      -9.4      1.954      2.112
REMARK  7 active torsions:
REMARK  status: ('A' for Active; 'I' for Inactive)
REMARK    1  A    between atoms: C_3  and  C_4 
REMARK       I    between atoms: C_4  and  N_5 
REMARK    2  A    between atoms: N_8  and  C_9 
REMARK    3  A    between atoms: C_12  and  N_13 
REMARK    4  A    between atoms: N_13  and  C_14 
REMARK    5  A    between atoms: C_14  and  N_15 
REMARK       I    between atoms: N_15  and  C_16 
REMARK    6  A    between atoms: C_16  and  C_17 
REMARK    7  A    between atoms: C_19  and  O_20 
ROOT
HETATM    1  C   UNL     1       6.024  30.192  56.738  1.00  0.00     0.030 A 
HETATM    2  C   UNL     1       5.156  31.231  56.373  1.00  0.00     0.031 A 
HETATM    3  C   UNL     1       5.036  32.392  57.146  1.00  0.00     0.026 A 
HETATM    4  C   UNL     1       5.791  32.543  58.311  1.00  0.00     0.014 A 
HETATM    5  C   UNL     1       6.725  31.563  58.641  1.00  0.00     0.026 A 
HETATM    6  C   UNL     1       6.828  30.395  57.866  1.00  0.00     0.031 A 
ENDROOT
BRANCH   4   7
HETATM    7  N   UNL     1       5.482  33.651  59.160  1.00  0.00    -0.236 NA
HETATM    8  H   UNL     1       5.237  34.448  58.578  1.00  0.00     0.136 HD
BRANCH   7   9
HETATM    9  C   UNL     1       4.609  33.506  60.202  1.00  0.00     0.157 C 
HETATM   10  S   UNL     1       2.984  33.851  60.032  1.00  0.00    -0.047 SA
BRANCH   9  11
HETATM   11  N   UNL     1       5.099  33.148  61.434  1.00  0.00    -0.304 N 
HETATM   12  C   UNL     1       6.085  33.744  62.200  1.00  0.00     0.257 C 
HETATM   13  O   UNL     1       7.112  33.127  62.471  1.00  0.00    -0.267 OA
HETATM   14  H   UNL     1       5.111  32.139  61.523  1.00  0.00     0.171 HD
BRANCH  12  15
HETATM   15  C   UNL     1       5.779  35.059  62.856  1.00  0.00     0.035 A 
HETATM   16  C   UNL     1       5.411  35.034  64.213  1.00  0.00     0.053 A 
HETATM   17  C   UNL     1       4.995  36.201  64.860  1.00  0.00     0.069 A 
HETATM   18  C   UNL     1       5.008  37.414  64.171  1.00  0.00     0.037 A 
HETATM   19  C   UNL     1       5.369  37.452  62.826  1.00  0.00     0.004 A 
HETATM   20  C   UNL     1       5.730  36.277  62.165  1.00  0.00     0.017 A 
BRANCH  17  21
HETATM   21  O   UNL     1       4.567  36.276  66.157  1.00  0.00    -0.356 OA
HETATM   22  C   UNL     1       3.474  35.425  66.489  1.00  0.00     0.210 C 
ENDBRANCH  17  21
ENDBRANCH  12  15
ENDBRANCH   9  11
ENDBRANCH   7   9
ENDBRANCH   4   7
BRANCH   1  23
HETATM   23  N   UNL     1       5.990  29.002  56.007  1.00  0.00    -0.378 N 
HETATM   24  C   UNL     1       4.674  28.444  55.636  1.00  0.00     0.143 C 
HETATM   25  C   UNL     1       4.848  27.415  54.506  1.00  0.00     0.146 C 
HETATM   26  N   UNL     1       5.854  26.390  54.807  1.00  0.00    -0.345 N 
HETATM   27  C   UNL     1       5.738  25.177  54.127  1.00  0.00     0.254 C 
HETATM   28  C   UNL     1       7.120  26.891  55.370  1.00  0.00     0.146 C 
HETATM   29  O   UNL     1       4.759  24.860  53.456  1.00  0.00    -0.267 OA
HETATM   30  C   UNL     1       6.933  27.961  56.466  1.00  0.00     0.143 C 
BRANCH  27  31
HETATM   31  C   UNL     1       6.833  24.191  54.243  1.00  0.00     0.038 A 
HETATM   32  C   UNL     1       7.756  23.974  53.206  1.00  0.00    -0.046 A 
HETATM   33  C   UNL     1       7.730  24.746  51.919  1.00  0.00     0.049 C 
HETATM   34  C   UNL     1       8.763  23.018  53.406  1.00  0.00     0.007 A 
HETATM   35  C   UNL     1       8.818  22.272  54.587  1.00  0.00     0.001 A 
HETATM   36  C   UNL     1       7.872  22.471  55.590  1.00  0.00     0.001 A 
HETATM   37  C   UNL     1       6.877  23.432  55.420  1.00  0.00     0.017 A 
ENDBRANCH  27  31
ENDBRANCH   1  23
TORSDOF 7
ENDMDL
MODEL 7
REMARK VINA RESULT:      -9.3      1.488      2.204
REMARK  7 active torsions:
REMARK  status: ('A' for Active; 'I' for Inactive)
REMARK    1  A    between atoms: C_3  and  C_4 
REMARK       I    between atoms: C_4  and  N_5 
REMARK    2  A    between atoms: N_8  and  C_9 
REMARK    3  A    between atoms: C_12  and  N_13 
REMARK    4  A    between atoms: N_13  and  C_14 
REMARK    5  A    between atoms: C_14  and  N_15 
REMARK       I    between atoms: N_15  and  C_16 
REMARK    6  A    between atoms: C_16  and  C_17 
REMARK    7  A    between atoms: C_19  and  O_20 
ROOT
HETATM    1  C   UNL     1       7.440  29.739  57.728  1.00  0.00     0.030 A 
HETATM    2  C   UNL     1       6.561  30.816  57.912  1.00  0.00     0.031 A 
HETATM    3  C   UNL     1       6.791  31.792  58.890  1.00  0.00     0.026 A 
HETATM    4  C   UNL     1       7.918  31.714  59.710  1.00  0.00     0.014 A 
HETATM    5  C   UNL     1       8.850  30.703  59.481  1.00  0.00     0.026 A 
HETATM    6  C   UNL     1       8.603  29.721  58.508  1.00  0.00     0.031 A 
ENDROOT
BRANCH   4   7
HETATM    7  N   UNL     1       7.996  32.619  60.815  1.00  0.00    -0.236 NA
HETATM    8  H   UNL     1       7.766  33.553  60.486  1.00  0.00     0.136 HD
BRANCH   7   9
HETATM    9  C   UNL     1       7.365  32.333  61.993  1.00  0.00     0.157 C 
HETATM   10  S   UNL     1       8.040  32.743  63.465  1.00  0.00    -0.047 SA
BRANCH   9  11
HETATM   11  N   UNL     1       6.193  31.619  61.962  1.00  0.00    -0.304 N 
HETATM   12  C   UNL     1       4.979  31.887  62.570  1.00  0.00     0.257 C 
HETATM   13  O   UNL     1       4.526  31.113  63.410  1.00  0.00    -0.267 OA
HETATM   14  H   UNL     1       6.391  30.626  61.939  1.00  0.00     0.171 HD
BRANCH  12  15
HETATM   15  C   UNL     1       4.147  33.014  62.031  1.00  0.00     0.035 A 
HETATM   16  C   UNL     1       4.159  34.225  62.746  1.00  0.00     0.053 A 
HETATM   17  C   UNL     1       3.317  35.278  62.376  1.00  0.00     0.069 A 
HETATM   18  C   UNL     1       2.506  35.150  61.249  1.00  0.00     0.037 A 
HETATM   19  C   UNL     1       2.485  33.956  60.533  1.00  0.00     0.004 A 
HETATM   20  C   UNL     1       3.282  32.885  60.936  1.00  0.00     0.017 A 
BRANCH  17  21
HETATM   21  O   UNL     1       3.213  36.474  63.034  1.00  0.00    -0.356 OA
HETATM   22  C   UNL     1       3.528  37.626  62.258  1.00  0.00     0.210 C 
ENDBRANCH  17  21
ENDBRANCH  12  15
ENDBRANCH   9  11
ENDBRANCH   7   9
ENDBRANCH   4   7
BRANCH   1  23
HETATM   23  N   UNL     1       7.080  28.724  56.839  1.00  0.00    -0.378 N 
HETATM   24  C   UNL     1       5.648  28.396  56.691  1.00  0.00     0.143 C 
HETATM   25  C   UNL     1       5.431  27.593  55.398  1.00  0.00     0.146 C 
HETATM   26  N   UNL     1       6.312  26.424  55.288  1.00  0.00    -0.345 N 
HETATM   27  C   UNL     1       5.878  25.386  54.463  1.00  0.00     0.254 C 
HETATM   28  C   UNL     1       7.726  26.665  55.622  1.00  0.00     0.146 C 
HETATM   29  O   UNL     1       4.747  25.315  53.991  1.00  0.00    -0.267 OA
HETATM   30  C   UNL     1       7.930  27.517  56.893  1.00  0.00     0.143 C 
BRANCH  27  31
HETATM   31  C   UNL     1       6.814  24.282  54.163  1.00  0.00     0.038 A 
HETATM   32  C   UNL     1       7.325  23.442  55.167  1.00  0.00    -0.046 A 
HETATM   33  C   UNL     1       6.935  23.571  56.612  1.00  0.00     0.049 C 
HETATM   34  C   UNL     1       8.208  22.418  54.789  1.00  0.00     0.007 A 
HETATM   35  C   UNL     1       8.601  22.270  53.457  1.00  0.00     0.001 A 
HETATM   36  C   UNL     1       8.117  23.136  52.479  1.00  0.00     0.001 A 
HETATM   37  C   UNL     1       7.221  24.144  52.830  1.00  0.00     0.017 A 
ENDBRANCH  27  31
ENDBRANCH   1  23
TORSDOF 7
ENDMDL
MODEL 8
REMARK VINA RESULT:      -9.3      7.257     10.368
REMARK  7 active torsions:
REMARK  status: ('A' for Active; 'I' for Inactive)
REMARK    1  A    between atoms: C_3  and  C_4 
REMARK       I    between atoms: C_4  and  N_5 
REMARK    2  A    between atoms: N_8  and  C_9 
REMARK    3  A    between atoms: C_12  and  N_13 
REMARK    4  A    between atoms: N_13  and  C_14 
REMARK    5  A    between atoms: C_14  and  N_15 
REMARK       I    between atoms: N_15  and  C_16 
REMARK    6  A    between atoms: C_16  and  C_17 
REMARK    7  A    between atoms: C_19  and  O_20 
ROOT
HETATM    1  C   UNL     1       4.713  28.037  54.199  1.00  0.00     0.030 A 
HETATM    2  C   UNL     1       4.755  29.274  54.858  1.00  0.00     0.031 A 
HETATM    3  C   UNL     1       4.040  30.381  54.387  1.00  0.00     0.026 A 
HETATM    4  C   UNL     1       3.256  30.275  53.236  1.00  0.00     0.014 A 
HETATM    5  C   UNL     1       3.129  29.031  52.620  1.00  0.00     0.026 A 
HETATM    6  C   UNL     1       3.862  27.930  53.092  1.00  0.00     0.031 A 
ENDROOT
BRANCH   4   7
HETATM    7  N   UNL     1       2.712  31.480  52.692  1.00  0.00    -0.236 NA
HETATM    8  H   UNL     1       2.646  32.171  53.436  1.00  0.00     0.136 HD
BRANCH   7   9
HETATM    9  C   UNL     1       3.231  32.023  51.550  1.00  0.00     0.157 C 
HETATM   10  S   UNL     1       4.751  32.715  51.527  1.00  0.00    -0.047 SA
BRANCH   9  11
HETATM   11  N   UNL     1       2.449  32.072  50.423  1.00  0.00    -0.304 N 
HETATM   12  C   UNL     1       2.665  31.522  49.172  1.00  0.00     0.257 C 
HETATM   13  O   UNL     1       2.776  32.251  48.189  1.00  0.00    -0.267 OA
HETATM   14  H   UNL     1       1.981  32.968  50.364  1.00  0.00     0.171 HD
BRANCH  12  15
HETATM   15  C   UNL     1       2.550  30.033  49.020  1.00  0.00     0.035 A 
HETATM   16  C   UNL     1       3.737  29.282  49.103  1.00  0.00     0.053 A 
HETATM   17  C   UNL     1       3.727  27.907  48.851  1.00  0.00     0.069 A 
HETATM   18  C   UNL     1       2.520  27.263  48.580  1.00  0.00     0.037 A 
HETATM   19  C   UNL     1       1.339  27.996  48.494  1.00  0.00     0.004 A 
HETATM   20  C   UNL     1       1.357  29.377  48.689  1.00  0.00     0.017 A 
BRANCH  17  21
HETATM   21  O   UNL     1       4.829  27.096  48.853  1.00  0.00    -0.356 OA
HETATM   22  C   UNL     1       5.025  26.333  50.040  1.00  0.00     0.210 C 
ENDBRANCH  17  21
ENDBRANCH  12  15
ENDBRANCH   9  11
ENDBRANCH   7   9
ENDBRANCH   4   7
BRANCH   1  23
HETATM   23  N   UNL     1       5.560  27.016  54.634  1.00  0.00    -0.378 N 
HETATM   24  C   UNL     1       6.864  27.388  55.222  1.00  0.00     0.143 C 
HETATM   25  C   UNL     1       7.436  26.198  56.009  1.00  0.00     0.146 C 
HETATM   26  N   UNL     1       7.480  24.955  55.229  1.00  0.00    -0.345 N 
HETATM   27  C   UNL     1       8.404  23.992  55.634  1.00  0.00     0.254 C 
HETATM   28  C   UNL     1       6.261  24.645  54.463  1.00  0.00     0.146 C 
HETATM   29  O   UNL     1       9.288  24.197  56.463  1.00  0.00    -0.267 OA
HETATM   30  C   UNL     1       5.666  25.861  53.719  1.00  0.00     0.143 C 
BRANCH  27  31
HETATM   31  C   UNL     1       8.351  22.653  55.010  1.00  0.00     0.038 A 
HETATM   32  C   UNL     1       8.251  21.477  55.773  1.00  0.00    -0.046 A 
HETATM   33  C   UNL     1       8.151  21.485  57.271  1.00  0.00     0.049 C 
HETATM   34  C   UNL     1       8.206  20.249  55.094  1.00  0.00     0.007 A 
HETATM   35  C   UNL     1       8.304  20.198  53.701  1.00  0.00     0.001 A 
HETATM   36  C   UNL     1       8.443  21.371  52.962  1.00  0.00     0.001 A 
HETATM   37  C   UNL     1       8.466  22.601  53.615  1.00  0.00     0.017 A 
ENDBRANCH  27  31
ENDBRANCH   1  23
TORSDOF 7
ENDMDL
MODEL 9
REMARK VINA RESULT:      -9.2      3.225     11.749
REMARK  7 active torsions:
REMARK  status: ('A' for Active; 'I' for Inactive)
REMARK    1  A    between atoms: C_3  and  C_4 
REMARK       I    between atoms: C_4  and  N_5 
REMARK    2  A    between atoms: N_8  and  C_9 
REMARK    3  A    between atoms: C_12  and  N_13 
REMARK    4  A    between atoms: N_13  and  C_14 
REMARK    5  A    between atoms: C_14  and  N_15 
REMARK       I    between atoms: N_15  and  C_16 
REMARK    6  A    between atoms: C_16  and  C_17 
REMARK    7  A    between atoms: C_19  and  O_20 
ROOT
HETATM    1  C   UNL     1       4.193  31.164  56.779  1.00  0.00     0.030 A 
HETATM    2  C   UNL     1       4.454  29.803  56.990  1.00  0.00     0.031 A 
HETATM    3  C   UNL     1       4.310  28.861  55.965  1.00  0.00     0.026 A 
HETATM    4  C   UNL     1       3.901  29.263  54.692  1.00  0.00     0.014 A 
HETATM    5  C   UNL     1       3.726  30.623  54.438  1.00  0.00     0.026 A 
HETATM    6  C   UNL     1       3.859  31.559  55.478  1.00  0.00     0.031 A 
ENDROOT
BRANCH   4   7
HETATM    7  N   UNL     1       3.580  28.240  53.746  1.00  0.00    -0.236 NA
HETATM    8  H   UNL     1       3.098  28.666  52.958  1.00  0.00     0.136 HD
BRANCH   7   9
HETATM    9  C   UNL     1       4.535  27.355  53.329  1.00  0.00     0.157 C 
HETATM   10  S   UNL     1       6.067  27.864  52.900  1.00  0.00    -0.047 SA
BRANCH   9  11
HETATM   11  N   UNL     1       4.196  26.033  53.183  1.00  0.00    -0.304 N 
HETATM   12  C   UNL     1       4.932  24.985  52.659  1.00  0.00     0.257 C 
HETATM   13  O   UNL     1       4.540  24.397  51.654  1.00  0.00    -0.267 OA
HETATM   14  H   UNL     1       3.212  25.949  52.959  1.00  0.00     0.171 HD
BRANCH  12  15
HETATM   15  C   UNL     1       6.088  24.458  53.460  1.00  0.00     0.035 A 
HETATM   16  C   UNL     1       6.072  24.689  54.847  1.00  0.00     0.053 A 
HETATM   17  C   UNL     1       7.168  24.336  55.640  1.00  0.00     0.069 A 
HETATM   18  C   UNL     1       8.259  23.690  55.061  1.00  0.00     0.037 A 
HETATM   19  C   UNL     1       8.287  23.455  53.688  1.00  0.00     0.004 A 
HETATM   20  C   UNL     1       7.218  23.859  52.888  1.00  0.00     0.017 A 
BRANCH  17  21
HETATM   21  O   UNL     1       7.276  24.565  56.985  1.00  0.00    -0.356 OA
HETATM   22  C   UNL     1       8.602  24.761  57.466  1.00  0.00     0.210 C 
ENDBRANCH  17  21
ENDBRANCH  12  15
ENDBRANCH   9  11
ENDBRANCH   7   9
ENDBRANCH   4   7
BRANCH   1  23
HETATM   23  N   UNL     1       4.214  32.029  57.876  1.00  0.00    -0.378 N 
HETATM   24  C   UNL     1       4.373  33.476  57.624  1.00  0.00     0.143 C 
HETATM   25  C   UNL     1       3.946  34.268  58.872  1.00  0.00     0.146 C 
HETATM   26  N   UNL     1       4.607  33.812  60.101  1.00  0.00    -0.345 N 
HETATM   27  C   UNL     1       4.694  34.733  61.145  1.00  0.00     0.254 C 
HETATM   28  C   UNL     1       4.646  32.352  60.294  1.00  0.00     0.146 C 
HETATM   29  O   UNL     1       4.429  35.927  61.029  1.00  0.00    -0.267 OA
HETATM   30  C   UNL     1       5.024  31.566  59.021  1.00  0.00     0.143 C 
BRANCH  27  31
HETATM   31  C   UNL     1       5.168  34.264  62.464  1.00  0.00     0.038 A 
HETATM   32  C   UNL     1       4.286  34.023  63.532  1.00  0.00    -0.046 A 
HETATM   33  C   UNL     1       2.798  34.183  63.411  1.00  0.00     0.049 C 
HETATM   34  C   UNL     1       4.826  33.579  64.749  1.00  0.00     0.007 A 
HETATM   35  C   UNL     1       6.206  33.425  64.906  1.00  0.00     0.001 A 
HETATM   36  C   UNL     1       7.070  33.706  63.850  1.00  0.00     0.001 A 
HETATM   37  C   UNL     1       6.552  34.126  62.626  1.00  0.00     0.017 A 
ENDBRANCH  27  31
ENDBRANCH   1  23
TORSDOF 7
ENDMDL
MODEL 10
REMARK VINA RESULT:      -9.2      3.629     12.076
REMARK  7 active torsions:
REMARK  status: ('A' for Active; 'I' for Inactive)
REMARK    1  A    between atoms: C_3  and  C_4 
REMARK       I    between atoms: C_4  and  N_5 
REMARK    2  A    between atoms: N_8  and  C_9 
REMARK    3  A    between atoms: C_12  and  N_13 
REMARK    4  A    between atoms: N_13  and  C_14 
REMARK    5  A    between atoms: C_14  and  N_15 
REMARK       I    between atoms: N_15  and  C_16 
REMARK    6  A    between atoms: C_16  and  C_17 
REMARK    7  A    between atoms: C_19  and  O_20 
ROOT
HETATM    1  C   UNL     1       4.370  30.676  56.324  1.00  0.00     0.030 A 
HETATM    2  C   UNL     1       4.578  29.385  56.830  1.00  0.00     0.031 A 
HETATM    3  C   UNL     1       4.641  28.268  55.988  1.00  0.00     0.026 A 
HETATM    4  C   UNL     1       4.501  28.420  54.607  1.00  0.00     0.014 A 
HETATM    5  C   UNL     1       4.386  29.704  54.078  1.00  0.00     0.026 A 
HETATM    6  C   UNL     1       4.309  30.817  54.932  1.00  0.00     0.031 A 
ENDROOT
BRANCH   4   7
HETATM    7  N   UNL     1       4.375  27.232  53.821  1.00  0.00    -0.236 NA
HETATM    8  H   UNL     1       3.485  27.261  53.328  1.00  0.00     0.136 HD
BRANCH   7   9
HETATM    9  C   UNL     1       5.390  26.834  52.996  1.00  0.00     0.157 C 
HETATM   10  S   UNL     1       5.090  26.279  51.450  1.00  0.00    -0.047 SA
BRANCH   9  11
HETATM   11  N   UNL     1       6.673  26.814  53.485  1.00  0.00    -0.304 N 
HETATM   12  C   UNL     1       7.214  26.067  54.516  1.00  0.00     0.257 C 
HETATM   13  O   UNL     1       7.669  26.628  55.511  1.00  0.00    -0.267 OA
HETATM   14  H   UNL     1       7.075  27.742  53.441  1.00  0.00     0.171 HD
BRANCH  12  15
HETATM   15  C   UNL     1       7.422  24.597  54.297  1.00  0.00     0.035 A 
HETATM   16  C   UNL     1       7.501  23.779  55.438  1.00  0.00     0.053 A 
HETATM   17  C   UNL     1       7.813  22.421  55.320  1.00  0.00     0.069 A 
HETATM   18  C   UNL     1       7.983  21.859  54.055  1.00  0.00     0.037 A 
HETATM   19  C   UNL     1       7.907  22.659  52.917  1.00  0.00     0.004 A 
HETATM   20  C   UNL     1       7.652  24.025  53.039  1.00  0.00     0.017 A 
BRANCH  17  21
HETATM   21  O   UNL     1       7.967  21.552  56.366  1.00  0.00    -0.356 OA
HETATM   22  C   UNL     1       8.089  20.180  56.007  1.00  0.00     0.210 C 
ENDBRANCH  17  21
ENDBRANCH  12  15
ENDBRANCH   9  11
ENDBRANCH   7   9
ENDBRANCH   4   7
BRANCH   1  23
HETATM   23  N   UNL     1       4.171  31.725  57.224  1.00  0.00    -0.378 N 
HETATM   24  C   UNL     1       4.542  33.091  56.802  1.00  0.00     0.143 C 
HETATM   25  C   UNL     1       3.866  34.120  57.724  1.00  0.00     0.146 C 
HETATM   26  N   UNL     1       4.105  33.863  59.150  1.00  0.00    -0.345 N 
HETATM   27  C   UNL     1       3.989  34.954  60.012  1.00  0.00     0.254 C 
HETATM   28  C   UNL     1       3.938  32.464  59.578  1.00  0.00     0.146 C 
HETATM   29  O   UNL     1       3.892  36.119  59.632  1.00  0.00    -0.267 OA
HETATM   30  C   UNL     1       4.575  31.438  58.616  1.00  0.00     0.143 C 
BRANCH  27  31
HETATM   31  C   UNL     1       4.023  34.712  61.469  1.00  0.00     0.038 A 
HETATM   32  C   UNL     1       2.850  34.566  62.229  1.00  0.00    -0.046 A 
HETATM   33  C   UNL     1       1.477  34.606  61.622  1.00  0.00     0.049 C 
HETATM   34  C   UNL     1       2.978  34.338  63.608  1.00  0.00     0.007 A 
HETATM   35  C   UNL     1       4.237  34.303  64.213  1.00  0.00     0.001 A 
HETATM   36  C   UNL     1       5.389  34.488  63.452  1.00  0.00     0.001 A 
HETATM   37  C   UNL     1       5.284  34.693  62.078  1.00  0.00     0.017 A 
ENDBRANCH  27  31
ENDBRANCH   1  23
TORSDOF 7
ENDMDL
