MODEL 1
REMARK VINA RESULT:      -9.8      0.000      0.000
REMARK  4 active torsions:
REMARK  status: ('A' for Active; 'I' for Inactive)
REMARK    1  A    between atoms: C_7  and  C_8 
REMARK    2  A    between atoms: N_9  and  C_10 
REMARK    3  A    between atoms: C_10  and  C_11 
REMARK       I    between atoms: C_11  and  N_12 
REMARK    4  A    between atoms: N_12  and  C_13 
ROOT
HETATM    1  C   UNL     1       5.578  25.326  54.550  1.00  0.00     0.158 C 
HETATM    2  N   UNL     1       5.416  25.944  53.245  1.00  0.00    -0.326 N 
HETATM    3  C   UNL     1       6.071  25.247  52.252  1.00  0.00     0.255 C 
HETATM    4  O   UNL     1       5.975  25.409  51.051  1.00  0.00    -0.267 OA
HETATM    5  C   UNL     1       6.885  24.221  52.917  1.00  0.00     0.040 A 
HETATM    6  C   UNL     1       6.626  24.281  54.289  1.00  0.00    -0.015 A 
HETATM    7  C   UNL     1       7.785  23.332  52.360  1.00  0.00     0.017 A 
HETATM    8  C   UNL     1       8.455  22.470  53.228  1.00  0.00     0.001 A 
HETATM    9  C   UNL     1       8.207  22.514  54.612  1.00  0.00     0.001 A 
HETATM   10  C   UNL     1       7.282  23.416  55.151  1.00  0.00     0.011 A 
ENDROOT
BRANCH   1  11
HETATM   11  C   UNL     1       6.107  26.258  55.597  1.00  0.00     0.004 A 
HETATM   12  C   UNL     1       5.666  26.307  56.917  1.00  0.00     0.015 A 
HETATM   13  C   UNL     1       4.641  25.501  57.633  1.00  0.00     0.069 C 
HETATM   14  N   UNL     1       6.351  27.306  57.558  1.00  0.00    -0.359 N 
HETATM   15  H   UNL     1       6.224  27.572  58.525  1.00  0.00     0.166 HD
HETATM   16  C   UNL     1       7.239  27.909  56.705  1.00  0.00     0.043 A 
HETATM   17  C   UNL     1       7.124  27.273  55.470  1.00  0.00     0.001 A 
HETATM   18  C   UNL     1       8.125  28.968  56.941  1.00  0.00     0.030 A 
HETATM   19  C   UNL     1       7.952  27.722  54.418  1.00  0.00     0.014 A 
HETATM   20  C   UNL     1       8.843  28.781  54.634  1.00  0.00     0.001 A 
HETATM   21  C   UNL     1       8.926  29.395  55.879  1.00  0.00     0.002 A 
ENDBRANCH   1  11
BRANCH   2  22
HETATM   22  C   UNL     1       4.501  27.048  53.004  1.00  0.00     0.229 C 
BRANCH  22  23
HETATM   23  C   UNL     1       4.724  27.778  51.679  1.00  0.00     0.235 C 
HETATM   24  N   UNL     1       3.840  27.444  50.670  1.00  0.00    -0.355 N 
HETATM   25  H   UNL     1       3.246  26.634  50.839  1.00  0.00     0.162 HD
HETATM   26  O   UNL     1       5.699  28.505  51.503  1.00  0.00    -0.272 OA
BRANCH  24  27
HETATM   27  C   UNL     1       4.095  27.836  49.288  1.00  0.00     0.084 C 
HETATM   28  C   UNL     1       4.511  26.624  48.439  1.00  0.00     0.025 C 
HETATM   29  C   UNL     1       3.338  25.703  48.108  1.00  0.00     0.002 C 
HETATM   30  C   UNL     1       2.191  26.471  47.459  1.00  0.00     0.000 C 
HETATM   31  C   UNL     1       1.733  27.631  48.336  1.00  0.00     0.002 C 
HETATM   32  C   UNL     1       2.890  28.565  48.684  1.00  0.00     0.025 C 
ENDBRANCH  24  27
ENDBRANCH  22  23
ENDBRANCH   2  22
TORSDOF 4
ENDMDL
MODEL 2
REMARK VINA RESULT:      -9.8      1.726      4.393
REMARK  4 active torsions:
REMARK  status: ('A' for Active; 'I' for Inactive)
REMARK    1  A    between atoms: C_7  and  C_8 
REMARK    2  A    between atoms: N_9  and  C_10 
REMARK    3  A    between atoms: C_10  and  C_11 
REMARK       I    between atoms: C_11  and  N_12 
REMARK    4  A    between atoms: N_12  and  C_13 
ROOT
HETATM    1  C   UNL     1       6.232  28.011  54.577  1.00  0.00     0.158 C 
HETATM    2  N   UNL     1       4.873  28.523  54.634  1.00  0.00    -0.326 N 
HETATM    3  C   UNL     1       4.738  29.540  55.556  1.00  0.00     0.255 C 
HETATM    4  O   UNL     1       3.783  30.279  55.703  1.00  0.00    -0.267 OA
HETATM    5  C   UNL     1       5.996  29.602  56.311  1.00  0.00     0.040 A 
HETATM    6  C   UNL     1       6.882  28.672  55.759  1.00  0.00    -0.015 A 
HETATM    7  C   UNL     1       6.317  30.394  57.397  1.00  0.00     0.017 A 
HETATM    8  C   UNL     1       7.587  30.236  57.952  1.00  0.00     0.001 A 
HETATM    9  C   UNL     1       8.494  29.307  57.410  1.00  0.00     0.001 A 
HETATM   10  C   UNL     1       8.149  28.524  56.302  1.00  0.00     0.011 A 
ENDROOT
BRANCH   1  11
HETATM   11  C   UNL     1       6.325  26.528  54.769  1.00  0.00     0.004 A 
HETATM   12  C   UNL     1       5.837  25.835  55.874  1.00  0.00     0.015 A 
HETATM   13  C   UNL     1       5.115  26.313  57.085  1.00  0.00     0.069 C 
HETATM   14  N   UNL     1       6.141  24.508  55.714  1.00  0.00    -0.359 N 
HETATM   15  H   UNL     1       5.917  23.775  56.371  1.00  0.00     0.166 HD
HETATM   16  C   UNL     1       6.804  24.303  54.530  1.00  0.00     0.043 A 
HETATM   17  C   UNL     1       6.928  25.543  53.905  1.00  0.00     0.001 A 
HETATM   18  C   UNL     1       7.300  23.115  53.979  1.00  0.00     0.030 A 
HETATM   19  C   UNL     1       7.580  25.587  52.653  1.00  0.00     0.014 A 
HETATM   20  C   UNL     1       8.085  24.410  52.087  1.00  0.00     0.001 A 
HETATM   21  C   UNL     1       7.947  23.191  52.744  1.00  0.00     0.002 A 
ENDBRANCH   1  11
BRANCH   2  22
HETATM   22  C   UNL     1       3.845  28.138  53.682  1.00  0.00     0.229 C 
BRANCH  22  23
HETATM   23  C   UNL     1       4.026  28.725  52.282  1.00  0.00     0.235 C 
HETATM   24  N   UNL     1       3.782  27.846  51.242  1.00  0.00    -0.355 N 
HETATM   25  H   UNL     1       3.679  26.865  51.494  1.00  0.00     0.162 HD
HETATM   26  O   UNL     1       4.481  29.854  52.113  1.00  0.00    -0.272 OA
BRANCH  24  27
HETATM   27  C   UNL     1       4.182  28.170  49.877  1.00  0.00     0.084 C 
HETATM   28  C   UNL     1       4.755  26.935  49.164  1.00  0.00     0.025 C 
HETATM   29  C   UNL     1       3.676  25.932  48.758  1.00  0.00     0.002 C 
HETATM   30  C   UNL     1       2.579  26.594  47.932  1.00  0.00     0.000 C 
HETATM   31  C   UNL     1       1.964  27.777  48.672  1.00  0.00     0.002 C 
HETATM   32  C   UNL     1       3.024  28.792  49.090  1.00  0.00     0.025 C 
ENDBRANCH  24  27
ENDBRANCH  22  23
ENDBRANCH   2  22
TORSDOF 4
ENDMDL
MODEL 3
REMARK VINA RESULT:      -9.3      1.649      2.391
REMARK  4 active torsions:
REMARK  status: ('A' for Active; 'I' for Inactive)
REMARK    1  A    between atoms: C_7  and  C_8 
REMARK    2  A    between atoms: N_9  and  C_10 
REMARK    3  A    between atoms: C_10  and  C_11 
REMARK       I    between atoms: C_11  and  N_12 
REMARK    4  A    between atoms: N_12  and  C_13 
ROOT
HETATM    1  C   UNL     1       5.064  26.707  54.630  1.00  0.00     0.158 C 
HETATM    2  N   UNL     1       4.803  26.744  53.200  1.00  0.00    -0.326 N 
HETATM    3  C   UNL     1       5.240  25.602  52.562  1.00  0.00     0.255 C 
HETATM    4  O   UNL     1       5.007  25.262  51.418  1.00  0.00    -0.267 OA
HETATM    5  C   UNL     1       6.013  24.831  53.546  1.00  0.00     0.040 A 
HETATM    6  C   UNL     1       5.943  25.497  54.772  1.00  0.00    -0.015 A 
HETATM    7  C   UNL     1       6.725  23.661  53.364  1.00  0.00     0.017 A 
HETATM    8  C   UNL     1       7.401  23.145  54.470  1.00  0.00     0.001 A 
HETATM    9  C   UNL     1       7.342  23.799  55.714  1.00  0.00     0.001 A 
HETATM   10  C   UNL     1       6.604  24.978  55.875  1.00  0.00     0.011 A 
ENDROOT
BRANCH   1  11
HETATM   11  C   UNL     1       5.828  27.894  55.133  1.00  0.00     0.004 A 
HETATM   12  C   UNL     1       7.119  28.238  54.738  1.00  0.00     0.015 A 
HETATM   13  C   UNL     1       8.043  27.599  53.763  1.00  0.00     0.069 C 
HETATM   14  N   UNL     1       7.495  29.354  55.439  1.00  0.00    -0.359 N 
HETATM   15  H   UNL     1       8.391  29.816  55.361  1.00  0.00     0.166 HD
HETATM   16  C   UNL     1       6.488  29.765  56.274  1.00  0.00     0.043 A 
HETATM   17  C   UNL     1       5.423  28.882  56.102  1.00  0.00     0.001 A 
HETATM   18  C   UNL     1       6.451  30.845  57.164  1.00  0.00     0.030 A 
HETATM   19  C   UNL     1       4.254  29.105  56.863  1.00  0.00     0.014 A 
HETATM   20  C   UNL     1       4.198  30.179  57.760  1.00  0.00     0.001 A 
HETATM   21  C   UNL     1       5.285  31.036  57.908  1.00  0.00     0.002 A 
ENDBRANCH   1  11
BRANCH   2  22
HETATM   22  C   UNL     1       3.996  27.776  52.572  1.00  0.00     0.229 C 
BRANCH  22  23
HETATM   23  C   UNL     1       4.478  28.200  51.185  1.00  0.00     0.235 C 
HETATM   24  N   UNL     1       3.663  27.813  50.137  1.00  0.00    -0.355 N 
HETATM   25  H   UNL     1       2.926  27.146  50.360  1.00  0.00     0.162 HD
HETATM   26  O   UNL     1       5.575  28.730  51.020  1.00  0.00    -0.272 OA
BRANCH  24  27
HETATM   27  C   UNL     1       4.126  27.893  48.756  1.00  0.00     0.084 C 
HETATM   28  C   UNL     1       4.575  26.516  48.245  1.00  0.00     0.025 C 
HETATM   29  C   UNL     1       3.401  25.584  47.944  1.00  0.00     0.002 C 
HETATM   30  C   UNL     1       2.403  26.233  46.992  1.00  0.00     0.000 C 
HETATM   31  C   UNL     1       1.905  27.568  47.536  1.00  0.00     0.002 C 
HETATM   32  C   UNL     1       3.060  28.516  47.847  1.00  0.00     0.025 C 
ENDBRANCH  24  27
ENDBRANCH  22  23
ENDBRANCH   2  22
TORSDOF 4
ENDMDL
MODEL 4
REMARK VINA RESULT:      -9.1      2.051      6.139
REMARK  4 active torsions:
REMARK  status: ('A' for Active; 'I' for Inactive)
REMARK    1  A    between atoms: C_7  and  C_8 
REMARK    2  A    between atoms: N_9  and  C_10 
REMARK    3  A    between atoms: C_10  and  C_11 
REMARK       I    between atoms: C_11  and  N_12 
REMARK    4  A    between atoms: N_12  and  C_13 
ROOT
HETATM    1  C   UNL     1       5.975  27.512  52.288  1.00  0.00     0.158 C 
HETATM    2  N   UNL     1       5.315  26.307  51.816  1.00  0.00    -0.326 N 
HETATM    3  C   UNL     1       4.817  26.452  50.538  1.00  0.00     0.255 C 
HETATM    4  O   UNL     1       4.380  25.578  49.814  1.00  0.00    -0.267 OA
HETATM    5  C   UNL     1       4.957  27.871  50.184  1.00  0.00     0.040 A 
HETATM    6  C   UNL     1       5.614  28.519  51.232  1.00  0.00    -0.015 A 
HETATM    7  C   UNL     1       4.524  28.527  49.047  1.00  0.00     0.017 A 
HETATM    8  C   UNL     1       4.762  29.899  48.970  1.00  0.00     0.001 A 
HETATM    9  C   UNL     1       5.424  30.570  50.015  1.00  0.00     0.001 A 
HETATM   10  C   UNL     1       5.863  29.880  51.151  1.00  0.00     0.011 A 
ENDROOT
BRANCH   1  11
HETATM   11  C   UNL     1       5.450  28.012  53.600  1.00  0.00     0.004 A 
HETATM   12  C   UNL     1       4.134  28.404  53.835  1.00  0.00     0.015 A 
HETATM   13  C   UNL     1       2.947  28.422  52.939  1.00  0.00     0.069 C 
HETATM   14  N   UNL     1       4.044  28.835  55.133  1.00  0.00    -0.359 N 
HETATM   15  H   UNL     1       3.206  29.190  55.572  1.00  0.00     0.166 HD
HETATM   16  C   UNL     1       5.257  28.728  55.765  1.00  0.00     0.043 A 
HETATM   17  C   UNL     1       6.160  28.205  54.840  1.00  0.00     0.001 A 
HETATM   18  C   UNL     1       5.612  29.058  57.079  1.00  0.00     0.030 A 
HETATM   19  C   UNL     1       7.491  27.996  55.265  1.00  0.00     0.014 A 
HETATM   20  C   UNL     1       7.865  28.323  56.574  1.00  0.00     0.001 A 
HETATM   21  C   UNL     1       6.937  28.848  57.467  1.00  0.00     0.002 A 
ENDBRANCH   1  11
BRANCH   2  22
HETATM   22  C   UNL     1       5.364  25.047  52.538  1.00  0.00     0.229 C 
BRANCH  22  23
HETATM   23  C   UNL     1       6.735  24.371  52.541  1.00  0.00     0.235 C 
HETATM   24  N   UNL     1       6.978  23.542  53.621  1.00  0.00    -0.355 N 
HETATM   25  H   UNL     1       6.310  23.592  54.388  1.00  0.00     0.162 HD
HETATM   26  O   UNL     1       7.593  24.656  51.709  1.00  0.00    -0.272 OA
BRANCH  24  27
HETATM   27  C   UNL     1       8.324  23.059  53.909  1.00  0.00     0.084 C 
HETATM   28  C   UNL     1       8.583  23.018  55.423  1.00  0.00     0.025 C 
HETATM   29  C   UNL     1       7.868  21.859  56.115  1.00  0.00     0.002 C 
HETATM   30  C   UNL     1       8.201  20.524  55.457  1.00  0.00     0.000 C 
HETATM   31  C   UNL     1       7.878  20.544  53.967  1.00  0.00     0.002 C 
HETATM   32  C   UNL     1       8.578  21.697  53.253  1.00  0.00     0.025 C 
ENDBRANCH  24  27
ENDBRANCH  22  23
ENDBRANCH   2  22
TORSDOF 4
ENDMDL
MODEL 5
REMARK VINA RESULT:      -9.1     10.830     13.088
REMARK  4 active torsions:
REMARK  status: ('A' for Active; 'I' for Inactive)
REMARK    1  A    between atoms: C_7  and  C_8 
REMARK    2  A    between atoms: N_9  and  C_10 
REMARK    3  A    between atoms: C_10  and  C_11 
REMARK       I    between atoms: C_11  and  N_12 
REMARK    4  A    between atoms: N_12  and  C_13 
ROOT
HETATM    1  C   UNL     1       4.610  33.846  63.696  1.00  0.00     0.158 C 
HETATM    2  N   UNL     1       3.847  33.809  62.459  1.00  0.00    -0.326 N 
HETATM    3  C   UNL     1       4.497  33.104  61.468  1.00  0.00     0.255 C 
HETATM    4  O   UNL     1       4.042  32.749  60.398  1.00  0.00    -0.267 OA
HETATM    5  C   UNL     1       5.848  32.813  61.966  1.00  0.00     0.040 A 
HETATM    6  C   UNL     1       5.938  33.280  63.280  1.00  0.00    -0.015 A 
HETATM    7  C   UNL     1       6.902  32.207  61.309  1.00  0.00     0.017 A 
HETATM    8  C   UNL     1       8.101  32.074  62.009  1.00  0.00     0.001 A 
HETATM    9  C   UNL     1       8.212  32.536  63.333  1.00  0.00     0.001 A 
HETATM   10  C   UNL     1       7.125  33.136  63.981  1.00  0.00     0.011 A 
ENDROOT
BRANCH   1  11
HETATM   11  C   UNL     1       4.843  35.231  64.219  1.00  0.00     0.004 A 
HETATM   12  C   UNL     1       4.566  35.650  65.518  1.00  0.00     0.015 A 
HETATM   13  C   UNL     1       4.024  34.907  66.688  1.00  0.00     0.069 C 
HETATM   14  N   UNL     1       4.870  36.983  65.610  1.00  0.00    -0.359 N 
HETATM   15  H   UNL     1       4.756  37.552  66.437  1.00  0.00     0.166 HD
HETATM   16  C   UNL     1       5.352  37.454  64.415  1.00  0.00     0.043 A 
HETATM   17  C   UNL     1       5.360  36.383  63.522  1.00  0.00     0.001 A 
HETATM   18  C   UNL     1       5.772  38.744  64.067  1.00  0.00     0.030 A 
HETATM   19  C   UNL     1       5.825  36.623  62.210  1.00  0.00     0.014 A 
HETATM   20  C   UNL     1       6.248  37.907  61.843  1.00  0.00     0.001 A 
HETATM   21  C   UNL     1       6.219  38.952  62.761  1.00  0.00     0.002 A 
ENDBRANCH   1  11
BRANCH   2  22
HETATM   22  C   UNL     1       2.478  34.287  62.363  1.00  0.00     0.229 C 
BRANCH  22  23
HETATM   23  C   UNL     1       2.077  34.786  60.975  1.00  0.00     0.235 C 
HETATM   24  N   UNL     1       2.822  35.848  60.496  1.00  0.00    -0.355 N 
HETATM   25  H   UNL     1       3.439  36.306  61.165  1.00  0.00     0.162 HD
HETATM   26  O   UNL     1       1.082  34.352  60.399  1.00  0.00    -0.272 OA
BRANCH  24  27
HETATM   27  C   UNL     1       2.384  36.608  59.330  1.00  0.00     0.084 C 
HETATM   28  C   UNL     1       2.016  38.049  59.718  1.00  0.00     0.025 C 
HETATM   29  C   UNL     1       3.242  38.918  59.998  1.00  0.00     0.002 C 
HETATM   30  C   UNL     1       4.225  38.888  58.833  1.00  0.00     0.000 C 
HETATM   31  C   UNL     1       4.643  37.460  58.495  1.00  0.00     0.002 C 
HETATM   32  C   UNL     1       3.434  36.571  58.215  1.00  0.00     0.025 C 
ENDBRANCH  24  27
ENDBRANCH  22  23
ENDBRANCH   2  22
TORSDOF 4
ENDMDL
MODEL 6
REMARK VINA RESULT:      -8.9      1.729      2.436
REMARK  4 active torsions:
REMARK  status: ('A' for Active; 'I' for Inactive)
REMARK    1  A    between atoms: C_7  and  C_8 
REMARK    2  A    between atoms: N_9  and  C_10 
REMARK    3  A    between atoms: C_10  and  C_11 
REMARK       I    between atoms: C_11  and  N_12 
REMARK    4  A    between atoms: N_12  and  C_13 
ROOT
HETATM    1  C   UNL     1       6.016  26.929  55.072  1.00  0.00     0.158 C 
HETATM    2  N   UNL     1       6.651  27.115  53.777  1.00  0.00    -0.326 N 
HETATM    3  C   UNL     1       7.473  26.060  53.445  1.00  0.00     0.255 C 
HETATM    4  O   UNL     1       7.992  25.841  52.366  1.00  0.00    -0.267 OA
HETATM    5  C   UNL     1       7.574  25.204  54.634  1.00  0.00     0.040 A 
HETATM    6  C   UNL     1       6.736  25.731  55.621  1.00  0.00    -0.015 A 
HETATM    7  C   UNL     1       8.349  24.077  54.828  1.00  0.00     0.017 A 
HETATM    8  C   UNL     1       8.278  23.458  56.077  1.00  0.00     0.001 A 
HETATM    9  C   UNL     1       7.440  23.972  57.083  1.00  0.00     0.001 A 
HETATM   10  C   UNL     1       6.656  25.110  56.858  1.00  0.00     0.011 A 
ENDROOT
BRANCH   1  11
HETATM   11  C   UNL     1       6.232  28.071  56.018  1.00  0.00     0.004 A 
HETATM   12  C   UNL     1       5.222  28.882  56.531  1.00  0.00     0.015 A 
HETATM   13  C   UNL     1       3.748  28.849  56.332  1.00  0.00     0.069 C 
HETATM   14  N   UNL     1       5.805  29.837  57.324  1.00  0.00    -0.359 N 
HETATM   15  H   UNL     1       5.310  30.568  57.815  1.00  0.00     0.166 HD
HETATM   16  C   UNL     1       7.166  29.672  57.360  1.00  0.00     0.043 A 
HETATM   17  C   UNL     1       7.470  28.569  56.563  1.00  0.00     0.001 A 
HETATM   18  C   UNL     1       8.139  30.421  58.034  1.00  0.00     0.030 A 
HETATM   19  C   UNL     1       8.827  28.196  56.446  1.00  0.00     0.014 A 
HETATM   20  C   UNL     1       9.814  28.933  57.111  1.00  0.00     0.001 A 
HETATM   21  C   UNL     1       9.472  30.032  57.893  1.00  0.00     0.002 A 
ENDBRANCH   1  11
BRANCH   2  22
HETATM   22  C   UNL     1       6.290  28.192  52.870  1.00  0.00     0.229 C 
BRANCH  22  23
HETATM   23  C   UNL     1       4.986  27.965  52.104  1.00  0.00     0.235 C 
HETATM   24  N   UNL     1       5.137  27.701  50.755  1.00  0.00    -0.355 N 
HETATM   25  H   UNL     1       6.066  27.851  50.367  1.00  0.00     0.162 HD
HETATM   26  O   UNL     1       3.891  28.139  52.636  1.00  0.00    -0.272 OA
BRANCH  24  27
HETATM   27  C   UNL     1       3.994  27.745  49.850  1.00  0.00     0.084 C 
HETATM   28  C   UNL     1       3.799  29.158  49.278  1.00  0.00     0.025 C 
HETATM   29  C   UNL     1       4.835  29.514  48.212  1.00  0.00     0.002 C 
HETATM   30  C   UNL     1       4.880  28.466  47.106  1.00  0.00     0.000 C 
HETATM   31  C   UNL     1       5.144  27.074  47.669  1.00  0.00     0.002 C 
HETATM   32  C   UNL     1       4.123  26.697  48.739  1.00  0.00     0.025 C 
ENDBRANCH  24  27
ENDBRANCH  22  23
ENDBRANCH   2  22
TORSDOF 4
ENDMDL
MODEL 7
REMARK VINA RESULT:      -8.9      3.496      6.240
REMARK  4 active torsions:
REMARK  status: ('A' for Active; 'I' for Inactive)
REMARK    1  A    between atoms: C_7  and  C_8 
REMARK    2  A    between atoms: N_9  and  C_10 
REMARK    3  A    between atoms: C_10  and  C_11 
REMARK       I    between atoms: C_11  and  N_12 
REMARK    4  A    between atoms: N_12  and  C_13 
ROOT
HETATM    1  C   UNL     1       7.220  28.301  55.450  1.00  0.00     0.158 C 
HETATM    2  N   UNL     1       6.065  28.719  56.229  1.00  0.00    -0.326 N 
HETATM    3  C   UNL     1       6.397  29.646  57.194  1.00  0.00     0.255 C 
HETATM    4  O   UNL     1       5.634  30.308  57.873  1.00  0.00    -0.267 OA
HETATM    5  C   UNL     1       7.863  29.727  57.224  1.00  0.00     0.040 A 
HETATM    6  C   UNL     1       8.365  28.905  56.212  1.00  0.00    -0.015 A 
HETATM    7  C   UNL     1       8.674  30.447  58.080  1.00  0.00     0.017 A 
HETATM    8  C   UNL     1      10.053  30.326  57.909  1.00  0.00     0.001 A 
HETATM    9  C   UNL     1      10.579  29.505  56.895  1.00  0.00     0.001 A 
HETATM   10  C   UNL     1       9.735  28.794  56.033  1.00  0.00     0.011 A 
ENDROOT
BRANCH   1  11
HETATM   11  C   UNL     1       7.418  26.817  55.417  1.00  0.00     0.004 A 
HETATM   12  C   UNL     1       7.556  26.005  56.541  1.00  0.00     0.015 A 
HETATM   13  C   UNL     1       7.526  26.335  57.991  1.00  0.00     0.069 C 
HETATM   14  N   UNL     1       7.760  24.719  56.115  1.00  0.00    -0.359 N 
HETATM   15  H   UNL     1       7.904  23.921  56.718  1.00  0.00     0.166 HD
HETATM   16  C   UNL     1       7.748  24.654  54.745  1.00  0.00     0.043 A 
HETATM   17  C   UNL     1       7.525  25.947  54.272  1.00  0.00     0.001 A 
HETATM   18  C   UNL     1       7.921  23.550  53.901  1.00  0.00     0.030 A 
HETATM   19  C   UNL     1       7.466  26.135  52.873  1.00  0.00     0.014 A 
HETATM   20  C   UNL     1       7.639  25.043  52.014  1.00  0.00     0.001 A 
HETATM   21  C   UNL     1       7.865  23.769  52.523  1.00  0.00     0.002 A 
ENDBRANCH   1  11
BRANCH   2  22
HETATM   22  C   UNL     1       4.704  28.347  55.882  1.00  0.00     0.229 C 
BRANCH  22  23
HETATM   23  C   UNL     1       4.077  29.199  54.778  1.00  0.00     0.235 C 
HETATM   24  N   UNL     1       3.853  30.521  55.113  1.00  0.00    -0.355 N 
HETATM   25  H   UNL     1       3.960  30.762  56.097  1.00  0.00     0.162 HD
HETATM   26  O   UNL     1       3.685  28.699  53.725  1.00  0.00    -0.272 OA
BRANCH  24  27
HETATM   27  C   UNL     1       3.013  31.376  54.281  1.00  0.00     0.084 C 
HETATM   28  C   UNL     1       2.078  32.237  55.143  1.00  0.00     0.025 C 
HETATM   29  C   UNL     1       2.805  33.390  55.836  1.00  0.00     0.002 C 
HETATM   30  C   UNL     1       3.583  34.240  54.837  1.00  0.00     0.000 C 
HETATM   31  C   UNL     1       4.561  33.392  54.030  1.00  0.00     0.002 C 
HETATM   32  C   UNL     1       3.858  32.232  53.331  1.00  0.00     0.025 C 
ENDBRANCH  24  27
ENDBRANCH  22  23
ENDBRANCH   2  22
TORSDOF 4
ENDMDL
MODEL 8
REMARK VINA RESULT:      -8.9      2.151      4.868
REMARK  4 active torsions:
REMARK  status: ('A' for Active; 'I' for Inactive)
REMARK    1  A    between atoms: C_7  and  C_8 
REMARK    2  A    between atoms: N_9  and  C_10 
REMARK    3  A    between atoms: C_10  and  C_11 
REMARK       I    between atoms: C_11  and  N_12 
REMARK    4  A    between atoms: N_12  and  C_13 
ROOT
HETATM    1  C   UNL     1       6.342  27.882  54.574  1.00  0.00     0.158 C 
HETATM    2  N   UNL     1       5.002  28.446  54.612  1.00  0.00    -0.326 N 
HETATM    3  C   UNL     1       4.901  29.486  55.511  1.00  0.00     0.255 C 
HETATM    4  O   UNL     1       3.973  30.263  55.637  1.00  0.00    -0.267 OA
HETATM    5  C   UNL     1       6.156  29.518  56.272  1.00  0.00     0.040 A 
HETATM    6  C   UNL     1       7.010  28.545  55.746  1.00  0.00    -0.015 A 
HETATM    7  C   UNL     1       6.501  30.321  57.343  1.00  0.00     0.017 A 
HETATM    8  C   UNL     1       7.762  30.128  57.908  1.00  0.00     0.001 A 
HETATM    9  C   UNL     1       8.636  29.155  57.391  1.00  0.00     0.001 A 
HETATM   10  C   UNL     1       8.267  28.361  56.298  1.00  0.00     0.011 A 
ENDROOT
BRANCH   1  11
HETATM   11  C   UNL     1       6.379  26.401  54.798  1.00  0.00     0.004 A 
HETATM   12  C   UNL     1       5.821  25.747  55.894  1.00  0.00     0.015 A 
HETATM   13  C   UNL     1       5.064  26.272  57.063  1.00  0.00     0.069 C 
HETATM   14  N   UNL     1       6.089  24.409  55.772  1.00  0.00    -0.359 N 
HETATM   15  H   UNL     1       5.813  23.696  56.434  1.00  0.00     0.166 HD
HETATM   16  C   UNL     1       6.795  24.158  54.623  1.00  0.00     0.043 A 
HETATM   17  C   UNL     1       6.986  25.381  53.981  1.00  0.00     0.001 A 
HETATM   18  C   UNL     1       7.276  22.944  54.117  1.00  0.00     0.030 A 
HETATM   19  C   UNL     1       7.692  25.378  52.757  1.00  0.00     0.014 A 
HETATM   20  C   UNL     1       8.182  24.175  52.236  1.00  0.00     0.001 A 
HETATM   21  C   UNL     1       7.977  22.975  52.910  1.00  0.00     0.002 A 
ENDBRANCH   1  11
BRANCH   2  22
HETATM   22  C   UNL     1       3.965  28.078  53.663  1.00  0.00     0.229 C 
BRANCH  22  23
HETATM   23  C   UNL     1       4.418  28.069  52.202  1.00  0.00     0.235 C 
HETATM   24  N   UNL     1       4.240  29.263  51.526  1.00  0.00    -0.355 N 
HETATM   25  H   UNL     1       3.676  29.969  51.997  1.00  0.00     0.162 HD
HETATM   26  O   UNL     1       4.786  27.035  51.650  1.00  0.00    -0.272 OA
BRANCH  24  27
HETATM   27  C   UNL     1       4.355  29.327  50.073  1.00  0.00     0.084 C 
HETATM   28  C   UNL     1       3.198  30.133  49.464  1.00  0.00     0.025 C 
HETATM   29  C   UNL     1       3.346  31.639  49.682  1.00  0.00     0.002 C 
HETATM   30  C   UNL     1       4.698  32.144  49.190  1.00  0.00     0.000 C 
HETATM   31  C   UNL     1       5.847  31.389  49.849  1.00  0.00     0.002 C 
HETATM   32  C   UNL     1       5.719  29.881  49.647  1.00  0.00     0.025 C 
ENDBRANCH  24  27
ENDBRANCH  22  23
ENDBRANCH   2  22
TORSDOF 4
ENDMDL
MODEL 9
REMARK VINA RESULT:      -8.9      3.403      7.964
REMARK  4 active torsions:
REMARK  status: ('A' for Active; 'I' for Inactive)
REMARK    1  A    between atoms: C_7  and  C_8 
REMARK    2  A    between atoms: N_9  and  C_10 
REMARK    3  A    between atoms: C_10  and  C_11 
REMARK       I    between atoms: C_11  and  N_12 
REMARK    4  A    between atoms: N_12  and  C_13 
ROOT
HETATM    1  C   UNL     1       7.159  27.566  55.349  1.00  0.00     0.158 C 
HETATM    2  N   UNL     1       7.234  27.581  56.801  1.00  0.00    -0.326 N 
HETATM    3  C   UNL     1       7.707  26.390  57.310  1.00  0.00     0.255 C 
HETATM    4  O   UNL     1       8.047  26.162  58.455  1.00  0.00    -0.267 OA
HETATM    5  C   UNL     1       7.773  25.442  56.190  1.00  0.00     0.040 A 
HETATM    6  C   UNL     1       7.416  26.122  55.022  1.00  0.00    -0.015 A 
HETATM    7  C   UNL     1       8.099  24.100  56.208  1.00  0.00     0.017 A 
HETATM    8  C   UNL     1       8.058  23.414  54.994  1.00  0.00     0.001 A 
HETATM    9  C   UNL     1       7.703  24.081  53.807  1.00  0.00     0.001 A 
HETATM   10  C   UNL     1       7.387  25.445  53.813  1.00  0.00     0.011 A 
ENDROOT
BRANCH   1  11
HETATM   11  C   UNL     1       5.808  27.928  54.812  1.00  0.00     0.004 A 
HETATM   12  C   UNL     1       4.612  27.813  55.519  1.00  0.00     0.015 A 
HETATM   13  C   UNL     1       4.341  27.357  56.909  1.00  0.00     0.069 C 
HETATM   14  N   UNL     1       3.591  28.198  54.691  1.00  0.00    -0.359 N 
HETATM   15  H   UNL     1       2.611  28.202  54.938  1.00  0.00     0.166 HD
HETATM   16  C   UNL     1       4.075  28.576  53.465  1.00  0.00     0.043 A 
HETATM   17  C   UNL     1       5.462  28.431  53.506  1.00  0.00     0.001 A 
HETATM   18  C   UNL     1       3.386  29.027  52.332  1.00  0.00     0.030 A 
HETATM   19  C   UNL     1       6.194  28.768  52.346  1.00  0.00     0.014 A 
HETATM   20  C   UNL     1       5.522  29.219  51.203  1.00  0.00     0.001 A 
HETATM   21  C   UNL     1       4.137  29.345  51.198  1.00  0.00     0.002 A 
ENDBRANCH   1  11
BRANCH   2  22
HETATM   22  C   UNL     1       7.027  28.785  57.588  1.00  0.00     0.229 C 
BRANCH  22  23
HETATM   23  C   UNL     1       8.296  29.352  58.225  1.00  0.00     0.235 C 
HETATM   24  N   UNL     1       8.118  29.937  59.465  1.00  0.00    -0.355 N 
HETATM   25  H   UNL     1       7.155  30.092  59.758  1.00  0.00     0.162 HD
HETATM   26  O   UNL     1       9.359  29.394  57.610  1.00  0.00    -0.272 OA
BRANCH  24  27
HETATM   27  C   UNL     1       9.162  30.764  60.062  1.00  0.00     0.084 C 
HETATM   28  C   UNL     1       8.820  32.256  59.942  1.00  0.00     0.025 C 
HETATM   29  C   UNL     1       7.724  32.693  60.914  1.00  0.00     0.002 C 
HETATM   30  C   UNL     1       8.069  32.314  62.350  1.00  0.00     0.000 C 
HETATM   31  C   UNL     1       8.340  30.819  62.480  1.00  0.00     0.002 C 
HETATM   32  C   UNL     1       9.429  30.358  61.516  1.00  0.00     0.025 C 
ENDBRANCH  24  27
ENDBRANCH  22  23
ENDBRANCH   2  22
TORSDOF 4
ENDMDL
MODEL 10
REMARK VINA RESULT:      -8.8     11.457     14.358
REMARK  4 active torsions:
REMARK  status: ('A' for Active; 'I' for Inactive)
REMARK    1  A    between atoms: C_7  and  C_8 
REMARK    2  A    between atoms: N_9  and  C_10 
REMARK    3  A    between atoms: C_10  and  C_11 
REMARK       I    between atoms: C_11  and  N_12 
REMARK    4  A    between atoms: N_12  and  C_13 
ROOT
HETATM    1  C   UNL     1       4.741  35.063  63.266  1.00  0.00     0.158 C 
HETATM    2  N   UNL     1       4.305  35.136  61.881  1.00  0.00    -0.326 N 
HETATM    3  C   UNL     1       4.981  34.243  61.076  1.00  0.00     0.255 C 
HETATM    4  O   UNL     1       4.719  33.945  59.926  1.00  0.00    -0.267 OA
HETATM    5  C   UNL     1       6.065  33.672  61.885  1.00  0.00     0.040 A 
HETATM    6  C   UNL     1       5.953  34.179  63.183  1.00  0.00    -0.015 A 
HETATM    7  C   UNL     1       7.066  32.800  61.502  1.00  0.00     0.017 A 
HETATM    8  C   UNL     1       7.998  32.429  62.472  1.00  0.00     0.001 A 
HETATM    9  C   UNL     1       7.901  32.927  63.784  1.00  0.00     0.001 A 
HETATM   10  C   UNL     1       6.870  33.800  64.150  1.00  0.00     0.011 A 
ENDROOT
BRANCH   1  11
HETATM   11  C   UNL     1       5.171  36.382  63.832  1.00  0.00     0.004 A 
HETATM   12  C   UNL     1       4.895  36.823  65.125  1.00  0.00     0.015 A 
HETATM   13  C   UNL     1       4.172  36.164  66.246  1.00  0.00     0.069 C 
HETATM   14  N   UNL     1       5.411  38.085  65.263  1.00  0.00    -0.359 N 
HETATM   15  H   UNL     1       5.346  38.653  66.097  1.00  0.00     0.166 HD
HETATM   16  C   UNL     1       6.030  38.486  64.107  1.00  0.00     0.043 A 
HETATM   17  C   UNL     1       5.910  37.441  63.191  1.00  0.00     0.001 A 
HETATM   18  C   UNL     1       6.678  39.692  63.812  1.00  0.00     0.030 A 
HETATM   19  C   UNL     1       6.482  37.618  61.912  1.00  0.00     0.014 A 
HETATM   20  C   UNL     1       7.132  38.818  61.597  1.00  0.00     0.001 A 
HETATM   21  C   UNL     1       7.226  39.841  62.536  1.00  0.00     0.002 A 
ENDBRANCH   1  11
BRANCH   2  22
HETATM   22  C   UNL     1       3.154  35.915  61.457  1.00  0.00     0.229 C 
BRANCH  22  23
HETATM   23  C   UNL     1       3.491  37.104  60.557  1.00  0.00     0.235 C 
HETATM   24  N   UNL     1       3.013  38.325  60.995  1.00  0.00    -0.355 N 
HETATM   25  H   UNL     1       2.346  38.299  61.765  1.00  0.00     0.162 HD
HETATM   26  O   UNL     1       4.033  36.949  59.464  1.00  0.00    -0.272 OA
BRANCH  24  27
HETATM   27  C   UNL     1       3.006  39.489  60.115  1.00  0.00     0.084 C 
HETATM   28  C   UNL     1       1.647  40.204  60.158  1.00  0.00     0.025 C 
HETATM   29  C   UNL     1       1.438  41.002  61.444  1.00  0.00     0.002 C 
HETATM   30  C   UNL     1       2.587  41.973  61.692  1.00  0.00     0.000 C 
HETATM   31  C   UNL     1       3.929  41.249  61.719  1.00  0.00     0.002 C 
HETATM   32  C   UNL     1       4.159  40.442  60.444  1.00  0.00     0.025 C 
ENDBRANCH  24  27
ENDBRANCH  22  23
ENDBRANCH   2  22
TORSDOF 4
ENDMDL
