MODEL 1
REMARK VINA RESULT:      -8.4      0.000      0.000
REMARK  5 active torsions:
REMARK  status: ('A' for Active; 'I' for Inactive)
REMARK    1  A    between atoms: C_3  and  N_4 
REMARK       I    between atoms: N_4  and  C_5 
REMARK       I    between atoms: C_5  and  N_6 
REMARK    2  A    between atoms: N_6  and  C_7 
REMARK    3  A    between atoms: C_7  and  C_8 
REMARK    4  A    between atoms: C_8  and  C_9 
REMARK    5  A    between atoms: N_15  and  C_16 
ROOT
HETATM    1  C   UNL     1       6.990  27.452  57.235  1.00  0.00     0.054 C 
HETATM    2  C   UNL     1       6.778  26.339  56.280  1.00  0.00     0.003 A 
HETATM    3  C   UNL     1       5.795  26.207  55.271  1.00  0.00     0.159 A 
HETATM    4  N   UNL     1       5.947  25.072  54.584  1.00  0.00    -0.149 NA
HETATM    5  N   UNL     1       6.999  24.426  55.162  1.00  0.00    -0.241 N 
HETATM    6  C   UNL     1       7.549  25.203  56.153  1.00  0.00     0.129 A 
ENDROOT
BRANCH   3   7
HETATM    7  N   UNL     1       4.807  27.135  55.023  1.00  0.00    -0.291 N 
HETATM    8  C   UNL     1       4.439  27.707  53.842  1.00  0.00     0.322 C 
HETATM    9  N   UNL     1       5.193  27.415  52.749  1.00  0.00    -0.339 N 
HETATM   10  O   UNL     1       3.475  28.468  53.815  1.00  0.00    -0.247 OA
HETATM   11  H   UNL     1       5.839  26.639  52.879  1.00  0.00     0.164 HD
HETATM   12  H   UNL     1       4.241  27.435  55.801  1.00  0.00     0.172 HD
BRANCH   9  13
HETATM   13  C   UNL     1       4.828  27.828  51.404  1.00  0.00     0.082 C 
HETATM   14  C   UNL     1       5.647  29.047  50.988  1.00  0.00     0.032 C 
BRANCH  13  15
HETATM   15  C   UNL     1       4.936  26.665  50.397  1.00  0.00     0.029 C 
BRANCH  15  16
HETATM   16  C   UNL     1       4.115  26.858  49.150  1.00  0.00    -0.013 A 
HETATM   17  C   UNL     1       4.689  26.449  47.817  1.00  0.00     0.005 A 
HETATM   18  C   UNL     1       3.549  25.671  48.412  1.00  0.00     0.005 A 
ENDBRANCH  15  16
ENDBRANCH  13  15
ENDBRANCH   9  13
ENDBRANCH   3   7
BRANCH   5  19
HETATM   19  C   UNL     1       7.402  23.148  54.665  1.00  0.00     0.079 A 
HETATM   20  C   UNL     1       7.712  22.868  53.325  1.00  0.00     0.062 A 
HETATM   21 CL   UNL     1       7.846  24.036  52.055  1.00  0.00    -0.082 Cl
HETATM   22  C   UNL     1       8.052  21.558  52.945  1.00  0.00     0.026 A 
HETATM   23  C   UNL     1       8.105  20.527  53.883  1.00  0.00     0.002 A 
HETATM   24  C   UNL     1       7.833  20.798  55.215  1.00  0.00     0.002 A 
HETATM   25  C   UNL     1       7.489  22.095  55.605  1.00  0.00     0.033 A 
ENDBRANCH   5  19
TORSDOF 5
ENDMDL
MODEL 2
REMARK VINA RESULT:      -8.4      2.152      5.171
REMARK  5 active torsions:
REMARK  status: ('A' for Active; 'I' for Inactive)
REMARK    1  A    between atoms: C_3  and  N_4 
REMARK       I    between atoms: N_4  and  C_5 
REMARK       I    between atoms: C_5  and  N_6 
REMARK    2  A    between atoms: N_6  and  C_7 
REMARK    3  A    between atoms: C_7  and  C_8 
REMARK    4  A    between atoms: C_8  and  C_9 
REMARK    5  A    between atoms: N_15  and  C_16 
ROOT
HETATM    1  C   UNL     1       6.100  25.825  51.491  1.00  0.00     0.054 C 
HETATM    2  C   UNL     1       6.320  25.089  52.759  1.00  0.00     0.003 A 
HETATM    3  C   UNL     1       5.817  25.370  54.051  1.00  0.00     0.159 A 
HETATM    4  N   UNL     1       6.208  24.453  54.938  1.00  0.00    -0.149 NA
HETATM    5  N   UNL     1       7.007  23.588  54.253  1.00  0.00    -0.241 N 
HETATM    6  C   UNL     1       7.041  23.925  52.921  1.00  0.00     0.129 A 
ENDROOT
BRANCH   3   7
HETATM    7  N   UNL     1       5.019  26.451  54.355  1.00  0.00    -0.291 N 
HETATM    8  C   UNL     1       5.333  27.588  55.036  1.00  0.00     0.322 C 
HETATM    9  N   UNL     1       6.574  27.659  55.589  1.00  0.00    -0.339 N 
HETATM   10  O   UNL     1       4.493  28.479  55.144  1.00  0.00    -0.247 OA
HETATM   11  H   UNL     1       7.217  26.938  55.269  1.00  0.00     0.164 HD
HETATM   12  H   UNL     1       4.069  26.441  54.018  1.00  0.00     0.172 HD
BRANCH   9  13
HETATM   13  C   UNL     1       7.096  28.867  56.207  1.00  0.00     0.082 C 
HETATM   14  C   UNL     1       6.871  28.825  57.716  1.00  0.00     0.032 C 
BRANCH  13  15
HETATM   15  C   UNL     1       8.571  29.113  55.829  1.00  0.00     0.029 C 
BRANCH  15  16
HETATM   16  C   UNL     1       9.501  29.182  57.011  1.00  0.00    -0.013 A 
HETATM   17  C   UNL     1      10.974  29.401  56.780  1.00  0.00     0.005 A 
HETATM   18  C   UNL     1      10.145  30.487  57.406  1.00  0.00     0.005 A 
ENDBRANCH  15  16
ENDBRANCH  13  15
ENDBRANCH   9  13
ENDBRANCH   3   7
BRANCH   5  19
HETATM   19  C   UNL     1       7.615  22.492  54.940  1.00  0.00     0.079 A 
HETATM   20  C   UNL     1       7.921  21.251  54.360  1.00  0.00     0.062 A 
HETATM   21 CL   UNL     1       7.797  20.865  52.679  1.00  0.00    -0.082 Cl
HETATM   22  C   UNL     1       8.476  20.228  55.150  1.00  0.00     0.026 A 
HETATM   23  C   UNL     1       8.747  20.430  56.503  1.00  0.00     0.002 A 
HETATM   24  C   UNL     1       8.479  21.663  57.079  1.00  0.00     0.002 A 
HETATM   25  C   UNL     1       7.923  22.686  56.307  1.00  0.00     0.033 A 
ENDBRANCH   5  19
TORSDOF 5
ENDMDL
MODEL 3
REMARK VINA RESULT:      -8.2      3.333      6.549
REMARK  5 active torsions:
REMARK  status: ('A' for Active; 'I' for Inactive)
REMARK    1  A    between atoms: C_3  and  N_4 
REMARK       I    between atoms: N_4  and  C_5 
REMARK       I    between atoms: C_5  and  N_6 
REMARK    2  A    between atoms: N_6  and  C_7 
REMARK    3  A    between atoms: C_7  and  C_8 
REMARK    4  A    between atoms: C_8  and  C_9 
REMARK    5  A    between atoms: N_15  and  C_16 
ROOT
HETATM    1  C   UNL     1       5.493  25.507  57.254  1.00  0.00     0.054 C 
HETATM    2  C   UNL     1       6.283  26.719  56.930  1.00  0.00     0.003 A 
HETATM    3  C   UNL     1       6.231  27.534  55.774  1.00  0.00     0.159 A 
HETATM    4  N   UNL     1       7.075  28.564  55.863  1.00  0.00    -0.149 NA
HETATM    5  N   UNL     1       7.722  28.414  57.052  1.00  0.00    -0.241 N 
HETATM    6  C   UNL     1       7.215  27.335  57.737  1.00  0.00     0.129 A 
ENDROOT
BRANCH   3   7
HETATM    7  N   UNL     1       5.409  27.297  54.693  1.00  0.00    -0.291 N 
HETATM    8  C   UNL     1       5.507  26.338  53.732  1.00  0.00     0.322 C 
HETATM    9  N   UNL     1       6.609  25.542  53.757  1.00  0.00    -0.339 N 
HETATM   10  O   UNL     1       4.625  26.244  52.881  1.00  0.00    -0.247 OA
HETATM   11  H   UNL     1       7.157  25.610  54.612  1.00  0.00     0.164 HD
HETATM   12  H   UNL     1       4.598  27.886  54.585  1.00  0.00     0.172 HD
BRANCH   9  13
HETATM   13  C   UNL     1       6.768  24.384  52.892  1.00  0.00     0.082 C 
HETATM   14  C   UNL     1       7.786  24.683  51.795  1.00  0.00     0.032 C 
BRANCH  13  15
HETATM   15  C   UNL     1       7.111  23.112  53.694  1.00  0.00     0.029 C 
BRANCH  15  16
HETATM   16  C   UNL     1       7.980  22.135  52.947  1.00  0.00    -0.013 A 
HETATM   17  C   UNL     1       9.049  21.377  53.692  1.00  0.00     0.005 A 
HETATM   18  C   UNL     1       7.838  20.651  53.177  1.00  0.00     0.005 A 
ENDBRANCH  15  16
ENDBRANCH  13  15
ENDBRANCH   9  13
ENDBRANCH   3   7
BRANCH   5  19
HETATM   19  C   UNL     1       8.725  29.356  57.435  1.00  0.00     0.079 A 
HETATM   20  C   UNL     1       8.498  30.500  58.217  1.00  0.00     0.062 A 
HETATM   21 CL   UNL     1       7.017  30.895  59.018  1.00  0.00    -0.082 Cl
HETATM   22  C   UNL     1       9.558  31.382  58.490  1.00  0.00     0.026 A 
HETATM   23  C   UNL     1      10.844  31.134  58.012  1.00  0.00     0.002 A 
HETATM   24  C   UNL     1      11.087  29.990  57.266  1.00  0.00     0.002 A 
HETATM   25  C   UNL     1      10.042  29.107  56.983  1.00  0.00     0.033 A 
ENDBRANCH   5  19
TORSDOF 5
ENDMDL
MODEL 4
REMARK VINA RESULT:      -7.8      5.062      8.696
REMARK  5 active torsions:
REMARK  status: ('A' for Active; 'I' for Inactive)
REMARK    1  A    between atoms: C_3  and  N_4 
REMARK       I    between atoms: N_4  and  C_5 
REMARK       I    between atoms: C_5  and  N_6 
REMARK    2  A    between atoms: N_6  and  C_7 
REMARK    3  A    between atoms: C_7  and  C_8 
REMARK    4  A    between atoms: C_8  and  C_9 
REMARK    5  A    between atoms: N_15  and  C_16 
ROOT
HETATM    1  C   UNL     1       4.428  30.402  57.628  1.00  0.00     0.054 C 
HETATM    2  C   UNL     1       5.611  29.525  57.457  1.00  0.00     0.003 A 
HETATM    3  C   UNL     1       6.978  29.822  57.670  1.00  0.00     0.159 A 
HETATM    4  N   UNL     1       7.751  28.758  57.444  1.00  0.00    -0.149 NA
HETATM    5  N   UNL     1       6.910  27.766  57.037  1.00  0.00    -0.241 N 
HETATM    6  C   UNL     1       5.605  28.196  57.093  1.00  0.00     0.129 A 
ENDROOT
BRANCH   3   7
HETATM    7  N   UNL     1       7.453  31.053  58.066  1.00  0.00    -0.291 N 
HETATM    8  C   UNL     1       8.005  31.421  59.256  1.00  0.00     0.322 C 
HETATM    9  N   UNL     1       8.020  30.492  60.248  1.00  0.00    -0.339 N 
HETATM   10  O   UNL     1       8.438  32.563  59.393  1.00  0.00    -0.247 OA
HETATM   11  H   UNL     1       7.798  29.547  59.941  1.00  0.00     0.164 HD
HETATM   12  H   UNL     1       7.424  31.804  57.394  1.00  0.00     0.172 HD
BRANCH   9  13
HETATM   13  C   UNL     1       8.711  30.694  61.510  1.00  0.00     0.082 C 
HETATM   14  C   UNL     1       9.916  31.609  61.311  1.00  0.00     0.032 C 
BRANCH  13  15
HETATM   15  C   UNL     1       7.757  31.196  62.613  1.00  0.00     0.029 C 
BRANCH  15  16
HETATM   16  C   UNL     1       8.015  32.615  63.045  1.00  0.00    -0.013 A 
HETATM   17  C   UNL     1       6.857  33.574  63.159  1.00  0.00     0.005 A 
HETATM   18  C   UNL     1       7.561  33.100  64.399  1.00  0.00     0.005 A 
ENDBRANCH  15  16
ENDBRANCH  13  15
ENDBRANCH   9  13
ENDBRANCH   3   7
BRANCH   5  19
HETATM   19  C   UNL     1       7.442  26.487  56.686  1.00  0.00     0.079 A 
HETATM   20  C   UNL     1       7.346  25.897  55.416  1.00  0.00     0.062 A 
HETATM   21 CL   UNL     1       6.735  26.664  53.991  1.00  0.00    -0.082 Cl
HETATM   22  C   UNL     1       7.868  24.609  55.203  1.00  0.00     0.026 A 
HETATM   23  C   UNL     1       8.501  23.909  56.229  1.00  0.00     0.002 A 
HETATM   24  C   UNL     1       8.631  24.495  57.479  1.00  0.00     0.002 A 
HETATM   25  C   UNL     1       8.112  25.773  57.707  1.00  0.00     0.033 A 
ENDBRANCH   5  19
TORSDOF 5
ENDMDL
MODEL 5
REMARK VINA RESULT:      -7.8      1.474      1.788
REMARK  5 active torsions:
REMARK  status: ('A' for Active; 'I' for Inactive)
REMARK    1  A    between atoms: C_3  and  N_4 
REMARK       I    between atoms: N_4  and  C_5 
REMARK       I    between atoms: C_5  and  N_6 
REMARK    2  A    between atoms: N_6  and  C_7 
REMARK    3  A    between atoms: C_7  and  C_8 
REMARK    4  A    between atoms: C_8  and  C_9 
REMARK    5  A    between atoms: N_15  and  C_16 
ROOT
HETATM    1  C   UNL     1       6.102  28.405  56.769  1.00  0.00     0.054 C 
HETATM    2  C   UNL     1       6.207  27.214  55.893  1.00  0.00     0.003 A 
HETATM    3  C   UNL     1       5.407  26.850  54.784  1.00  0.00     0.159 A 
HETATM    4  N   UNL     1       5.835  25.717  54.223  1.00  0.00    -0.149 NA
HETATM    5  N   UNL     1       6.888  25.300  54.980  1.00  0.00    -0.241 N 
HETATM    6  C   UNL     1       7.163  26.222  55.961  1.00  0.00     0.129 A 
ENDROOT
BRANCH   3   7
HETATM    7  N   UNL     1       4.324  27.575  54.336  1.00  0.00    -0.291 N 
HETATM    8  C   UNL     1       3.982  27.913  53.062  1.00  0.00     0.322 C 
HETATM    9  N   UNL     1       4.858  27.584  52.075  1.00  0.00    -0.339 N 
HETATM   10  O   UNL     1       2.928  28.510  52.858  1.00  0.00    -0.247 OA
HETATM   11  H   UNL     1       5.592  26.940  52.363  1.00  0.00     0.164 HD
HETATM   12  H   UNL     1       3.659  27.895  55.023  1.00  0.00     0.172 HD
BRANCH   9  13
HETATM   13  C   UNL     1       4.555  27.744  50.663  1.00  0.00     0.082 C 
HETATM   14  C   UNL     1       5.421  28.845  50.059  1.00  0.00     0.032 C 
BRANCH  13  15
HETATM   15  C   UNL     1       4.666  26.409  49.898  1.00  0.00     0.029 C 
BRANCH  15  16
HETATM   16  C   UNL     1       4.174  26.476  48.477  1.00  0.00    -0.013 A 
HETATM   17  C   UNL     1       3.381  25.324  47.914  1.00  0.00     0.005 A 
HETATM   18  C   UNL     1       2.703  26.638  48.181  1.00  0.00     0.005 A 
ENDBRANCH  15  16
ENDBRANCH  13  15
ENDBRANCH   9  13
ENDBRANCH   3   7
BRANCH   5  19
HETATM   19  C   UNL     1       7.558  24.082  54.649  1.00  0.00     0.079 A 
HETATM   20  C   UNL     1       8.438  23.393  55.499  1.00  0.00     0.062 A 
HETATM   21 CL   UNL     1       8.742  23.772  57.159  1.00  0.00    -0.082 Cl
HETATM   22  C   UNL     1       9.078  22.226  55.044  1.00  0.00     0.026 A 
HETATM   23  C   UNL     1       8.840  21.726  53.765  1.00  0.00     0.002 A 
HETATM   24  C   UNL     1       7.947  22.380  52.929  1.00  0.00     0.002 A 
HETATM   25  C   UNL     1       7.308  23.543  53.366  1.00  0.00     0.033 A 
ENDBRANCH   5  19
TORSDOF 5
ENDMDL
MODEL 6
REMARK VINA RESULT:      -7.8      4.910      8.628
REMARK  5 active torsions:
REMARK  status: ('A' for Active; 'I' for Inactive)
REMARK    1  A    between atoms: C_3  and  N_4 
REMARK       I    between atoms: N_4  and  C_5 
REMARK       I    between atoms: C_5  and  N_6 
REMARK    2  A    between atoms: N_6  and  C_7 
REMARK    3  A    between atoms: C_7  and  C_8 
REMARK    4  A    between atoms: C_8  and  C_9 
REMARK    5  A    between atoms: N_15  and  C_16 
ROOT
HETATM    1  C   UNL     1      10.885  29.581  56.699  1.00  0.00     0.054 C 
HETATM    2  C   UNL     1       9.688  29.908  57.511  1.00  0.00     0.003 A 
HETATM    3  C   UNL     1       8.336  29.556  57.287  1.00  0.00     0.159 A 
HETATM    4  N   UNL     1       7.545  30.006  58.263  1.00  0.00    -0.149 NA
HETATM    5  N   UNL     1       8.357  30.697  59.111  1.00  0.00    -0.241 N 
HETATM    6  C   UNL     1       9.665  30.601  58.703  1.00  0.00     0.129 A 
ENDROOT
BRANCH   3   7
HETATM    7  N   UNL     1       7.891  28.833  56.201  1.00  0.00    -0.291 N 
HETATM    8  C   UNL     1       7.529  27.522  56.129  1.00  0.00     0.322 C 
HETATM    9  N   UNL     1       7.707  26.766  57.245  1.00  0.00    -0.339 N 
HETATM   10  O   UNL     1       7.086  27.076  55.074  1.00  0.00    -0.247 OA
HETATM   11  H   UNL     1       7.908  27.301  58.088  1.00  0.00     0.164 HD
HETATM   12  H   UNL     1       7.785  29.322  55.326  1.00  0.00     0.172 HD
BRANCH   9  13
HETATM   13  C   UNL     1       7.225  25.400  57.360  1.00  0.00     0.082 C 
HETATM   14  C   UNL     1       5.722  25.348  57.099  1.00  0.00     0.032 C 
BRANCH  13  15
HETATM   15  C   UNL     1       8.020  24.434  56.458  1.00  0.00     0.029 C 
BRANCH  15  16
HETATM   16  C   UNL     1       7.158  23.582  55.564  1.00  0.00    -0.013 A 
HETATM   17  C   UNL     1       7.375  23.622  54.073  1.00  0.00     0.005 A 
HETATM   18  C   UNL     1       7.738  22.388  54.849  1.00  0.00     0.005 A 
ENDBRANCH  15  16
ENDBRANCH  13  15
ENDBRANCH   9  13
ENDBRANCH   3   7
BRANCH   5  19
HETATM   19  C   UNL     1       7.798  31.335  60.262  1.00  0.00     0.079 A 
HETATM   20  C   UNL     1       8.194  31.094  61.587  1.00  0.00     0.062 A 
HETATM   21 CL   UNL     1       9.543  30.129  62.076  1.00  0.00    -0.082 Cl
HETATM   22  C   UNL     1       7.536  31.749  62.643  1.00  0.00     0.026 A 
HETATM   23  C   UNL     1       6.503  32.653  62.398  1.00  0.00     0.002 A 
HETATM   24  C   UNL     1       6.125  32.924  61.092  1.00  0.00     0.002 A 
HETATM   25  C   UNL     1       6.768  32.277  60.033  1.00  0.00     0.033 A 
ENDBRANCH   5  19
TORSDOF 5
ENDMDL
MODEL 7
REMARK VINA RESULT:      -7.8      2.670      4.151
REMARK  5 active torsions:
REMARK  status: ('A' for Active; 'I' for Inactive)
REMARK    1  A    between atoms: C_3  and  N_4 
REMARK       I    between atoms: N_4  and  C_5 
REMARK       I    between atoms: C_5  and  N_6 
REMARK    2  A    between atoms: N_6  and  C_7 
REMARK    3  A    between atoms: C_7  and  C_8 
REMARK    4  A    between atoms: C_8  and  C_9 
REMARK    5  A    between atoms: N_15  and  C_16 
ROOT
HETATM    1  C   UNL     1       3.729  28.519  52.514  1.00  0.00     0.054 C 
HETATM    2  C   UNL     1       4.717  27.417  52.435  1.00  0.00     0.003 A 
HETATM    3  C   UNL     1       5.559  27.050  51.360  1.00  0.00     0.159 A 
HETATM    4  N   UNL     1       6.343  26.019  51.680  1.00  0.00    -0.149 NA
HETATM    5  N   UNL     1       5.994  25.667  52.949  1.00  0.00    -0.241 N 
HETATM    6  C   UNL     1       5.052  26.537  53.443  1.00  0.00     0.129 A 
ENDROOT
BRANCH   3   7
HETATM    7  N   UNL     1       5.574  27.682  50.135  1.00  0.00    -0.291 N 
HETATM    8  C   UNL     1       4.849  27.406  49.015  1.00  0.00     0.322 C 
HETATM    9  N   UNL     1       4.057  26.301  49.045  1.00  0.00    -0.339 N 
HETATM   10  O   UNL     1       4.953  28.137  48.033  1.00  0.00    -0.247 OA
HETATM   11  H   UNL     1       3.931  25.899  49.971  1.00  0.00     0.164 HD
HETATM   12  H   UNL     1       6.179  28.481  50.027  1.00  0.00     0.172 HD
BRANCH   9  13
HETATM   13  C   UNL     1       3.117  25.973  47.985  1.00  0.00     0.082 C 
HETATM   14  C   UNL     1       2.870  24.468  47.946  1.00  0.00     0.032 C 
BRANCH  13  15
HETATM   15  C   UNL     1       1.813  26.789  48.103  1.00  0.00     0.029 C 
BRANCH  15  16
HETATM   16  C   UNL     1       1.419  27.497  46.834  1.00  0.00    -0.013 A 
HETATM   17  C   UNL     1      -0.043  27.670  46.508  1.00  0.00     0.005 A 
HETATM   18  C   UNL     1       0.787  28.865  46.883  1.00  0.00     0.005 A 
ENDBRANCH  15  16
ENDBRANCH  13  15
ENDBRANCH   9  13
ENDBRANCH   3   7
BRANCH   5  19
HETATM   19  C   UNL     1       6.643  24.560  53.580  1.00  0.00     0.079 A 
HETATM   20  C   UNL     1       6.615  24.290  54.957  1.00  0.00     0.062 A 
HETATM   21 CL   UNL     1       5.653  25.123  56.129  1.00  0.00    -0.082 Cl
HETATM   22  C   UNL     1       7.333  23.196  55.469  1.00  0.00     0.026 A 
HETATM   23  C   UNL     1       8.062  22.355  54.629  1.00  0.00     0.002 A 
HETATM   24  C   UNL     1       8.070  22.593  53.263  1.00  0.00     0.002 A 
HETATM   25  C   UNL     1       7.365  23.680  52.741  1.00  0.00     0.033 A 
ENDBRANCH   5  19
TORSDOF 5
ENDMDL
MODEL 8
REMARK VINA RESULT:      -7.5      2.964      6.506
REMARK  5 active torsions:
REMARK  status: ('A' for Active; 'I' for Inactive)
REMARK    1  A    between atoms: C_3  and  N_4 
REMARK       I    between atoms: N_4  and  C_5 
REMARK       I    between atoms: C_5  and  N_6 
REMARK    2  A    between atoms: N_6  and  C_7 
REMARK    3  A    between atoms: C_7  and  C_8 
REMARK    4  A    between atoms: C_8  and  C_9 
REMARK    5  A    between atoms: N_15  and  C_16 
ROOT
HETATM    1  C   UNL     1       3.415  29.648  53.276  1.00  0.00     0.054 C 
HETATM    2  C   UNL     1       4.504  29.190  54.171  1.00  0.00     0.003 A 
HETATM    3  C   UNL     1       4.966  27.875  54.411  1.00  0.00     0.159 A 
HETATM    4  N   UNL     1       5.996  27.864  55.260  1.00  0.00    -0.149 NA
HETATM    5  N   UNL     1       6.193  29.163  55.622  1.00  0.00    -0.241 N 
HETATM    6  C   UNL     1       5.337  29.985  54.929  1.00  0.00     0.129 A 
ENDROOT
BRANCH   3   7
HETATM    7  N   UNL     1       4.424  26.744  53.838  1.00  0.00    -0.291 N 
HETATM    8  C   UNL     1       5.041  25.591  53.460  1.00  0.00     0.322 C 
HETATM    9  N   UNL     1       6.397  25.549  53.561  1.00  0.00    -0.339 N 
HETATM   10  O   UNL     1       4.366  24.659  53.028  1.00  0.00    -0.247 OA
HETATM   11  H   UNL     1       6.801  26.313  54.098  1.00  0.00     0.164 HD
HETATM   12  H   UNL     1       3.427  26.729  53.687  1.00  0.00     0.172 HD
BRANCH   9  13
HETATM   13  C   UNL     1       7.169  24.337  53.340  1.00  0.00     0.082 C 
HETATM   14  C   UNL     1       8.056  24.495  52.109  1.00  0.00     0.032 C 
BRANCH  13  15
HETATM   15  C   UNL     1       7.960  23.924  54.597  1.00  0.00     0.029 C 
BRANCH  15  16
HETATM   16  C   UNL     1       7.521  22.613  55.194  1.00  0.00    -0.013 A 
HETATM   17  C   UNL     1       7.923  21.325  54.523  1.00  0.00     0.005 A 
HETATM   18  C   UNL     1       8.520  21.695  55.851  1.00  0.00     0.005 A 
ENDBRANCH  15  16
ENDBRANCH  13  15
ENDBRANCH   9  13
ENDBRANCH   3   7
BRANCH   5  19
HETATM   19  C   UNL     1       7.223  29.488  56.558  1.00  0.00     0.079 A 
HETATM   20  C   UNL     1       8.600  29.383  56.306  1.00  0.00     0.062 A 
HETATM   21 CL   UNL     1       9.321  29.021  54.775  1.00  0.00    -0.082 Cl
HETATM   22  C   UNL     1       9.522  29.685  57.323  1.00  0.00     0.026 A 
HETATM   23  C   UNL     1       9.094  30.109  58.581  1.00  0.00     0.002 A 
HETATM   24  C   UNL     1       7.737  30.248  58.831  1.00  0.00     0.002 A 
HETATM   25  C   UNL     1       6.810  29.946  57.830  1.00  0.00     0.033 A 
ENDBRANCH   5  19
TORSDOF 5
ENDMDL
MODEL 9
REMARK VINA RESULT:      -7.3      4.916      7.940
REMARK  5 active torsions:
REMARK  status: ('A' for Active; 'I' for Inactive)
REMARK    1  A    between atoms: C_3  and  N_4 
REMARK       I    between atoms: N_4  and  C_5 
REMARK       I    between atoms: C_5  and  N_6 
REMARK    2  A    between atoms: N_6  and  C_7 
REMARK    3  A    between atoms: C_7  and  C_8 
REMARK    4  A    between atoms: C_8  and  C_9 
REMARK    5  A    between atoms: N_15  and  C_16 
ROOT
HETATM    1  C   UNL     1      10.611  29.695  56.209  1.00  0.00     0.054 C 
HETATM    2  C   UNL     1       9.621  29.761  57.309  1.00  0.00     0.003 A 
HETATM    3  C   UNL     1       8.674  28.792  57.715  1.00  0.00     0.159 A 
HETATM    4  N   UNL     1       7.977  29.202  58.777  1.00  0.00    -0.149 NA
HETATM    5  N   UNL     1       8.423  30.460  59.051  1.00  0.00    -0.241 N 
HETATM    6  C   UNL     1       9.456  30.793  58.209  1.00  0.00     0.129 A 
ENDROOT
BRANCH   3   7
HETATM    7  N   UNL     1       8.497  27.573  57.097  1.00  0.00    -0.291 N 
HETATM    8  C   UNL     1       7.522  27.182  56.230  1.00  0.00     0.322 C 
HETATM    9  N   UNL     1       6.513  28.061  55.991  1.00  0.00    -0.339 N 
HETATM   10  O   UNL     1       7.577  26.063  55.725  1.00  0.00    -0.247 OA
HETATM   11  H   UNL     1       6.689  29.005  56.330  1.00  0.00     0.164 HD
HETATM   12  H   UNL     1       9.183  26.856  57.271  1.00  0.00     0.172 HD
BRANCH   9  13
HETATM   13  C   UNL     1       5.494  27.840  54.978  1.00  0.00     0.082 C 
HETATM   14  C   UNL     1       4.210  28.575  55.352  1.00  0.00     0.032 C 
BRANCH  13  15
HETATM   15  C   UNL     1       6.000  28.203  53.567  1.00  0.00     0.029 C 
BRANCH  15  16
HETATM   16  C   UNL     1       6.143  27.020  52.646  1.00  0.00    -0.013 A 
HETATM   17  C   UNL     1       5.190  25.859  52.781  1.00  0.00     0.005 A 
HETATM   18  C   UNL     1       5.115  26.753  51.575  1.00  0.00     0.005 A 
ENDBRANCH  15  16
ENDBRANCH  13  15
ENDBRANCH   9  13
ENDBRANCH   3   7
BRANCH   5  19
HETATM   19  C   UNL     1       7.845  31.195  60.132  1.00  0.00     0.079 A 
HETATM   20  C   UNL     1       8.232  31.083  61.477  1.00  0.00     0.062 A 
HETATM   21 CL   UNL     1       9.588  30.185  62.065  1.00  0.00    -0.082 Cl
HETATM   22  C   UNL     1       7.555  31.823  62.463  1.00  0.00     0.026 A 
HETATM   23  C   UNL     1       6.514  32.687  62.127  1.00  0.00     0.002 A 
HETATM   24  C   UNL     1       6.145  32.831  60.798  1.00  0.00     0.002 A 
HETATM   25  C   UNL     1       6.805  32.097  59.809  1.00  0.00     0.033 A 
ENDBRANCH   5  19
TORSDOF 5
ENDMDL
MODEL 10
REMARK VINA RESULT:      -7.2      4.486      7.850
REMARK  5 active torsions:
REMARK  status: ('A' for Active; 'I' for Inactive)
REMARK    1  A    between atoms: C_3  and  N_4 
REMARK       I    between atoms: N_4  and  C_5 
REMARK       I    between atoms: C_5  and  N_6 
REMARK    2  A    between atoms: N_6  and  C_7 
REMARK    3  A    between atoms: C_7  and  C_8 
REMARK    4  A    between atoms: C_8  and  C_9 
REMARK    5  A    between atoms: N_15  and  C_16 
ROOT
HETATM    1  C   UNL     1       4.671  30.000  55.454  1.00  0.00     0.054 C 
HETATM    2  C   UNL     1       5.818  30.115  56.386  1.00  0.00     0.003 A 
HETATM    3  C   UNL     1       7.147  29.662  56.222  1.00  0.00     0.159 A 
HETATM    4  N   UNL     1       7.907  29.984  57.271  1.00  0.00    -0.149 NA
HETATM    5  N   UNL     1       7.079  30.610  58.153  1.00  0.00    -0.241 N 
HETATM    6  C   UNL     1       5.824  30.749  57.611  1.00  0.00     0.129 A 
ENDROOT
BRANCH   3   7
HETATM    7  N   UNL     1       7.604  28.977  55.117  1.00  0.00    -0.291 N 
HETATM    8  C   UNL     1       7.425  27.669  54.780  1.00  0.00     0.322 C 
HETATM    9  N   UNL     1       6.791  26.876  55.684  1.00  0.00    -0.339 N 
HETATM   10  O   UNL     1       7.855  27.259  53.704  1.00  0.00    -0.247 OA
HETATM   11  H   UNL     1       6.335  27.382  56.440  1.00  0.00     0.164 HD
HETATM   12  H   UNL     1       8.127  29.496  54.429  1.00  0.00     0.172 HD
BRANCH   9  13
HETATM   13  C   UNL     1       6.398  25.507  55.395  1.00  0.00     0.082 C 
HETATM   14  C   UNL     1       5.329  25.484  54.306  1.00  0.00     0.032 C 
BRANCH  13  15
HETATM   15  C   UNL     1       7.614  24.620  55.056  1.00  0.00     0.029 C 
BRANCH  15  16
HETATM   16  C   UNL     1       7.314  23.525  54.067  1.00  0.00    -0.013 A 
HETATM   17  C   UNL     1       7.977  23.550  52.713  1.00  0.00     0.005 A 
HETATM   18  C   UNL     1       8.364  22.500  53.716  1.00  0.00     0.005 A 
ENDBRANCH  15  16
ENDBRANCH  13  15
ENDBRANCH   9  13
ENDBRANCH   3   7
BRANCH   5  19
HETATM   19  C   UNL     1       7.593  31.060  59.408  1.00  0.00     0.079 A 
HETATM   20  C   UNL     1       7.072  32.131  60.152  1.00  0.00     0.062 A 
HETATM   21 CL   UNL     1       5.614  32.992  59.797  1.00  0.00    -0.082 Cl
HETATM   22  C   UNL     1       7.694  32.515  61.354  1.00  0.00     0.026 A 
HETATM   23  C   UNL     1       8.813  31.836  61.835  1.00  0.00     0.002 A 
HETATM   24  C   UNL     1       9.316  30.756  61.125  1.00  0.00     0.002 A 
HETATM   25  C   UNL     1       8.711  30.367  59.927  1.00  0.00     0.033 A 
ENDBRANCH   5  19
TORSDOF 5
ENDMDL
