MODEL 1
REMARK VINA RESULT:     -10.2      0.000      0.000
REMARK  5 active torsions:
REMARK  status: ('A' for Active; 'I' for Inactive)
REMARK    1  A    between atoms: C_2  and  C_3 
REMARK    2  A    between atoms: C_2  and  C_19 
REMARK       I    between atoms: C_3  and  N_4 
REMARK    3  A    between atoms: N_4  and  C_5 
REMARK    4  A    between atoms: C_8  and  O_9 
REMARK    5  A    between atoms: O_9  and  C_10 
ROOT
HETATM    1  C   UNL     1       7.707  25.468  55.370  1.00  0.00     0.234 C 
HETATM    2  N   UNL     1       7.405  26.823  55.401  1.00  0.00    -0.325 N 
HETATM    3  O   UNL     1       8.418  24.893  56.190  1.00  0.00    -0.272 OA
HETATM    4  H   UNL     1       6.720  27.150  54.730  1.00  0.00     0.169 HD
ENDROOT
BRANCH   2   5
HETATM    5  C   UNL     1       7.889  27.779  56.316  1.00  0.00     0.052 A 
HETATM    6  C   UNL     1       7.560  27.840  57.667  1.00  0.00     0.149 A 
HETATM    7  N   UNL     1       8.058  28.762  58.532  1.00  0.00    -0.235 NA
HETATM    8  C   UNL     1       8.926  29.664  58.032  1.00  0.00     0.169 A 
HETATM    9  C   UNL     1       9.307  29.699  56.700  1.00  0.00     0.060 A 
HETATM   10  C   UNL     1       8.784  28.738  55.835  1.00  0.00     0.035 A 
BRANCH   8  11
HETATM   11  O   UNL     1       9.448  30.660  58.848  1.00  0.00    -0.291 OA
BRANCH  11  12
HETATM   12  C   UNL     1       8.715  31.026  59.946  1.00  0.00     0.095 A 
HETATM   13  C   UNL     1       7.496  31.688  59.873  1.00  0.00     0.153 A 
HETATM   14  N   UNL     1       6.727  31.978  60.953  1.00  0.00    -0.270 NA
HETATM   15  C   UNL     1       7.210  31.593  62.155  1.00  0.00     0.116 A 
HETATM   16  C   UNL     1       8.409  30.918  62.327  1.00  0.00     0.022 A 
HETATM   17  C   UNL     1       9.167  30.620  61.197  1.00  0.00     0.040 A 
ENDBRANCH  11  12
ENDBRANCH   8  11
ENDBRANCH   2   5
BRANCH   1  18
HETATM   18  C   UNL     1       7.086  24.719  54.155  1.00  0.00     0.061 C 
HETATM   19  C   UNL     1       5.569  25.017  54.181  1.00  0.00     0.030 C 
HETATM   20  C   UNL     1       7.641  25.311  52.841  1.00  0.00     0.030 C 
BRANCH  18  21
HETATM   21  C   UNL     1       7.436  23.220  54.205  1.00  0.00    -0.038 A 
HETATM   22  C   UNL     1       7.341  22.454  55.379  1.00  0.00     0.050 A 
HETATM   23  C   UNL     1       7.679  21.102  55.370  1.00  0.00     0.117 A 
HETATM   24  F   UNL     1       7.588  20.398  56.507  1.00  0.00    -0.206 F 
HETATM   25  C   UNL     1       8.110  20.473  54.211  1.00  0.00     0.042 A 
HETATM   26  C   UNL     1       8.205  21.209  53.035  1.00  0.00     0.004 A 
HETATM   27  C   UNL     1       7.873  22.567  53.032  1.00  0.00     0.008 A 
ENDBRANCH  18  21
ENDBRANCH   1  18
TORSDOF 5
ENDMDL
MODEL 2
REMARK VINA RESULT:     -10.1      1.550      1.748
REMARK  5 active torsions:
REMARK  status: ('A' for Active; 'I' for Inactive)
REMARK    1  A    between atoms: C_2  and  C_3 
REMARK    2  A    between atoms: C_2  and  C_19 
REMARK       I    between atoms: C_3  and  N_4 
REMARK    3  A    between atoms: N_4  and  C_5 
REMARK    4  A    between atoms: C_8  and  O_9 
REMARK    5  A    between atoms: O_9  and  C_10 
ROOT
HETATM    1  C   UNL     1       6.460  25.505  54.606  1.00  0.00     0.234 C 
HETATM    2  N   UNL     1       7.315  26.574  54.835  1.00  0.00    -0.325 N 
HETATM    3  O   UNL     1       5.454  25.261  55.269  1.00  0.00    -0.272 OA
HETATM    4  H   UNL     1       8.046  26.724  54.150  1.00  0.00     0.169 HD
ENDROOT
BRANCH   2   5
HETATM    5  C   UNL     1       7.228  27.522  55.874  1.00  0.00     0.052 A 
HETATM    6  C   UNL     1       7.792  27.384  57.139  1.00  0.00     0.149 A 
HETATM    7  N   UNL     1       7.710  28.324  58.117  1.00  0.00    -0.235 NA
HETATM    8  C   UNL     1       7.038  29.455  57.823  1.00  0.00     0.169 A 
HETATM    9  C   UNL     1       6.428  29.685  56.600  1.00  0.00     0.060 A 
HETATM   10  C   UNL     1       6.532  28.705  55.613  1.00  0.00     0.035 A 
BRANCH   8  11
HETATM   11  O   UNL     1       6.880  30.445  58.785  1.00  0.00    -0.291 OA
BRANCH  11  12
HETATM   12  C   UNL     1       8.012  30.929  59.388  1.00  0.00     0.095 A 
HETATM   13  C   UNL     1       9.075  31.490  58.691  1.00  0.00     0.153 A 
HETATM   14  N   UNL     1      10.160  32.046  59.287  1.00  0.00    -0.270 NA
HETATM   15  C   UNL     1      10.178  32.029  60.638  1.00  0.00     0.116 A 
HETATM   16  C   UNL     1       9.159  31.503  61.419  1.00  0.00     0.022 A 
HETATM   17  C   UNL     1       8.052  30.954  60.777  1.00  0.00     0.040 A 
ENDBRANCH  11  12
ENDBRANCH   8  11
ENDBRANCH   2   5
BRANCH   1  18
HETATM   18  C   UNL     1       6.910  24.587  53.433  1.00  0.00     0.061 C 
HETATM   19  C   UNL     1       5.712  24.494  52.460  1.00  0.00     0.030 C 
HETATM   20  C   UNL     1       8.068  25.259  52.663  1.00  0.00     0.030 C 
BRANCH  18  21
HETATM   21  C   UNL     1       7.399  23.226  53.965  1.00  0.00    -0.038 A 
HETATM   22  C   UNL     1       7.557  22.956  55.334  1.00  0.00     0.050 A 
HETATM   23  C   UNL     1       8.011  21.709  55.761  1.00  0.00     0.117 A 
HETATM   24  F   UNL     1       8.161  21.483  57.073  1.00  0.00    -0.206 F 
HETATM   25  C   UNL     1       8.314  20.702  54.856  1.00  0.00     0.042 A 
HETATM   26  C   UNL     1       8.159  20.945  53.495  1.00  0.00     0.004 A 
HETATM   27  C   UNL     1       7.707  22.192  53.055  1.00  0.00     0.008 A 
ENDBRANCH  18  21
ENDBRANCH   1  18
TORSDOF 5
ENDMDL
MODEL 3
REMARK VINA RESULT:      -9.7      1.441      1.817
REMARK  5 active torsions:
REMARK  status: ('A' for Active; 'I' for Inactive)
REMARK    1  A    between atoms: C_2  and  C_3 
REMARK    2  A    between atoms: C_2  and  C_19 
REMARK       I    between atoms: C_3  and  N_4 
REMARK    3  A    between atoms: N_4  and  C_5 
REMARK    4  A    between atoms: C_8  and  O_9 
REMARK    5  A    between atoms: O_9  and  C_10 
ROOT
HETATM    1  C   UNL     1       6.388  25.927  54.587  1.00  0.00     0.234 C 
HETATM    2  N   UNL     1       7.590  26.589  54.802  1.00  0.00    -0.325 N 
HETATM    3  O   UNL     1       5.379  26.072  55.273  1.00  0.00    -0.272 OA
HETATM    4  H   UNL     1       8.310  26.461  54.101  1.00  0.00     0.169 HD
ENDROOT
BRANCH   2   5
HETATM    5  C   UNL     1       7.891  27.480  55.852  1.00  0.00     0.052 A 
HETATM    6  C   UNL     1       7.637  27.251  57.201  1.00  0.00     0.149 A 
HETATM    7  N   UNL     1       7.956  28.120  58.195  1.00  0.00    -0.235 NA
HETATM    8  C   UNL     1       8.559  29.271  57.831  1.00  0.00     0.169 A 
HETATM    9  C   UNL     1       8.842  29.601  56.516  1.00  0.00     0.060 A 
HETATM   10  C   UNL     1       8.508  28.688  55.516  1.00  0.00     0.035 A 
BRANCH   8  11
HETATM   11  O   UNL     1       8.880  30.224  58.789  1.00  0.00    -0.291 OA
BRANCH  11  12
HETATM   12  C   UNL     1       7.865  31.014  59.262  1.00  0.00     0.095 A 
HETATM   13  C   UNL     1       6.790  31.432  58.487  1.00  0.00     0.153 A 
HETATM   14  N   UNL     1       5.741  32.143  58.971  1.00  0.00    -0.270 NA
HETATM   15  C   UNL     1       5.780  32.453  60.286  1.00  0.00     0.116 A 
HETATM   16  C   UNL     1       6.804  32.071  61.140  1.00  0.00     0.022 A 
HETATM   17  C   UNL     1       7.859  31.327  60.617  1.00  0.00     0.040 A 
ENDBRANCH  11  12
ENDBRANCH   8  11
ENDBRANCH   2   5
BRANCH   1  18
HETATM   18  C   UNL     1       6.432  24.928  53.395  1.00  0.00     0.061 C 
HETATM   19  C   UNL     1       4.987  24.815  52.859  1.00  0.00     0.030 C 
HETATM   20  C   UNL     1       7.293  25.517  52.255  1.00  0.00     0.030 C 
BRANCH  18  21
HETATM   21  C   UNL     1       7.051  23.586  53.833  1.00  0.00    -0.038 A 
HETATM   22  C   UNL     1       7.531  22.635  52.917  1.00  0.00     0.050 A 
HETATM   23  C   UNL     1       8.074  21.433  53.367  1.00  0.00     0.117 A 
HETATM   24  F   UNL     1       8.516  20.539  52.472  1.00  0.00    -0.206 F 
HETATM   25  C   UNL     1       8.162  21.142  54.721  1.00  0.00     0.042 A 
HETATM   26  C   UNL     1       7.700  22.072  55.646  1.00  0.00     0.004 A 
HETATM   27  C   UNL     1       7.150  23.280  55.206  1.00  0.00     0.008 A 
ENDBRANCH  18  21
ENDBRANCH   1  18
TORSDOF 5
ENDMDL
MODEL 4
REMARK VINA RESULT:      -9.7      1.782      2.156
REMARK  5 active torsions:
REMARK  status: ('A' for Active; 'I' for Inactive)
REMARK    1  A    between atoms: C_2  and  C_3 
REMARK    2  A    between atoms: C_2  and  C_19 
REMARK       I    between atoms: C_3  and  N_4 
REMARK    3  A    between atoms: N_4  and  C_5 
REMARK    4  A    between atoms: C_8  and  O_9 
REMARK    5  A    between atoms: O_9  and  C_10 
ROOT
HETATM    1  C   UNL     1       6.805  26.677  55.446  1.00  0.00     0.234 C 
HETATM    2  N   UNL     1       6.469  27.187  56.693  1.00  0.00    -0.325 N 
HETATM    3  O   UNL     1       7.545  27.235  54.640  1.00  0.00    -0.272 OA
HETATM    4  H   UNL     1       5.938  26.578  57.304  1.00  0.00     0.169 HD
ENDROOT
BRANCH   2   5
HETATM    5  C   UNL     1       6.853  28.431  57.231  1.00  0.00     0.052 A 
HETATM    6  C   UNL     1       6.055  29.570  57.277  1.00  0.00     0.149 A 
HETATM    7  N   UNL     1       6.445  30.753  57.821  1.00  0.00    -0.235 NA
HETATM    8  C   UNL     1       7.685  30.805  58.347  1.00  0.00     0.169 A 
HETATM    9  C   UNL     1       8.563  29.734  58.339  1.00  0.00     0.060 A 
HETATM   10  C   UNL     1       8.136  28.530  57.778  1.00  0.00     0.035 A 
BRANCH   8  11
HETATM   11  O   UNL     1       8.167  31.992  58.886  1.00  0.00    -0.291 OA
BRANCH  11  12
HETATM   12  C   UNL     1       7.923  32.228  60.214  1.00  0.00     0.095 A 
HETATM   13  C   UNL     1       6.688  32.627  60.711  1.00  0.00     0.153 A 
HETATM   14  N   UNL     1       6.419  32.781  62.032  1.00  0.00    -0.270 NA
HETATM   15  C   UNL     1       7.436  32.531  62.886  1.00  0.00     0.116 A 
HETATM   16  C   UNL     1       8.698  32.117  62.485  1.00  0.00     0.022 A 
HETATM   17  C   UNL     1       8.938  31.952  61.123  1.00  0.00     0.040 A 
ENDBRANCH  11  12
ENDBRANCH   8  11
ENDBRANCH   2   5
BRANCH   1  18
HETATM   18  C   UNL     1       6.118  25.318  55.124  1.00  0.00     0.061 C 
HETATM   19  C   UNL     1       5.161  25.017  56.299  1.00  0.00     0.030 C 
HETATM   20  C   UNL     1       5.247  25.464  53.856  1.00  0.00     0.030 C 
BRANCH  18  21
HETATM   21  C   UNL     1       7.172  24.223  54.870  1.00  0.00    -0.038 A 
HETATM   22  C   UNL     1       7.161  23.407  53.727  1.00  0.00     0.050 A 
HETATM   23  C   UNL     1       8.134  22.425  53.550  1.00  0.00     0.117 A 
HETATM   24  F   UNL     1       8.094  21.654  52.455  1.00  0.00    -0.206 F 
HETATM   25  C   UNL     1       9.140  22.228  54.487  1.00  0.00     0.042 A 
HETATM   26  C   UNL     1       9.174  23.029  55.622  1.00  0.00     0.004 A 
HETATM   27  C   UNL     1       8.201  24.015  55.812  1.00  0.00     0.008 A 
ENDBRANCH  18  21
ENDBRANCH   1  18
TORSDOF 5
ENDMDL
MODEL 5
REMARK VINA RESULT:      -9.4      3.440      9.812
REMARK  5 active torsions:
REMARK  status: ('A' for Active; 'I' for Inactive)
REMARK    1  A    between atoms: C_2  and  C_3 
REMARK    2  A    between atoms: C_2  and  C_19 
REMARK       I    between atoms: C_3  and  N_4 
REMARK    3  A    between atoms: N_4  and  C_5 
REMARK    4  A    between atoms: C_8  and  O_9 
REMARK    5  A    between atoms: O_9  and  C_10 
ROOT
HETATM    1  C   UNL     1       8.279  31.309  60.060  1.00  0.00     0.234 C 
HETATM    2  N   UNL     1       8.105  30.005  59.615  1.00  0.00    -0.325 N 
HETATM    3  O   UNL     1       8.098  32.311  59.372  1.00  0.00    -0.272 OA
HETATM    4  H   UNL     1       8.182  29.274  60.312  1.00  0.00     0.169 HD
ENDROOT
BRANCH   2   5
HETATM    5  C   UNL     1       7.756  29.593  58.313  1.00  0.00     0.052 A 
HETATM    6  C   UNL     1       6.503  29.752  57.727  1.00  0.00     0.149 A 
HETATM    7  N   UNL     1       6.200  29.363  56.461  1.00  0.00    -0.235 NA
HETATM    8  C   UNL     1       7.187  28.791  55.743  1.00  0.00     0.169 A 
HETATM    9  C   UNL     1       8.462  28.573  56.239  1.00  0.00     0.060 A 
HETATM   10  C   UNL     1       8.748  28.987  57.539  1.00  0.00     0.035 A 
BRANCH   8  11
HETATM   11  O   UNL     1       6.940  28.333  54.455  1.00  0.00    -0.291 OA
BRANCH  11  12
HETATM   12  C   UNL     1       6.852  26.977  54.271  1.00  0.00     0.095 A 
HETATM   13  C   UNL     1       5.925  26.171  54.919  1.00  0.00     0.153 A 
HETATM   14  N   UNL     1       5.779  24.844  54.677  1.00  0.00    -0.270 NA
HETATM   15  C   UNL     1       6.604  24.307  53.752  1.00  0.00     0.116 A 
HETATM   16  C   UNL     1       7.551  25.033  53.045  1.00  0.00     0.022 A 
HETATM   17  C   UNL     1       7.666  26.397  53.304  1.00  0.00     0.040 A 
ENDBRANCH  11  12
ENDBRANCH   8  11
ENDBRANCH   2   5
BRANCH   1  18
HETATM   18  C   UNL     1       8.775  31.404  61.532  1.00  0.00     0.061 C 
HETATM   19  C   UNL     1       9.207  29.979  61.945  1.00  0.00     0.030 C 
HETATM   20  C   UNL     1      10.033  32.297  61.600  1.00  0.00     0.030 C 
BRANCH  18  21
HETATM   21  C   UNL     1       7.687  32.020  62.432  1.00  0.00    -0.038 A 
HETATM   22  C   UNL     1       6.316  31.922  62.145  1.00  0.00     0.050 A 
HETATM   23  C   UNL     1       5.373  32.505  62.990  1.00  0.00     0.117 A 
HETATM   24  F   UNL     1       4.072  32.403  62.687  1.00  0.00    -0.206 F 
HETATM   25  C   UNL     1       5.755  33.191  64.134  1.00  0.00     0.042 A 
HETATM   26  C   UNL     1       7.107  33.296  64.442  1.00  0.00     0.004 A 
HETATM   27  C   UNL     1       8.062  32.717  63.600  1.00  0.00     0.008 A 
ENDBRANCH  18  21
ENDBRANCH   1  18
TORSDOF 5
ENDMDL
MODEL 6
REMARK VINA RESULT:      -9.4      4.645      8.366
REMARK  5 active torsions:
REMARK  status: ('A' for Active; 'I' for Inactive)
REMARK    1  A    between atoms: C_2  and  C_3 
REMARK    2  A    between atoms: C_2  and  C_19 
REMARK       I    between atoms: C_3  and  N_4 
REMARK    3  A    between atoms: N_4  and  C_5 
REMARK    4  A    between atoms: C_8  and  O_9 
REMARK    5  A    between atoms: O_9  and  C_10 
ROOT
HETATM    1  C   UNL     1       6.804  26.174  54.746  1.00  0.00     0.234 C 
HETATM    2  N   UNL     1       5.596  25.987  54.086  1.00  0.00    -0.325 N 
HETATM    3  O   UNL     1       7.596  27.082  54.508  1.00  0.00    -0.272 OA
HETATM    4  H   UNL     1       4.987  25.265  54.452  1.00  0.00     0.169 HD
ENDROOT
BRANCH   2   5
HETATM    5  C   UNL     1       5.092  26.744  53.010  1.00  0.00     0.052 A 
HETATM    6  C   UNL     1       4.192  27.800  53.120  1.00  0.00     0.149 A 
HETATM    7  N   UNL     1       3.737  28.527  52.066  1.00  0.00    -0.235 NA
HETATM    8  C   UNL     1       4.200  28.191  50.846  1.00  0.00     0.169 A 
HETATM    9  C   UNL     1       5.086  27.148  50.627  1.00  0.00     0.060 A 
HETATM   10  C   UNL     1       5.541  26.421  51.727  1.00  0.00     0.035 A 
BRANCH   8  11
HETATM   11  O   UNL     1       3.751  28.864  49.717  1.00  0.00    -0.291 OA
BRANCH  11  12
HETATM   12  C   UNL     1       3.120  28.128  48.749  1.00  0.00     0.095 A 
HETATM   13  C   UNL     1       3.791  27.433  47.750  1.00  0.00     0.153 A 
HETATM   14  N   UNL     1       3.176  26.635  46.841  1.00  0.00    -0.270 NA
HETATM   15  C   UNL     1       1.831  26.539  46.937  1.00  0.00     0.116 A 
HETATM   16  C   UNL     1       1.077  27.184  47.907  1.00  0.00     0.022 A 
HETATM   17  C   UNL     1       1.739  27.983  48.836  1.00  0.00     0.040 A 
ENDBRANCH  11  12
ENDBRANCH   8  11
ENDBRANCH   2   5
BRANCH   1  18
HETATM   18  C   UNL     1       7.102  25.087  55.819  1.00  0.00     0.061 C 
HETATM   19  C   UNL     1       8.219  25.655  56.723  1.00  0.00     0.030 C 
HETATM   20  C   UNL     1       5.858  24.882  56.711  1.00  0.00     0.030 C 
BRANCH  18  21
HETATM   21  C   UNL     1       7.452  23.744  55.149  1.00  0.00    -0.038 A 
HETATM   22  C   UNL     1       7.410  22.519  55.834  1.00  0.00     0.050 A 
HETATM   23  C   UNL     1       7.745  21.333  55.182  1.00  0.00     0.117 A 
HETATM   24  F   UNL     1       7.705  20.179  55.862  1.00  0.00    -0.206 F 
HETATM   25  C   UNL     1       8.122  21.325  53.846  1.00  0.00     0.042 A 
HETATM   26  C   UNL     1       8.164  22.525  53.147  1.00  0.00     0.004 A 
HETATM   27  C   UNL     1       7.834  23.722  53.791  1.00  0.00     0.008 A 
ENDBRANCH  18  21
ENDBRANCH   1  18
TORSDOF 5
ENDMDL
MODEL 7
REMARK VINA RESULT:      -9.3      7.922     11.666
REMARK  5 active torsions:
REMARK  status: ('A' for Active; 'I' for Inactive)
REMARK    1  A    between atoms: C_2  and  C_3 
REMARK    2  A    between atoms: C_2  and  C_19 
REMARK       I    between atoms: C_3  and  N_4 
REMARK    3  A    between atoms: N_4  and  C_5 
REMARK    4  A    between atoms: C_8  and  O_9 
REMARK    5  A    between atoms: O_9  and  C_10 
ROOT
HETATM    1  C   UNL     1       5.311  33.069  63.623  1.00  0.00     0.234 C 
HETATM    2  N   UNL     1       5.557  34.150  64.460  1.00  0.00    -0.325 N 
HETATM    3  O   UNL     1       4.918  31.968  64.002  1.00  0.00    -0.272 OA
HETATM    4  H   UNL     1       5.773  35.031  64.010  1.00  0.00     0.169 HD
ENDROOT
BRANCH   2   5
HETATM    5  C   UNL     1       5.462  34.173  65.865  1.00  0.00     0.052 A 
HETATM    6  C   UNL     1       4.278  34.098  66.594  1.00  0.00     0.149 A 
HETATM    7  N   UNL     1       4.218  34.102  67.952  1.00  0.00    -0.235 NA
HETATM    8  C   UNL     1       5.389  34.181  68.616  1.00  0.00     0.169 A 
HETATM    9  C   UNL     1       6.619  34.275  67.986  1.00  0.00     0.060 A 
HETATM   10  C   UNL     1       6.652  34.264  66.592  1.00  0.00     0.035 A 
BRANCH   8  11
HETATM   11  O   UNL     1       5.403  34.229  70.005  1.00  0.00    -0.291 OA
BRANCH  11  12
HETATM   12  C   UNL     1       6.293  33.416  70.657  1.00  0.00     0.095 A 
HETATM   13  C   UNL     1       7.502  33.860  71.178  1.00  0.00     0.153 A 
HETATM   14  N   UNL     1       8.347  33.079  71.897  1.00  0.00    -0.270 NA
HETATM   15  C   UNL     1       7.962  31.799  72.093  1.00  0.00     0.116 A 
HETATM   16  C   UNL     1       6.769  31.269  71.623  1.00  0.00     0.022 A 
HETATM   17  C   UNL     1       5.916  32.100  70.902  1.00  0.00     0.040 A 
ENDBRANCH  11  12
ENDBRANCH   8  11
ENDBRANCH   2   5
BRANCH   1  18
HETATM   18  C   UNL     1       5.619  33.358  62.126  1.00  0.00     0.061 C 
HETATM   19  C   UNL     1       4.322  33.053  61.341  1.00  0.00     0.030 C 
HETATM   20  C   UNL     1       5.919  34.862  61.937  1.00  0.00     0.030 C 
BRANCH  18  21
HETATM   21  C   UNL     1       6.845  32.551  61.658  1.00  0.00    -0.038 A 
HETATM   22  C   UNL     1       6.876  31.853  60.439  1.00  0.00     0.050 A 
HETATM   23  C   UNL     1       8.009  31.131  60.067  1.00  0.00     0.117 A 
HETATM   24  F   UNL     1       8.008  30.467  58.903  1.00  0.00    -0.206 F 
HETATM   25  C   UNL     1       9.134  31.084  60.878  1.00  0.00     0.042 A 
HETATM   26  C   UNL     1       9.128  31.773  62.086  1.00  0.00     0.004 A 
HETATM   27  C   UNL     1       7.996  32.498  62.472  1.00  0.00     0.008 A 
ENDBRANCH  18  21
ENDBRANCH   1  18
TORSDOF 5
ENDMDL
MODEL 8
REMARK VINA RESULT:      -8.6      4.703      7.577
REMARK  5 active torsions:
REMARK  status: ('A' for Active; 'I' for Inactive)
REMARK    1  A    between atoms: C_2  and  C_3 
REMARK    2  A    between atoms: C_2  and  C_19 
REMARK       I    between atoms: C_3  and  N_4 
REMARK    3  A    between atoms: N_4  and  C_5 
REMARK    4  A    between atoms: C_8  and  O_9 
REMARK    5  A    between atoms: O_9  and  C_10 
ROOT
HETATM    1  C   UNL     1       6.814  25.984  54.511  1.00  0.00     0.234 C 
HETATM    2  N   UNL     1       5.598  25.798  53.868  1.00  0.00    -0.325 N 
HETATM    3  O   UNL     1       7.638  26.845  54.212  1.00  0.00    -0.272 OA
HETATM    4  H   UNL     1       4.964  25.124  54.282  1.00  0.00     0.169 HD
ENDROOT
BRANCH   2   5
HETATM    5  C   UNL     1       5.117  26.500  52.745  1.00  0.00     0.052 A 
HETATM    6  C   UNL     1       4.379  27.680  52.788  1.00  0.00     0.149 A 
HETATM    7  N   UNL     1       3.944  28.347  51.687  1.00  0.00    -0.235 NA
HETATM    8  C   UNL     1       4.260  27.820  50.487  1.00  0.00     0.169 A 
HETATM    9  C   UNL     1       4.976  26.644  50.336  1.00  0.00     0.060 A 
HETATM   10  C   UNL     1       5.414  25.981  51.482  1.00  0.00     0.035 A 
BRANCH   8  11
HETATM   11  O   UNL     1       3.817  28.426  49.319  1.00  0.00    -0.291 OA
BRANCH  11  12
HETATM   12  C   UNL     1       4.113  29.753  49.143  1.00  0.00     0.095 A 
HETATM   13  C   UNL     1       5.400  30.271  49.212  1.00  0.00     0.153 A 
HETATM   14  N   UNL     1       5.708  31.567  48.956  1.00  0.00    -0.270 NA
HETATM   15  C   UNL     1       4.677  32.376  48.625  1.00  0.00     0.116 A 
HETATM   16  C   UNL     1       3.362  31.948  48.519  1.00  0.00     0.022 A 
HETATM   17  C   UNL     1       3.081  30.608  48.771  1.00  0.00     0.040 A 
ENDBRANCH  11  12
ENDBRANCH   8  11
ENDBRANCH   2   5
BRANCH   1  18
HETATM   18  C   UNL     1       7.077  24.960  55.653  1.00  0.00     0.061 C 
HETATM   19  C   UNL     1       8.178  25.571  56.550  1.00  0.00     0.030 C 
HETATM   20  C   UNL     1       5.810  24.817  56.526  1.00  0.00     0.030 C 
BRANCH  18  21
HETATM   21  C   UNL     1       7.431  23.577  55.073  1.00  0.00    -0.038 A 
HETATM   22  C   UNL     1       7.413  22.402  55.841  1.00  0.00     0.050 A 
HETATM   23  C   UNL     1       7.749  21.177  55.268  1.00  0.00     0.117 A 
HETATM   24  F   UNL     1       7.733  20.073  56.027  1.00  0.00    -0.206 F 
HETATM   25  C   UNL     1       8.105  21.079  53.930  1.00  0.00     0.042 A 
HETATM   26  C   UNL     1       8.123  22.229  53.148  1.00  0.00     0.004 A 
HETATM   27  C   UNL     1       7.791  23.464  53.713  1.00  0.00     0.008 A 
ENDBRANCH  18  21
ENDBRANCH   1  18
TORSDOF 5
ENDMDL
MODEL 9
REMARK VINA RESULT:      -8.6      2.521      3.282
REMARK  5 active torsions:
REMARK  status: ('A' for Active; 'I' for Inactive)
REMARK    1  A    between atoms: C_2  and  C_3 
REMARK    2  A    between atoms: C_2  and  C_19 
REMARK       I    between atoms: C_3  and  N_4 
REMARK    3  A    between atoms: N_4  and  C_5 
REMARK    4  A    between atoms: C_8  and  O_9 
REMARK    5  A    between atoms: O_9  and  C_10 
ROOT
HETATM    1  C   UNL     1       7.409  26.232  56.804  1.00  0.00     0.234 C 
HETATM    2  N   UNL     1       6.548  27.288  57.073  1.00  0.00    -0.325 N 
HETATM    3  O   UNL     1       8.611  26.230  57.055  1.00  0.00    -0.272 OA
HETATM    4  H   UNL     1       5.562  27.120  56.917  1.00  0.00     0.169 HD
ENDROOT
BRANCH   2   5
HETATM    5  C   UNL     1       6.890  28.543  57.614  1.00  0.00     0.052 A 
HETATM    6  C   UNL     1       8.111  28.861  58.204  1.00  0.00     0.149 A 
HETATM    7  N   UNL     1       8.421  30.087  58.700  1.00  0.00    -0.235 NA
HETATM    8  C   UNL     1       7.475  31.044  58.603  1.00  0.00     0.169 A 
HETATM    9  C   UNL     1       6.225  30.827  58.048  1.00  0.00     0.060 A 
HETATM   10  C   UNL     1       5.934  29.560  57.542  1.00  0.00     0.035 A 
BRANCH   8  11
HETATM   11  O   UNL     1       7.707  32.311  59.123  1.00  0.00    -0.291 OA
BRANCH  11  12
HETATM   12  C   UNL     1       7.505  32.492  60.466  1.00  0.00     0.095 A 
HETATM   13  C   UNL     1       6.286  32.867  61.018  1.00  0.00     0.153 A 
HETATM   14  N   UNL     1       6.059  32.965  62.352  1.00  0.00    -0.270 NA
HETATM   15  C   UNL     1       7.103  32.682  63.162  1.00  0.00     0.116 A 
HETATM   16  C   UNL     1       8.352  32.287  62.705  1.00  0.00     0.022 A 
HETATM   17  C   UNL     1       8.549  32.180  61.331  1.00  0.00     0.040 A 
ENDBRANCH  11  12
ENDBRANCH   8  11
ENDBRANCH   2   5
BRANCH   1  18
HETATM   18  C   UNL     1       6.716  25.027  56.103  1.00  0.00     0.061 C 
HETATM   19  C   UNL     1       7.437  23.753  56.600  1.00  0.00     0.030 C 
HETATM   20  C   UNL     1       5.247  24.928  56.571  1.00  0.00     0.030 C 
BRANCH  18  21
HETATM   21  C   UNL     1       6.732  25.207  54.573  1.00  0.00    -0.038 A 
HETATM   22  C   UNL     1       5.688  25.830  53.869  1.00  0.00     0.050 A 
HETATM   23  C   UNL     1       5.749  25.960  52.483  1.00  0.00     0.117 A 
HETATM   24  F   UNL     1       4.735  26.551  51.836  1.00  0.00    -0.206 F 
HETATM   25  C   UNL     1       6.836  25.486  51.761  1.00  0.00     0.042 A 
HETATM   26  C   UNL     1       7.883  24.872  52.437  1.00  0.00     0.004 A 
HETATM   27  C   UNL     1       7.832  24.733  53.827  1.00  0.00     0.008 A 
ENDBRANCH  18  21
ENDBRANCH   1  18
TORSDOF 5
ENDMDL
MODEL 10
REMARK VINA RESULT:      -8.6      6.441      9.095
REMARK  5 active torsions:
REMARK  status: ('A' for Active; 'I' for Inactive)
REMARK    1  A    between atoms: C_2  and  C_3 
REMARK    2  A    between atoms: C_2  and  C_19 
REMARK       I    between atoms: C_3  and  N_4 
REMARK    3  A    between atoms: N_4  and  C_5 
REMARK    4  A    between atoms: C_8  and  O_9 
REMARK    5  A    between atoms: O_9  and  C_10 
ROOT
HETATM    1  C   UNL     1       4.887  27.818  50.608  1.00  0.00     0.234 C 
HETATM    2  N   UNL     1       5.709  26.701  50.662  1.00  0.00    -0.325 N 
HETATM    3  O   UNL     1       4.347  28.335  51.583  1.00  0.00    -0.272 OA
HETATM    4  H   UNL     1       6.178  26.441  49.802  1.00  0.00     0.169 HD
ENDROOT
BRANCH   2   5
HETATM    5  C   UNL     1       6.023  25.933  51.802  1.00  0.00     0.052 A 
HETATM    6  C   UNL     1       5.106  25.233  52.580  1.00  0.00     0.149 A 
HETATM    7  N   UNL     1       5.440  24.484  53.663  1.00  0.00    -0.235 NA
HETATM    8  C   UNL     1       6.747  24.426  53.987  1.00  0.00     0.169 A 
HETATM    9  C   UNL     1       7.737  25.097  53.287  1.00  0.00     0.060 A 
HETATM   10  C   UNL     1       7.367  25.855  52.177  1.00  0.00     0.035 A 
BRANCH   8  11
HETATM   11  O   UNL     1       7.160  23.710  55.104  1.00  0.00    -0.291 OA
BRANCH  11  12
HETATM   12  C   UNL     1       7.648  22.445  54.901  1.00  0.00     0.095 A 
HETATM   13  C   UNL     1       7.726  21.841  53.653  1.00  0.00     0.153 A 
HETATM   14  N   UNL     1       8.285  20.624  53.436  1.00  0.00    -0.270 NA
HETATM   15  C   UNL     1       8.778  19.987  54.521  1.00  0.00     0.116 A 
HETATM   16  C   UNL     1       8.755  20.515  55.804  1.00  0.00     0.022 A 
HETATM   17  C   UNL     1       8.190  21.773  55.991  1.00  0.00     0.040 A 
ENDBRANCH  11  12
ENDBRANCH   8  11
ENDBRANCH   2   5
BRANCH   1  18
HETATM   18  C   UNL     1       4.666  28.360  49.166  1.00  0.00     0.061 C 
HETATM   19  C   UNL     1       4.298  29.854  49.308  1.00  0.00     0.030 C 
HETATM   20  C   UNL     1       5.992  28.292  48.377  1.00  0.00     0.030 C 
BRANCH  18  21
HETATM   21  C   UNL     1       3.611  27.516  48.425  1.00  0.00    -0.038 A 
HETATM   22  C   UNL     1       2.255  27.877  48.363  1.00  0.00     0.050 A 
HETATM   23  C   UNL     1       1.339  27.074  47.685  1.00  0.00     0.117 A 
HETATM   24  F   UNL     1       0.050  27.438  47.650  1.00  0.00    -0.206 F 
HETATM   25  C   UNL     1       1.736  25.904  47.052  1.00  0.00     0.042 A 
HETATM   26  C   UNL     1       3.074  25.530  47.095  1.00  0.00     0.004 A 
HETATM   27  C   UNL     1       4.001  26.327  47.774  1.00  0.00     0.008 A 
ENDBRANCH  18  21
ENDBRANCH   1  18
TORSDOF 5
ENDMDL
