MODEL 1
REMARK VINA RESULT:      -9.8      0.000      0.000
REMARK  9 active torsions:
REMARK  status: ('A' for Active; 'I' for Inactive)
REMARK    1  A    between atoms: C_3  and  C_4 
REMARK    2  A    between atoms: C_4  and  C_5 
REMARK    3  A    between atoms: C_5  and  O_6 
REMARK    4  A    between atoms: C_16  and  O_17 
REMARK    5  A    between atoms: C_18  and  C_19 
REMARK    6  A    between atoms: C_19  and  N_20 
REMARK    7  A    between atoms: N_20  and  C_23 
REMARK    8  A    between atoms: N_26  and  C_28 
REMARK    9  A    between atoms: C_28  and  C_29 
ROOT
HETATM    1  C   UNL     1       5.433  32.527  59.492  1.00  0.00     0.050 C 
HETATM    2  C   UNL     1       6.863  32.056  59.584  1.00  0.00    -0.036 C 
HETATM    3  C   UNL     1       7.691  32.376  60.602  1.00  0.00     0.034 C 
HETATM    4  C   UNL     1       9.126  31.979  60.583  1.00  0.00     0.295 C 
HETATM    5  O   UNL     1       9.849  32.122  61.560  1.00  0.00    -0.259 OA
HETATM    6  O   UNL     1       9.612  31.453  59.402  1.00  0.00    -0.274 OA
HETATM    7  C   UNL     1       8.753  30.968  58.400  1.00  0.00     0.099 A 
HETATM    8  C   UNL     1       7.380  31.206  58.491  1.00  0.00     0.006 A 
HETATM    9  C   UNL     1       9.337  30.190  57.382  1.00  0.00     0.007 A 
HETATM   10  C   UNL     1      10.828  29.989  57.327  1.00  0.00     0.054 C 
HETATM   11  C   UNL     1       8.472  29.574  56.472  1.00  0.00     0.082 A 
HETATM   12  C   UNL     1       7.079  29.745  56.558  1.00  0.00     0.002 A 
HETATM   13  C   UNL     1       6.548  30.583  57.551  1.00  0.00     0.026 A 
ENDROOT
BRANCH  12  14
HETATM   14  C   UNL     1       6.165  28.966  55.657  1.00  0.00     0.274 C 
BRANCH  14  15
HETATM   15  N   UNL     1       6.518  27.507  55.762  1.00  0.00    -0.067 N 
HETATM   16  H   UNL     1       6.275  27.096  54.851  1.00  0.00     0.277 HD
HETATM   17  H   UNL     1       7.552  27.487  55.748  1.00  0.00     0.277 HD
BRANCH  15  18
HETATM   18  C   UNL     1       6.063  26.672  56.926  1.00  0.00     0.189 C 
HETATM   19  C   UNL     1       5.511  25.296  56.561  1.00  0.00     0.060 C 
HETATM   20  C   UNL     1       6.537  24.171  56.466  1.00  0.00     0.237 C 
HETATM   21  N   UNL     1       7.932  24.712  56.312  1.00  0.00    -0.067 N 
HETATM   22  H   UNL     1       7.975  25.255  55.437  1.00  0.00     0.280 HD
HETATM   23  C   UNL     1       8.348  25.590  57.465  1.00  0.00     0.237 C 
HETATM   24  C   UNL     1       7.225  26.533  57.911  1.00  0.00     0.060 C 
BRANCH  21  25
HETATM   25  C   UNL     1       8.977  23.608  56.030  1.00  0.00     0.273 C 
BRANCH  25  26
HETATM   26  C   UNL     1       8.581  22.561  55.027  1.00  0.00    -0.033 A 
HETATM   27  C   UNL     1       8.513  21.211  55.414  1.00  0.00     0.009 A 
HETATM   28  C   UNL     1       8.191  20.223  54.486  1.00  0.00     0.001 A 
HETATM   29  C   UNL     1       7.929  20.567  53.165  1.00  0.00     0.000 A 
HETATM   30  C   UNL     1       7.977  21.902  52.770  1.00  0.00     0.001 A 
HETATM   31  C   UNL     1       8.297  22.898  53.696  1.00  0.00     0.009 A 
ENDBRANCH  25  26
ENDBRANCH  21  25
ENDBRANCH  15  18
ENDBRANCH  14  15
ENDBRANCH  12  14
BRANCH  11  32
HETATM   32  O   UNL     1       8.943  28.716  55.499  1.00  0.00    -0.359 OA
HETATM   33  H   UNL     1       9.378  29.299  54.837  1.00  0.00     0.217 HD
ENDBRANCH  11  32
BRANCH   3  34
HETATM   34  C   UNL     1       7.319  33.135  61.857  1.00  0.00     0.156 C 
BRANCH  34  35
HETATM   35  C   UNL     1       6.862  32.186  62.949  1.00  0.00     0.262 C 
HETATM   36  O   UNL     1       5.973  31.354  62.824  1.00  0.00    -0.265 OA
BRANCH  35  37
HETATM   37  O   UNL     1       7.629  32.373  64.057  1.00  0.00    -0.326 OA
HETATM   38  C   UNL     1       7.371  33.588  64.764  1.00  0.00     0.213 C 
ENDBRANCH  35  37
ENDBRANCH  34  35
ENDBRANCH   3  34
TORSDOF 9
ENDMDL
MODEL 2
REMARK VINA RESULT:      -9.5      2.688      4.601
REMARK  9 active torsions:
REMARK  status: ('A' for Active; 'I' for Inactive)
REMARK    1  A    between atoms: C_3  and  C_4 
REMARK    2  A    between atoms: C_4  and  C_5 
REMARK    3  A    between atoms: C_5  and  O_6 
REMARK    4  A    between atoms: C_16  and  O_17 
REMARK    5  A    between atoms: C_18  and  C_19 
REMARK    6  A    between atoms: C_19  and  N_20 
REMARK    7  A    between atoms: N_20  and  C_23 
REMARK    8  A    between atoms: N_26  and  C_28 
REMARK    9  A    between atoms: C_28  and  C_29 
ROOT
HETATM    1  C   UNL     1       7.675  28.050  57.089  1.00  0.00     0.050 C 
HETATM    2  C   UNL     1       7.030  29.402  57.264  1.00  0.00    -0.036 C 
HETATM    3  C   UNL     1       7.433  30.310  58.179  1.00  0.00     0.034 C 
HETATM    4  C   UNL     1       6.687  31.581  58.386  1.00  0.00     0.295 C 
HETATM    5  O   UNL     1       7.122  32.480  59.094  1.00  0.00    -0.259 OA
HETATM    6  O   UNL     1       5.465  31.697  57.752  1.00  0.00    -0.274 OA
HETATM    7  C   UNL     1       5.101  30.853  56.687  1.00  0.00     0.099 A 
HETATM    8  C   UNL     1       5.888  29.738  56.389  1.00  0.00     0.006 A 
HETATM    9  C   UNL     1       3.983  31.237  55.922  1.00  0.00     0.007 A 
HETATM   10  C   UNL     1       3.162  32.439  56.310  1.00  0.00     0.054 C 
HETATM   11  C   UNL     1       3.710  30.493  54.770  1.00  0.00     0.082 A 
HETATM   12  C   UNL     1       4.506  29.394  54.405  1.00  0.00     0.002 A 
HETATM   13  C   UNL     1       5.572  29.010  55.234  1.00  0.00     0.026 A 
ENDROOT
BRANCH  12  14
HETATM   14  C   UNL     1       4.278  28.698  53.094  1.00  0.00     0.274 C 
BRANCH  14  15
HETATM   15  N   UNL     1       4.425  27.216  53.307  1.00  0.00    -0.067 N 
HETATM   16  H   UNL     1       4.991  27.112  54.159  1.00  0.00     0.277 HD
HETATM   17  H   UNL     1       3.490  26.903  53.620  1.00  0.00     0.277 HD
BRANCH  15  18
HETATM   18  C   UNL     1       4.861  26.303  52.195  1.00  0.00     0.189 C 
HETATM   19  C   UNL     1       6.301  26.493  51.725  1.00  0.00     0.060 C 
HETATM   20  C   UNL     1       7.358  25.688  52.475  1.00  0.00     0.237 C 
HETATM   21  N   UNL     1       6.842  25.208  53.804  1.00  0.00    -0.067 N 
HETATM   22  H   UNL     1       6.606  26.032  54.377  1.00  0.00     0.280 HD
HETATM   23  C   UNL     1       5.625  24.326  53.674  1.00  0.00     0.237 C 
HETATM   24  C   UNL     1       4.632  24.856  52.633  1.00  0.00     0.060 C 
BRANCH  21  25
HETATM   25  C   UNL     1       7.937  24.546  54.670  1.00  0.00     0.273 C 
BRANCH  25  26
HETATM   26  C   UNL     1       8.037  23.050  54.584  1.00  0.00    -0.033 A 
HETATM   27  C   UNL     1       7.689  22.260  55.695  1.00  0.00     0.009 A 
HETATM   28  C   UNL     1       7.818  20.874  55.647  1.00  0.00     0.001 A 
HETATM   29  C   UNL     1       8.290  20.258  54.492  1.00  0.00     0.000 A 
HETATM   30  C   UNL     1       8.624  21.026  53.379  1.00  0.00     0.001 A 
HETATM   31  C   UNL     1       8.494  22.416  53.420  1.00  0.00     0.009 A 
ENDBRANCH  25  26
ENDBRANCH  21  25
ENDBRANCH  15  18
ENDBRANCH  14  15
ENDBRANCH  12  14
BRANCH  11  32
HETATM   32  O   UNL     1       2.694  30.852  53.907  1.00  0.00    -0.359 OA
HETATM   33  H   UNL     1       1.881  30.854  54.461  1.00  0.00     0.217 HD
ENDBRANCH  11  32
BRANCH   3  34
HETATM   34  C   UNL     1       8.642  30.197  59.082  1.00  0.00     0.156 C 
BRANCH  34  35
HETATM   35  C   UNL     1       9.875  30.773  58.412  1.00  0.00     0.262 C 
HETATM   36  O   UNL     1      10.219  31.947  58.471  1.00  0.00    -0.265 OA
BRANCH  35  37
HETATM   37  O   UNL     1      10.555  29.775  57.786  1.00  0.00    -0.326 OA
HETATM   38  C   UNL     1      10.592  29.879  56.361  1.00  0.00     0.213 C 
ENDBRANCH  35  37
ENDBRANCH  34  35
ENDBRANCH   3  34
TORSDOF 9
ENDMDL
MODEL 3
REMARK VINA RESULT:      -9.4      1.745      2.703
REMARK  9 active torsions:
REMARK  status: ('A' for Active; 'I' for Inactive)
REMARK    1  A    between atoms: C_3  and  C_4 
REMARK    2  A    between atoms: C_4  and  C_5 
REMARK    3  A    between atoms: C_5  and  O_6 
REMARK    4  A    between atoms: C_16  and  O_17 
REMARK    5  A    between atoms: C_18  and  C_19 
REMARK    6  A    between atoms: C_19  and  N_20 
REMARK    7  A    between atoms: N_20  and  C_23 
REMARK    8  A    between atoms: N_26  and  C_28 
REMARK    9  A    between atoms: C_28  and  C_29 
ROOT
HETATM    1  C   UNL     1       8.407  30.934  61.806  1.00  0.00     0.050 C 
HETATM    2  C   UNL     1       7.385  31.617  60.931  1.00  0.00    -0.036 C 
HETATM    3  C   UNL     1       6.637  32.668  61.333  1.00  0.00     0.034 C 
HETATM    4  C   UNL     1       5.564  33.227  60.468  1.00  0.00     0.295 C 
HETATM    5  O   UNL     1       4.985  34.269  60.747  1.00  0.00    -0.259 OA
HETATM    6  O   UNL     1       5.235  32.507  59.336  1.00  0.00    -0.274 OA
HETATM    7  C   UNL     1       6.088  31.516  58.817  1.00  0.00     0.099 A 
HETATM    8  C   UNL     1       7.192  31.094  59.562  1.00  0.00     0.006 A 
HETATM    9  C   UNL     1       5.813  31.057  57.515  1.00  0.00     0.007 A 
HETATM   10  C   UNL     1       4.593  31.535  56.772  1.00  0.00     0.054 C 
HETATM   11  C   UNL     1       6.744  30.191  56.932  1.00  0.00     0.082 A 
HETATM   12  C   UNL     1       7.894  29.781  57.627  1.00  0.00     0.002 A 
HETATM   13  C   UNL     1       8.093  30.214  58.947  1.00  0.00     0.026 A 
ENDROOT
BRANCH  12  14
HETATM   14  C   UNL     1       8.946  28.964  56.932  1.00  0.00     0.274 C 
BRANCH  14  15
HETATM   15  N   UNL     1       8.314  27.693  56.434  1.00  0.00    -0.067 N 
HETATM   16  H   UNL     1       7.691  27.975  55.666  1.00  0.00     0.277 HD
HETATM   17  H   UNL     1       9.075  27.201  55.935  1.00  0.00     0.277 HD
BRANCH  15  18
HETATM   18  C   UNL     1       7.680  26.710  57.377  1.00  0.00     0.189 C 
HETATM   19  C   UNL     1       6.204  26.418  57.115  1.00  0.00     0.060 C 
HETATM   20  C   UNL     1       5.913  25.291  56.129  1.00  0.00     0.237 C 
HETATM   21  N   UNL     1       7.113  24.985  55.275  1.00  0.00    -0.067 N 
HETATM   22  H   UNL     1       7.349  25.829  54.732  1.00  0.00     0.280 HD
HETATM   23  C   UNL     1       8.313  24.562  56.086  1.00  0.00     0.237 C 
HETATM   24  C   UNL     1       8.490  25.413  57.348  1.00  0.00     0.060 C 
BRANCH  21  25
HETATM   25  C   UNL     1       6.805  23.978  54.144  1.00  0.00     0.273 C 
BRANCH  25  26
HETATM   26  C   UNL     1       7.463  22.632  54.255  1.00  0.00    -0.033 A 
HETATM   27  C   UNL     1       8.049  22.044  53.120  1.00  0.00     0.009 A 
HETATM   28  C   UNL     1       8.624  20.777  53.196  1.00  0.00     0.001 A 
HETATM   29  C   UNL     1       8.627  20.084  54.402  1.00  0.00     0.000 A 
HETATM   30  C   UNL     1       8.064  20.661  55.538  1.00  0.00     0.001 A 
HETATM   31  C   UNL     1       7.488  21.932  55.469  1.00  0.00     0.009 A 
ENDBRANCH  25  26
ENDBRANCH  21  25
ENDBRANCH  15  18
ENDBRANCH  14  15
ENDBRANCH  12  14
BRANCH  11  32
HETATM   32  O   UNL     1       6.609  29.764  55.626  1.00  0.00    -0.359 OA
HETATM   33  H   UNL     1       7.044  30.462  55.085  1.00  0.00     0.217 HD
ENDBRANCH  11  32
BRANCH   3  34
HETATM   34  C   UNL     1       6.767  33.409  62.646  1.00  0.00     0.156 C 
BRANCH  34  35
HETATM   35  C   UNL     1       5.645  33.031  63.594  1.00  0.00     0.262 C 
HETATM   36  O   UNL     1       5.138  31.919  63.668  1.00  0.00    -0.265 OA
BRANCH  35  37
HETATM   37  O   UNL     1       5.335  34.101  64.375  1.00  0.00    -0.326 OA
HETATM   38  C   UNL     1       4.655  33.778  65.589  1.00  0.00     0.213 C 
ENDBRANCH  35  37
ENDBRANCH  34  35
ENDBRANCH   3  34
TORSDOF 9
ENDMDL
MODEL 4
REMARK VINA RESULT:      -9.3      1.693      2.644
REMARK  9 active torsions:
REMARK  status: ('A' for Active; 'I' for Inactive)
REMARK    1  A    between atoms: C_3  and  C_4 
REMARK    2  A    between atoms: C_4  and  C_5 
REMARK    3  A    between atoms: C_5  and  O_6 
REMARK    4  A    between atoms: C_16  and  O_17 
REMARK    5  A    between atoms: C_18  and  C_19 
REMARK    6  A    between atoms: C_19  and  N_20 
REMARK    7  A    between atoms: N_20  and  C_23 
REMARK    8  A    between atoms: N_26  and  C_28 
REMARK    9  A    between atoms: C_28  and  C_29 
ROOT
HETATM    1  C   UNL     1       5.394  32.467  59.496  1.00  0.00     0.050 C 
HETATM    2  C   UNL     1       6.822  31.987  59.560  1.00  0.00    -0.036 C 
HETATM    3  C   UNL     1       7.690  32.346  60.531  1.00  0.00     0.034 C 
HETATM    4  C   UNL     1       9.119  31.934  60.480  1.00  0.00     0.295 C 
HETATM    5  O   UNL     1       9.879  32.116  61.422  1.00  0.00    -0.259 OA
HETATM    6  O   UNL     1       9.558  31.348  59.309  1.00  0.00    -0.274 OA
HETATM    7  C   UNL     1       8.659  30.824  58.362  1.00  0.00     0.099 A 
HETATM    8  C   UNL     1       7.292  31.081  58.491  1.00  0.00     0.006 A 
HETATM    9  C   UNL     1       9.198  29.992  57.363  1.00  0.00     0.007 A 
HETATM   10  C   UNL     1      10.685  29.773  57.264  1.00  0.00     0.054 C 
HETATM   11  C   UNL     1       8.295  29.342  56.515  1.00  0.00     0.082 A 
HETATM   12  C   UNL     1       6.909  29.532  56.642  1.00  0.00     0.002 A 
HETATM   13  C   UNL     1       6.421  30.422  57.612  1.00  0.00     0.026 A 
ENDROOT
BRANCH  12  14
HETATM   14  C   UNL     1       5.956  28.720  55.813  1.00  0.00     0.274 C 
BRANCH  14  15
HETATM   15  N   UNL     1       6.258  28.963  54.360  1.00  0.00    -0.067 N 
HETATM   16  H   UNL     1       6.801  29.836  54.331  1.00  0.00     0.277 HD
HETATM   17  H   UNL     1       6.967  28.250  54.117  1.00  0.00     0.277 HD
BRANCH  15  18
HETATM   18  C   UNL     1       5.179  28.906  53.314  1.00  0.00     0.189 C 
HETATM   19  C   UNL     1       5.663  28.601  51.899  1.00  0.00     0.060 C 
HETATM   20  C   UNL     1       5.760  27.123  51.532  1.00  0.00     0.237 C 
HETATM   21  N   UNL     1       5.789  26.254  52.760  1.00  0.00    -0.067 N 
HETATM   22  H   UNL     1       6.625  26.500  53.312  1.00  0.00     0.280 HD
HETATM   23  C   UNL     1       4.559  26.415  53.618  1.00  0.00     0.237 C 
HETATM   24  C   UNL     1       4.131  27.881  53.750  1.00  0.00     0.060 C 
BRANCH  21  25
HETATM   25  C   UNL     1       6.070  24.768  52.439  1.00  0.00     0.273 C 
BRANCH  25  26
HETATM   26  C   UNL     1       7.087  24.083  53.306  1.00  0.00    -0.033 A 
HETATM   27  C   UNL     1       7.733  22.922  52.843  1.00  0.00     0.009 A 
HETATM   28  C   UNL     1       8.646  22.249  53.652  1.00  0.00     0.001 A 
HETATM   29  C   UNL     1       8.931  22.725  54.927  1.00  0.00     0.000 A 
HETATM   30  C   UNL     1       8.311  23.883  55.393  1.00  0.00     0.001 A 
HETATM   31  C   UNL     1       7.397  24.564  54.586  1.00  0.00     0.009 A 
ENDBRANCH  25  26
ENDBRANCH  21  25
ENDBRANCH  15  18
ENDBRANCH  14  15
ENDBRANCH  12  14
BRANCH  11  32
HETATM   32  O   UNL     1       8.724  28.434  55.569  1.00  0.00    -0.359 OA
HETATM   33  H   UNL     1       7.954  28.311  54.969  1.00  0.00     0.217 HD
ENDBRANCH  11  32
BRANCH   3  34
HETATM   34  C   UNL     1       7.370  33.168  61.760  1.00  0.00     0.156 C 
BRANCH  34  35
HETATM   35  C   UNL     1       6.919  32.279  62.904  1.00  0.00     0.262 C 
HETATM   36  O   UNL     1       5.989  31.486  62.847  1.00  0.00    -0.265 OA
BRANCH  35  37
HETATM   37  O   UNL     1       7.741  32.468  63.972  1.00  0.00    -0.326 OA
HETATM   38  C   UNL     1       7.322  33.494  64.874  1.00  0.00     0.213 C 
ENDBRANCH  35  37
ENDBRANCH  34  35
ENDBRANCH   3  34
TORSDOF 9
ENDMDL
MODEL 5
REMARK VINA RESULT:      -9.0      4.591      9.025
REMARK  9 active torsions:
REMARK  status: ('A' for Active; 'I' for Inactive)
REMARK    1  A    between atoms: C_3  and  C_4 
REMARK    2  A    between atoms: C_4  and  C_5 
REMARK    3  A    between atoms: C_5  and  O_6 
REMARK    4  A    between atoms: C_16  and  O_17 
REMARK    5  A    between atoms: C_18  and  C_19 
REMARK    6  A    between atoms: C_19  and  N_20 
REMARK    7  A    between atoms: N_20  and  C_23 
REMARK    8  A    between atoms: N_26  and  C_28 
REMARK    9  A    between atoms: C_28  and  C_29 
ROOT
HETATM    1  C   UNL     1       8.106  25.313  56.658  1.00  0.00     0.050 C 
HETATM    2  C   UNL     1       7.630  24.884  55.292  1.00  0.00    -0.036 C 
HETATM    3  C   UNL     1       8.110  23.805  54.638  1.00  0.00     0.034 C 
HETATM    4  C   UNL     1       7.687  23.496  53.245  1.00  0.00     0.295 C 
HETATM    5  O   UNL     1       7.988  22.444  52.695  1.00  0.00    -0.259 OA
HETATM    6  O   UNL     1       6.948  24.461  52.589  1.00  0.00    -0.274 OA
HETATM    7  C   UNL     1       6.309  25.503  53.285  1.00  0.00     0.099 A 
HETATM    8  C   UNL     1       6.588  25.703  54.639  1.00  0.00     0.006 A 
HETATM    9  C   UNL     1       5.348  26.248  52.575  1.00  0.00     0.007 A 
HETATM   10  C   UNL     1       5.110  25.998  51.109  1.00  0.00     0.054 C 
HETATM   11  C   UNL     1       4.597  27.179  53.300  1.00  0.00     0.082 A 
HETATM   12  C   UNL     1       4.810  27.377  54.675  1.00  0.00     0.002 A 
HETATM   13  C   UNL     1       5.823  26.656  55.326  1.00  0.00     0.026 A 
ENDROOT
BRANCH  12  14
HETATM   14  C   UNL     1       3.901  28.279  55.458  1.00  0.00     0.274 C 
BRANCH  14  15
HETATM   15  N   UNL     1       4.050  29.681  54.935  1.00  0.00    -0.067 N 
HETATM   16  H   UNL     1       5.048  29.789  54.708  1.00  0.00     0.277 HD
HETATM   17  H   UNL     1       3.609  29.660  53.999  1.00  0.00     0.277 HD
BRANCH  15  18
HETATM   18  C   UNL     1       3.485  30.860  55.677  1.00  0.00     0.189 C 
HETATM   19  C   UNL     1       3.140  30.602  57.141  1.00  0.00     0.060 C 
HETATM   20  C   UNL     1       4.271  30.824  58.141  1.00  0.00     0.237 C 
HETATM   21  N   UNL     1       5.613  30.822  57.461  1.00  0.00    -0.067 N 
HETATM   22  H   UNL     1       5.753  29.900  57.022  1.00  0.00     0.280 HD
HETATM   23  C   UNL     1       5.735  31.898  56.410  1.00  0.00     0.237 C 
HETATM   24  C   UNL     1       4.467  32.027  55.560  1.00  0.00     0.060 C 
BRANCH  21  25
HETATM   25  C   UNL     1       6.792  30.861  58.459  1.00  0.00     0.273 C 
BRANCH  25  26
HETATM   26  C   UNL     1       8.116  30.375  57.941  1.00  0.00    -0.033 A 
HETATM   27  C   UNL     1       8.170  29.233  57.122  1.00  0.00     0.009 A 
HETATM   28  C   UNL     1       9.393  28.743  56.670  1.00  0.00     0.001 A 
HETATM   29  C   UNL     1      10.575  29.385  57.023  1.00  0.00     0.000 A 
HETATM   30  C   UNL     1      10.535  30.526  57.821  1.00  0.00     0.001 A 
HETATM   31  C   UNL     1       9.312  31.025  58.275  1.00  0.00     0.009 A 
ENDBRANCH  25  26
ENDBRANCH  21  25
ENDBRANCH  15  18
ENDBRANCH  14  15
ENDBRANCH  12  14
BRANCH  11  32
HETATM   32  O   UNL     1       3.569  27.888  52.712  1.00  0.00    -0.359 OA
HETATM   33  H   UNL     1       3.663  28.804  53.058  1.00  0.00     0.217 HD
ENDBRANCH  11  32
BRANCH   3  34
HETATM   34  C   UNL     1       9.090  22.788  55.182  1.00  0.00     0.156 C 
BRANCH  34  35
HETATM   35  C   UNL     1       8.409  21.852  56.163  1.00  0.00     0.262 C 
HETATM   36  O   UNL     1       8.360  22.024  57.374  1.00  0.00    -0.265 OA
BRANCH  35  37
HETATM   37  O   UNL     1       7.824  20.831  55.479  1.00  0.00    -0.326 OA
HETATM   38  C   UNL     1       8.739  19.950  54.824  1.00  0.00     0.213 C 
ENDBRANCH  35  37
ENDBRANCH  34  35
ENDBRANCH   3  34
TORSDOF 9
ENDMDL
MODEL 6
REMARK VINA RESULT:      -8.8      2.116      3.684
REMARK  9 active torsions:
REMARK  status: ('A' for Active; 'I' for Inactive)
REMARK    1  A    between atoms: C_3  and  C_4 
REMARK    2  A    between atoms: C_4  and  C_5 
REMARK    3  A    between atoms: C_5  and  O_6 
REMARK    4  A    between atoms: C_16  and  O_17 
REMARK    5  A    between atoms: C_18  and  C_19 
REMARK    6  A    between atoms: C_19  and  N_20 
REMARK    7  A    between atoms: N_20  and  C_23 
REMARK    8  A    between atoms: N_26  and  C_28 
REMARK    9  A    between atoms: C_28  and  C_29 
ROOT
HETATM    1  C   UNL     1       4.978  34.730  61.153  1.00  0.00     0.050 C 
HETATM    2  C   UNL     1       5.947  33.825  61.873  1.00  0.00    -0.036 C 
HETATM    3  C   UNL     1       6.201  33.904  63.198  1.00  0.00     0.034 C 
HETATM    4  C   UNL     1       7.251  33.064  63.834  1.00  0.00     0.295 C 
HETATM    5  O   UNL     1       7.388  33.007  65.049  1.00  0.00    -0.259 OA
HETATM    6  O   UNL     1       8.082  32.356  62.986  1.00  0.00    -0.274 OA
HETATM    7  C   UNL     1       7.746  32.132  61.639  1.00  0.00     0.099 A 
HETATM    8  C   UNL     1       6.660  32.806  61.075  1.00  0.00     0.006 A 
HETATM    9  C   UNL     1       8.497  31.162  60.948  1.00  0.00     0.007 A 
HETATM   10  C   UNL     1       9.672  30.486  61.605  1.00  0.00     0.054 C 
HETATM   11  C   UNL     1       8.070  30.820  59.661  1.00  0.00     0.082 A 
HETATM   12  C   UNL     1       6.952  31.437  59.074  1.00  0.00     0.002 A 
HETATM   13  C   UNL     1       6.274  32.445  59.777  1.00  0.00     0.026 A 
ENDROOT
BRANCH  12  14
HETATM   14  C   UNL     1       6.432  30.957  57.750  1.00  0.00     0.274 C 
BRANCH  14  15
HETATM   15  N   UNL     1       5.968  29.535  57.904  1.00  0.00    -0.067 N 
HETATM   16  H   UNL     1       6.820  28.959  57.869  1.00  0.00     0.277 HD
HETATM   17  H   UNL     1       5.687  29.457  58.897  1.00  0.00     0.277 HD
BRANCH  15  18
HETATM   18  C   UNL     1       4.847  28.979  57.071  1.00  0.00     0.189 C 
HETATM   19  C   UNL     1       4.692  29.608  55.689  1.00  0.00     0.060 C 
HETATM   20  C   UNL     1       5.514  28.973  54.571  1.00  0.00     0.237 C 
HETATM   21  N   UNL     1       6.643  28.145  55.123  1.00  0.00    -0.067 N 
HETATM   22  H   UNL     1       7.266  28.764  55.662  1.00  0.00     0.280 HD
HETATM   23  C   UNL     1       6.164  27.024  56.011  1.00  0.00     0.237 C 
HETATM   24  C   UNL     1       5.034  27.466  56.947  1.00  0.00     0.060 C 
BRANCH  21  25
HETATM   25  C   UNL     1       7.605  27.634  54.027  1.00  0.00     0.273 C 
BRANCH  25  26
HETATM   26  C   UNL     1       7.589  26.155  53.766  1.00  0.00    -0.033 A 
HETATM   27  C   UNL     1       7.191  25.671  52.506  1.00  0.00     0.009 A 
HETATM   28  C   UNL     1       7.128  24.301  52.261  1.00  0.00     0.001 A 
HETATM   29  C   UNL     1       7.464  23.398  53.265  1.00  0.00     0.000 A 
HETATM   30  C   UNL     1       7.874  23.863  54.512  1.00  0.00     0.001 A 
HETATM   31  C   UNL     1       7.942  25.235  54.763  1.00  0.00     0.009 A 
ENDBRANCH  25  26
ENDBRANCH  21  25
ENDBRANCH  15  18
ENDBRANCH  14  15
ENDBRANCH  12  14
BRANCH  11  32
HETATM   32  O   UNL     1       8.684  29.813  58.943  1.00  0.00    -0.359 OA
HETATM   33  H   UNL     1       8.487  28.989  59.445  1.00  0.00     0.217 HD
ENDBRANCH  11  32
BRANCH   3  34
HETATM   34  C   UNL     1       5.495  34.798  64.194  1.00  0.00     0.156 C 
BRANCH  34  35
HETATM   35  C   UNL     1       4.265  34.114  64.759  1.00  0.00     0.262 C 
HETATM   36  O   UNL     1       3.270  33.819  64.110  1.00  0.00    -0.265 OA
BRANCH  35  37
HETATM   37  O   UNL     1       4.468  33.838  66.076  1.00  0.00    -0.326 OA
HETATM   38  C   UNL     1       4.953  34.938  66.848  1.00  0.00     0.213 C 
ENDBRANCH  35  37
ENDBRANCH  34  35
ENDBRANCH   3  34
TORSDOF 9
ENDMDL
MODEL 7
REMARK VINA RESULT:      -8.8      2.341      2.994
REMARK  9 active torsions:
REMARK  status: ('A' for Active; 'I' for Inactive)
REMARK    1  A    between atoms: C_3  and  C_4 
REMARK    2  A    between atoms: C_4  and  C_5 
REMARK    3  A    between atoms: C_5  and  O_6 
REMARK    4  A    between atoms: C_16  and  O_17 
REMARK    5  A    between atoms: C_18  and  C_19 
REMARK    6  A    between atoms: C_19  and  N_20 
REMARK    7  A    between atoms: N_20  and  C_23 
REMARK    8  A    between atoms: N_26  and  C_28 
REMARK    9  A    between atoms: C_28  and  C_29 
ROOT
HETATM    1  C   UNL     1       3.924  33.410  57.789  1.00  0.00     0.050 C 
HETATM    2  C   UNL     1       4.807  33.066  58.962  1.00  0.00    -0.036 C 
HETATM    3  C   UNL     1       4.708  33.656  60.173  1.00  0.00     0.034 C 
HETATM    4  C   UNL     1       5.681  33.360  61.259  1.00  0.00     0.295 C 
HETATM    5  O   UNL     1       5.516  33.763  62.403  1.00  0.00    -0.259 OA
HETATM    6  O   UNL     1       6.794  32.618  60.914  1.00  0.00    -0.274 OA
HETATM    7  C   UNL     1       6.843  31.869  59.725  1.00  0.00     0.099 A 
HETATM    8  C   UNL     1       5.843  32.031  58.763  1.00  0.00     0.006 A 
HETATM    9  C   UNL     1       7.880  30.923  59.610  1.00  0.00     0.007 A 
HETATM   10  C   UNL     1       8.942  30.813  60.673  1.00  0.00     0.054 C 
HETATM   11  C   UNL     1       7.845  30.066  58.505  1.00  0.00     0.082 A 
HETATM   12  C   UNL     1       6.829  30.161  57.540  1.00  0.00     0.002 A 
HETATM   13  C   UNL     1       5.852  31.162  57.663  1.00  0.00     0.026 A 
ENDROOT
BRANCH  12  14
HETATM   14  C   UNL     1       6.734  29.143  56.439  1.00  0.00     0.274 C 
BRANCH  14  15
HETATM   15  N   UNL     1       6.174  27.870  57.011  1.00  0.00    -0.067 N 
HETATM   16  H   UNL     1       6.964  27.402  57.475  1.00  0.00     0.277 HD
HETATM   17  H   UNL     1       5.594  28.176  57.812  1.00  0.00     0.277 HD
BRANCH  15  18
HETATM   18  C   UNL     1       5.342  26.935  56.178  1.00  0.00     0.189 C 
HETATM   19  C   UNL     1       5.849  26.705  54.757  1.00  0.00     0.060 C 
HETATM   20  C   UNL     1       6.857  25.573  54.584  1.00  0.00     0.237 C 
HETATM   21  N   UNL     1       7.488  25.196  55.897  1.00  0.00    -0.067 N 
HETATM   22  H   UNL     1       7.993  26.017  56.262  1.00  0.00     0.280 HD
HETATM   23  C   UNL     1       6.479  24.736  56.919  1.00  0.00     0.237 C 
HETATM   24  C   UNL     1       5.215  25.603  56.919  1.00  0.00     0.060 C 
BRANCH  21  25
HETATM   25  C   UNL     1       8.643  24.181  55.738  1.00  0.00     0.273 C 
BRANCH  25  26
HETATM   26  C   UNL     1       8.320  22.919  54.991  1.00  0.00    -0.033 A 
HETATM   27  C   UNL     1       8.074  21.729  55.700  1.00  0.00     0.009 A 
HETATM   28  C   UNL     1       7.816  20.540  55.022  1.00  0.00     0.001 A 
HETATM   29  C   UNL     1       7.795  20.522  53.631  1.00  0.00     0.000 A 
HETATM   30  C   UNL     1       8.021  21.695  52.916  1.00  0.00     0.001 A 
HETATM   31  C   UNL     1       8.277  22.891  53.590  1.00  0.00     0.009 A 
ENDBRANCH  25  26
ENDBRANCH  21  25
ENDBRANCH  15  18
ENDBRANCH  14  15
ENDBRANCH  12  14
BRANCH  11  32
HETATM   32  O   UNL     1       8.764  29.046  58.357  1.00  0.00    -0.359 OA
HETATM   33  H   UNL     1       8.298  28.362  57.825  1.00  0.00     0.217 HD
ENDBRANCH  11  32
BRANCH   3  34
HETATM   34  C   UNL     1       3.649  34.649  60.601  1.00  0.00     0.156 C 
BRANCH  34  35
HETATM   35  C   UNL     1       4.088  36.071  60.305  1.00  0.00     0.262 C 
HETATM   36  O   UNL     1       4.079  36.588  59.196  1.00  0.00    -0.265 OA
BRANCH  35  37
HETATM   37  O   UNL     1       4.438  36.685  61.468  1.00  0.00    -0.326 OA
HETATM   38  C   UNL     1       3.371  36.840  62.406  1.00  0.00     0.213 C 
ENDBRANCH  35  37
ENDBRANCH  34  35
ENDBRANCH   3  34
TORSDOF 9
ENDMDL
MODEL 8
REMARK VINA RESULT:      -8.8      6.809     10.519
REMARK  9 active torsions:
REMARK  status: ('A' for Active; 'I' for Inactive)
REMARK    1  A    between atoms: C_3  and  C_4 
REMARK    2  A    between atoms: C_4  and  C_5 
REMARK    3  A    between atoms: C_5  and  O_6 
REMARK    4  A    between atoms: C_16  and  O_17 
REMARK    5  A    between atoms: C_18  and  C_19 
REMARK    6  A    between atoms: C_19  and  N_20 
REMARK    7  A    between atoms: N_20  and  C_23 
REMARK    8  A    between atoms: N_26  and  C_28 
REMARK    9  A    between atoms: C_28  and  C_29 
ROOT
HETATM    1  C   UNL     1       7.700  22.571  52.888  1.00  0.00     0.050 C 
HETATM    2  C   UNL     1       7.475  23.699  53.864  1.00  0.00    -0.036 C 
HETATM    3  C   UNL     1       8.036  23.749  55.092  1.00  0.00     0.034 C 
HETATM    4  C   UNL     1       7.687  24.827  56.057  1.00  0.00     0.295 C 
HETATM    5  O   UNL     1       8.297  24.978  57.107  1.00  0.00    -0.259 OA
HETATM    6  O   UNL     1       6.627  25.646  55.720  1.00  0.00    -0.274 OA
HETATM    7  C   UNL     1       6.138  25.719  54.404  1.00  0.00     0.099 A 
HETATM    8  C   UNL     1       6.581  24.800  53.449  1.00  0.00     0.006 A 
HETATM    9  C   UNL     1       5.270  26.786  54.104  1.00  0.00     0.007 A 
HETATM   10  C   UNL     1       4.811  27.731  55.184  1.00  0.00     0.054 C 
HETATM   11  C   UNL     1       4.906  26.958  52.765  1.00  0.00     0.082 A 
HETATM   12  C   UNL     1       5.369  26.087  51.765  1.00  0.00     0.002 A 
HETATM   13  C   UNL     1       6.181  24.998  52.121  1.00  0.00     0.026 A 
ENDROOT
BRANCH  12  14
HETATM   14  C   UNL     1       5.077  26.372  50.319  1.00  0.00     0.274 C 
BRANCH  14  15
HETATM   15  N   UNL     1       5.596  27.744  49.987  1.00  0.00    -0.067 N 
HETATM   16  H   UNL     1       5.189  28.373  50.692  1.00  0.00     0.277 HD
HETATM   17  H   UNL     1       6.594  27.719  50.260  1.00  0.00     0.277 HD
BRANCH  15  18
HETATM   18  C   UNL     1       5.520  28.295  48.591  1.00  0.00     0.189 C 
HETATM   19  C   UNL     1       4.988  27.325  47.538  1.00  0.00     0.060 C 
HETATM   20  C   UNL     1       3.473  27.308  47.354  1.00  0.00     0.237 C 
HETATM   21  N   UNL     1       2.770  27.915  48.537  1.00  0.00    -0.067 N 
HETATM   22  H   UNL     1       2.994  27.352  49.371  1.00  0.00     0.280 HD
HETATM   23  C   UNL     1       3.168  29.349  48.781  1.00  0.00     0.237 C 
HETATM   24  C   UNL     1       4.675  29.569  48.614  1.00  0.00     0.060 C 
BRANCH  21  25
HETATM   25  C   UNL     1       1.234  27.751  48.471  1.00  0.00     0.273 C 
BRANCH  25  26
HETATM   26  C   UNL     1       0.566  28.261  47.226  1.00  0.00    -0.033 A 
HETATM   27  C   UNL     1       0.404  29.645  47.034  1.00  0.00     0.009 A 
HETATM   28  C   UNL     1      -0.253  30.132  45.906  1.00  0.00     0.001 A 
HETATM   29  C   UNL     1      -0.752  29.249  44.955  1.00  0.00     0.000 A 
HETATM   30  C   UNL     1      -0.586  27.876  45.123  1.00  0.00     0.001 A 
HETATM   31  C   UNL     1       0.075  27.381  46.250  1.00  0.00     0.009 A 
ENDBRANCH  25  26
ENDBRANCH  21  25
ENDBRANCH  15  18
ENDBRANCH  14  15
ENDBRANCH  12  14
BRANCH  11  32
HETATM   32  O   UNL     1       4.137  28.031  52.361  1.00  0.00    -0.359 OA
HETATM   33  H   UNL     1       4.601  28.393  51.572  1.00  0.00     0.217 HD
ENDBRANCH  11  32
BRANCH   3  34
HETATM   34  C   UNL     1       9.058  22.782  55.651  1.00  0.00     0.156 C 
BRANCH  34  35
HETATM   35  C   UNL     1       8.386  21.706  56.482  1.00  0.00     0.262 C 
HETATM   36  O   UNL     1       8.280  21.730  57.702  1.00  0.00    -0.265 OA
BRANCH  35  37
HETATM   37  O   UNL     1       7.881  20.749  55.657  1.00  0.00    -0.326 OA
HETATM   38  C   UNL     1       8.864  19.953  54.993  1.00  0.00     0.213 C 
ENDBRANCH  35  37
ENDBRANCH  34  35
ENDBRANCH   3  34
TORSDOF 9
ENDMDL
MODEL 9
REMARK VINA RESULT:      -8.7      5.273      9.339
REMARK  9 active torsions:
REMARK  status: ('A' for Active; 'I' for Inactive)
REMARK    1  A    between atoms: C_3  and  C_4 
REMARK    2  A    between atoms: C_4  and  C_5 
REMARK    3  A    between atoms: C_5  and  O_6 
REMARK    4  A    between atoms: C_16  and  O_17 
REMARK    5  A    between atoms: C_18  and  C_19 
REMARK    6  A    between atoms: C_19  and  N_20 
REMARK    7  A    between atoms: N_20  and  C_23 
REMARK    8  A    between atoms: N_26  and  C_28 
REMARK    9  A    between atoms: C_28  and  C_29 
ROOT
HETATM    1  C   UNL     1       7.384  23.836  52.514  1.00  0.00     0.050 C 
HETATM    2  C   UNL     1       7.596  24.419  53.889  1.00  0.00    -0.036 C 
HETATM    3  C   UNL     1       8.230  23.767  54.888  1.00  0.00     0.034 C 
HETATM    4  C   UNL     1       8.308  24.344  56.258  1.00  0.00     0.295 C 
HETATM    5  O   UNL     1       9.007  23.846  57.131  1.00  0.00    -0.259 OA
HETATM    6  O   UNL     1       7.541  25.465  56.508  1.00  0.00    -0.274 OA
HETATM    7  C   UNL     1       7.009  26.244  55.465  1.00  0.00     0.099 A 
HETATM    8  C   UNL     1       7.070  25.775  54.150  1.00  0.00     0.006 A 
HETATM    9  C   UNL     1       6.504  27.512  55.810  1.00  0.00     0.007 A 
HETATM   10  C   UNL     1       6.445  27.951  57.250  1.00  0.00     0.054 C 
HETATM   11  C   UNL     1       6.119  28.355  54.762  1.00  0.00     0.082 A 
HETATM   12  C   UNL     1       6.212  27.942  53.422  1.00  0.00     0.002 A 
HETATM   13  C   UNL     1       6.661  26.645  53.130  1.00  0.00     0.026 A 
ENDROOT
BRANCH  12  14
HETATM   14  C   UNL     1       5.924  28.911  52.311  1.00  0.00     0.274 C 
BRANCH  14  15
HETATM   15  N   UNL     1       4.568  29.518  52.545  1.00  0.00    -0.067 N 
HETATM   16  H   UNL     1       3.889  28.786  52.296  1.00  0.00     0.277 HD
HETATM   17  H   UNL     1       4.477  29.567  53.574  1.00  0.00     0.277 HD
BRANCH  15  18
HETATM   18  C   UNL     1       4.207  30.869  51.992  1.00  0.00     0.189 C 
HETATM   19  C   UNL     1       5.107  31.371  50.866  1.00  0.00     0.060 C 
HETATM   20  C   UNL     1       4.702  30.955  49.455  1.00  0.00     0.237 C 
HETATM   21  N   UNL     1       3.766  29.778  49.477  1.00  0.00    -0.067 N 
HETATM   22  H   UNL     1       4.255  28.982  49.914  1.00  0.00     0.280 HD
HETATM   23  C   UNL     1       2.493  30.058  50.236  1.00  0.00     0.237 C 
HETATM   24  C   UNL     1       2.749  30.835  51.532  1.00  0.00     0.060 C 
BRANCH  21  25
HETATM   25  C   UNL     1       3.478  29.212  48.068  1.00  0.00     0.273 C 
BRANCH  25  26
HETATM   26  C   UNL     1       3.296  27.724  47.974  1.00  0.00    -0.033 A 
HETATM   27  C   UNL     1       3.959  26.879  48.882  1.00  0.00     0.009 A 
HETATM   28  C   UNL     1       3.835  25.495  48.782  1.00  0.00     0.001 A 
HETATM   29  C   UNL     1       3.048  24.937  47.781  1.00  0.00     0.000 A 
HETATM   30  C   UNL     1       2.374  25.761  46.883  1.00  0.00     0.001 A 
HETATM   31  C   UNL     1       2.490  27.150  46.981  1.00  0.00     0.009 A 
ENDBRANCH  25  26
ENDBRANCH  21  25
ENDBRANCH  15  18
ENDBRANCH  14  15
ENDBRANCH  12  14
BRANCH  11  32
HETATM   32  O   UNL     1       5.703  29.650  54.997  1.00  0.00    -0.359 OA
HETATM   33  H   UNL     1       4.751  29.659  54.747  1.00  0.00     0.217 HD
ENDBRANCH  11  32
BRANCH   3  34
HETATM   34  C   UNL     1       8.929  22.430  54.784  1.00  0.00     0.156 C 
BRANCH  34  35
HETATM   35  C   UNL     1       7.964  21.291  55.055  1.00  0.00     0.262 C 
HETATM   36  O   UNL     1       7.558  20.968  56.163  1.00  0.00    -0.265 OA
BRANCH  35  37
HETATM   37  O   UNL     1       7.587  20.731  53.874  1.00  0.00    -0.326 OA
HETATM   38  C   UNL     1       8.667  20.390  53.002  1.00  0.00     0.213 C 
ENDBRANCH  35  37
ENDBRANCH  34  35
ENDBRANCH   3  34
TORSDOF 9
ENDMDL
MODEL 10
REMARK VINA RESULT:      -8.6      3.864      6.345
REMARK  9 active torsions:
REMARK  status: ('A' for Active; 'I' for Inactive)
REMARK    1  A    between atoms: C_3  and  C_4 
REMARK    2  A    between atoms: C_4  and  C_5 
REMARK    3  A    between atoms: C_5  and  O_6 
REMARK    4  A    between atoms: C_16  and  O_17 
REMARK    5  A    between atoms: C_18  and  C_19 
REMARK    6  A    between atoms: C_19  and  N_20 
REMARK    7  A    between atoms: N_20  and  C_23 
REMARK    8  A    between atoms: N_26  and  C_28 
REMARK    9  A    between atoms: C_28  and  C_29 
ROOT
HETATM    1  C   UNL     1       7.831  28.162  54.349  1.00  0.00     0.050 C 
HETATM    2  C   UNL     1       7.261  28.858  55.560  1.00  0.00    -0.036 C 
HETATM    3  C   UNL     1       7.906  28.948  56.743  1.00  0.00     0.034 C 
HETATM    4  C   UNL     1       7.247  29.545  57.937  1.00  0.00     0.295 C 
HETATM    5  O   UNL     1       7.865  29.777  58.968  1.00  0.00    -0.259 OA
HETATM    6  O   UNL     1       5.896  29.814  57.835  1.00  0.00    -0.274 OA
HETATM    7  C   UNL     1       5.248  29.880  56.589  1.00  0.00     0.099 A 
HETATM    8  C   UNL     1       5.919  29.463  55.437  1.00  0.00     0.006 A 
HETATM    9  C   UNL     1       3.959  30.448  56.570  1.00  0.00     0.007 A 
HETATM   10  C   UNL     1       3.280  30.857  57.850  1.00  0.00     0.054 C 
HETATM   11  C   UNL     1       3.373  30.662  55.319  1.00  0.00     0.082 A 
HETATM   12  C   UNL     1       4.034  30.303  54.131  1.00  0.00     0.002 A 
HETATM   13  C   UNL     1       5.290  29.681  54.203  1.00  0.00     0.026 A 
ENDROOT
BRANCH  12  14
HETATM   14  C   UNL     1       3.445  30.668  52.799  1.00  0.00     0.274 C 
BRANCH  14  15
HETATM   15  N   UNL     1       4.566  30.842  51.811  1.00  0.00    -0.067 N 
HETATM   16  H   UNL     1       5.028  31.725  52.067  1.00  0.00     0.277 HD
HETATM   17  H   UNL     1       5.269  30.134  52.086  1.00  0.00     0.277 HD
BRANCH  15  18
HETATM   18  C   UNL     1       4.337  30.704  50.332  1.00  0.00     0.189 C 
HETATM   19  C   UNL     1       5.545  30.228  49.529  1.00  0.00     0.060 C 
HETATM   20  C   UNL     1       5.706  28.716  49.401  1.00  0.00     0.237 C 
HETATM   21  N   UNL     1       4.907  27.988  50.448  1.00  0.00    -0.067 N 
HETATM   22  H   UNL     1       5.259  28.267  51.376  1.00  0.00     0.280 HD
HETATM   23  C   UNL     1       3.430  28.284  50.365  1.00  0.00     0.237 C 
HETATM   24  C   UNL     1       3.148  29.768  50.107  1.00  0.00     0.060 C 
BRANCH  21  25
HETATM   25  C   UNL     1       5.185  26.468  50.466  1.00  0.00     0.273 C 
BRANCH  25  26
HETATM   26  C   UNL     1       5.688  25.902  51.764  1.00  0.00    -0.033 A 
HETATM   27  C   UNL     1       6.961  25.306  51.821  1.00  0.00     0.009 A 
HETATM   28  C   UNL     1       7.424  24.736  53.005  1.00  0.00     0.001 A 
HETATM   29  C   UNL     1       6.629  24.758  54.146  1.00  0.00     0.000 A 
HETATM   30  C   UNL     1       5.372  25.358  54.108  1.00  0.00     0.001 A 
HETATM   31  C   UNL     1       4.904  25.933  52.925  1.00  0.00     0.009 A 
ENDBRANCH  25  26
ENDBRANCH  21  25
ENDBRANCH  15  18
ENDBRANCH  14  15
ENDBRANCH  12  14
BRANCH  11  32
HETATM   32  O   UNL     1       2.155  31.299  55.195  1.00  0.00    -0.359 OA
HETATM   33  H   UNL     1       1.708  31.161  56.061  1.00  0.00     0.217 HD
ENDBRANCH  11  32
BRANCH   3  34
HETATM   34  C   UNL     1       9.320  28.494  57.031  1.00  0.00     0.156 C 
BRANCH  34  35
HETATM   35  C   UNL     1      10.324  29.552  56.616  1.00  0.00     0.262 C 
HETATM   36  O   UNL     1      10.504  29.931  55.466  1.00  0.00    -0.265 OA
BRANCH  35  37
HETATM   37  O   UNL     1      10.945  30.043  57.722  1.00  0.00    -0.326 OA
HETATM   38  C   UNL     1      10.608  31.393  58.047  1.00  0.00     0.213 C 
ENDBRANCH  35  37
ENDBRANCH  34  35
ENDBRANCH   3  34
TORSDOF 9
ENDMDL
