MODEL 1
REMARK VINA RESULT:      -8.6      0.000      0.000
REMARK  9 active torsions:
REMARK  status: ('A' for Active; 'I' for Inactive)
REMARK    1  A    between atoms: C_2  and  N_3 
REMARK    2  A    between atoms: N_3  and  C_5 
REMARK    3  A    between atoms: N_3  and  C_29 
REMARK    4  A    between atoms: C_5  and  C_6 
REMARK    5  A    between atoms: C_6  and  O_7 
REMARK    6  A    between atoms: O_7  and  C_8 
REMARK    7  A    between atoms: C_9  and  C_10 
REMARK    8  A    between atoms: C_10  and  N_11 
REMARK       I    between atoms: N_11  and  C_12 
REMARK    9  A    between atoms: C_12  and  C_13 
ROOT
HETATM    1  N   UNL     1       7.286  24.929  56.472  1.00  0.00    -0.352 N 
HETATM    2  C   UNL     1       7.358  25.974  57.380  1.00  0.00     0.254 C 
HETATM    3  O   UNL     1       8.027  25.950  58.404  1.00  0.00    -0.268 OA
HETATM    4  H   UNL     1       7.082  25.214  55.523  1.00  0.00     0.163 HD
ENDROOT
BRANCH   1   5
HETATM    5  C   UNL     1       8.158  23.774  56.588  1.00  0.00     0.164 C 
BRANCH   5   6
HETATM    6  C   UNL     1       8.063  22.782  55.455  1.00  0.00    -0.007 A 
HETATM    7  C   UNL     1       8.063  23.156  54.099  1.00  0.00     0.076 A 
HETATM    8  C   UNL     1       8.015  22.158  53.112  1.00  0.00     0.037 A 
HETATM    9  C   UNL     1       7.945  20.807  53.460  1.00  0.00     0.003 A 
HETATM   10  C   UNL     1       7.920  20.435  54.796  1.00  0.00     0.001 A 
HETATM   11  C   UNL     1       7.981  21.415  55.784  1.00  0.00     0.011 A 
BRANCH   7  12
HETATM   12  O   UNL     1       8.139  24.503  53.822  1.00  0.00    -0.349 OA
BRANCH  12  13
HETATM   13  C   UNL     1       8.042  24.865  52.441  1.00  0.00     0.203 C 
BRANCH  13  14
HETATM   14  C   UNL     1       7.138  26.093  52.278  1.00  0.00     0.261 C 
BRANCH  14  15
HETATM   15  N   UNL     1       6.010  25.927  51.256  1.00  0.00    -0.070 N 
HETATM   16  H   UNL     1       6.456  25.489  50.438  1.00  0.00     0.279 HD
BRANCH  15  17
HETATM   17  C   UNL     1       5.400  27.222  50.743  1.00  0.00     0.230 C 
HETATM   18  C   UNL     1       4.474  26.983  49.565  1.00  0.00     0.034 C 
ENDBRANCH  15  17
BRANCH  15  19
HETATM   19  C   UNL     1       4.905  24.965  51.667  1.00  0.00     0.230 C 
HETATM   20  C   UNL     1       4.642  25.018  53.161  1.00  0.00     0.034 C 
ENDBRANCH  15  19
ENDBRANCH  14  15
ENDBRANCH  13  14
ENDBRANCH  12  13
ENDBRANCH   7  12
ENDBRANCH   5   6
ENDBRANCH   1   5
BRANCH   2  21
HETATM   21  C   UNL     1       6.622  27.210  57.014  1.00  0.00     0.064 A 
HETATM   22  C   UNL     1       6.939  28.464  57.501  1.00  0.00     0.077 A 
HETATM   23  C   UNL     1       6.168  29.590  57.200  1.00  0.00     0.065 A 
HETATM   24  N   UNL     1       8.001  28.888  58.307  1.00  0.00    -0.330 N 
HETATM   25  N   UNL     1       6.734  30.691  57.847  1.00  0.00    -0.331 N 
HETATM   26  C   UNL     1       5.070  29.529  56.377  1.00  0.00     0.074 A 
HETATM   27  C   UNL     1       7.884  30.263  58.519  1.00  0.00     0.176 A 
HETATM   28  H   UNL     1       6.401  31.645  57.804  1.00  0.00     0.168 HD
HETATM   29  S   UNL     1       8.934  31.182  59.395  1.00  0.00    -0.041 SA
HETATM   30  C   UNL     1       4.766  28.276  55.846  1.00  0.00     0.119 A 
HETATM   31  F   UNL     1       3.716  28.160  55.022  1.00  0.00    -0.206 F 
HETATM   32  C   UNL     1       5.520  27.129  56.151  1.00  0.00     0.061 A 
HETATM   33  H   UNL     1       8.784  28.316  58.587  1.00  0.00     0.168 HD
ENDBRANCH   2  21
TORSDOF 9
ENDMDL
MODEL 2
REMARK VINA RESULT:      -8.4      2.424      3.223
REMARK  9 active torsions:
REMARK  status: ('A' for Active; 'I' for Inactive)
REMARK    1  A    between atoms: C_2  and  N_3 
REMARK    2  A    between atoms: N_3  and  C_5 
REMARK    3  A    between atoms: N_3  and  C_29 
REMARK    4  A    between atoms: C_5  and  C_6 
REMARK    5  A    between atoms: C_6  and  O_7 
REMARK    6  A    between atoms: O_7  and  C_8 
REMARK    7  A    between atoms: C_9  and  C_10 
REMARK    8  A    between atoms: C_10  and  N_11 
REMARK       I    between atoms: N_11  and  C_12 
REMARK    9  A    between atoms: C_12  and  C_13 
ROOT
HETATM    1  N   UNL     1       7.489  26.904  56.286  1.00  0.00    -0.352 N 
HETATM    2  C   UNL     1       7.090  27.993  57.047  1.00  0.00     0.254 C 
HETATM    3  O   UNL     1       5.949  28.169  57.450  1.00  0.00    -0.268 OA
HETATM    4  H   UNL     1       8.464  26.657  56.391  1.00  0.00     0.163 HD
ENDROOT
BRANCH   1   5
HETATM    5  C   UNL     1       6.596  25.783  56.058  1.00  0.00     0.164 C 
BRANCH   5   6
HETATM    6  C   UNL     1       7.143  24.700  55.160  1.00  0.00    -0.007 A 
HETATM    7  C   UNL     1       7.477  24.912  53.809  1.00  0.00     0.076 A 
HETATM    8  C   UNL     1       8.021  23.853  53.064  1.00  0.00     0.037 A 
HETATM    9  C   UNL     1       8.215  22.595  53.639  1.00  0.00     0.003 A 
HETATM   10  C   UNL     1       7.866  22.376  54.964  1.00  0.00     0.001 A 
HETATM   11  C   UNL     1       7.337  23.421  55.717  1.00  0.00     0.011 A 
BRANCH   7  12
HETATM   12  O   UNL     1       7.266  26.175  53.304  1.00  0.00    -0.349 OA
BRANCH  12  13
HETATM   13  C   UNL     1       6.395  26.260  52.172  1.00  0.00     0.203 C 
BRANCH  13  14
HETATM   14  C   UNL     1       4.931  26.274  52.630  1.00  0.00     0.261 C 
BRANCH  14  15
HETATM   15  N   UNL     1       4.085  27.404  52.036  1.00  0.00    -0.070 N 
HETATM   16  H   UNL     1       3.276  26.932  51.609  1.00  0.00     0.279 HD
BRANCH  15  17
HETATM   17  C   UNL     1       4.742  28.185  50.909  1.00  0.00     0.230 C 
HETATM   18  C   UNL     1       4.196  27.785  49.551  1.00  0.00     0.034 C 
ENDBRANCH  15  17
BRANCH  15  19
HETATM   19  C   UNL     1       3.492  28.367  53.052  1.00  0.00     0.230 C 
HETATM   20  C   UNL     1       4.289  28.381  54.344  1.00  0.00     0.034 C 
ENDBRANCH  15  19
ENDBRANCH  14  15
ENDBRANCH  13  14
ENDBRANCH  12  13
ENDBRANCH   7  12
ENDBRANCH   5   6
ENDBRANCH   1   5
BRANCH   2  21
HETATM   21  C   UNL     1       8.161  28.943  57.440  1.00  0.00     0.064 A 
HETATM   22  C   UNL     1       7.945  30.061  58.222  1.00  0.00     0.077 A 
HETATM   23  C   UNL     1       8.963  30.979  58.498  1.00  0.00     0.065 A 
HETATM   24  N   UNL     1       6.794  30.502  58.884  1.00  0.00    -0.330 N 
HETATM   25  N   UNL     1       8.430  31.994  59.294  1.00  0.00    -0.331 N 
HETATM   26  C   UNL     1      10.246  30.811  58.038  1.00  0.00     0.074 A 
HETATM   27  C   UNL     1       7.089  31.693  59.553  1.00  0.00     0.176 A 
HETATM   28  H   UNL     1       8.933  32.791  59.662  1.00  0.00     0.168 HD
HETATM   29  S   UNL     1       6.029  32.548  60.480  1.00  0.00    -0.041 SA
HETATM   30  C   UNL     1      10.486  29.663  57.282  1.00  0.00     0.119 A 
HETATM   31  F   UNL     1      11.723  29.438  56.822  1.00  0.00    -0.206 F 
HETATM   32  C   UNL     1       9.471  28.738  56.981  1.00  0.00     0.061 A 
HETATM   33  H   UNL     1       5.933  29.984  58.962  1.00  0.00     0.168 HD
ENDBRANCH   2  21
TORSDOF 9
ENDMDL
MODEL 3
REMARK VINA RESULT:      -8.4      2.996      5.644
REMARK  9 active torsions:
REMARK  status: ('A' for Active; 'I' for Inactive)
REMARK    1  A    between atoms: C_2  and  N_3 
REMARK    2  A    between atoms: N_3  and  C_5 
REMARK    3  A    between atoms: N_3  and  C_29 
REMARK    4  A    between atoms: C_5  and  C_6 
REMARK    5  A    between atoms: C_6  and  O_7 
REMARK    6  A    between atoms: O_7  and  C_8 
REMARK    7  A    between atoms: C_9  and  C_10 
REMARK    8  A    between atoms: C_10  and  N_11 
REMARK       I    between atoms: N_11  and  C_12 
REMARK    9  A    between atoms: C_12  and  C_13 
ROOT
HETATM    1  N   UNL     1       6.875  25.013  52.700  1.00  0.00    -0.352 N 
HETATM    2  C   UNL     1       6.922  26.340  53.098  1.00  0.00     0.254 C 
HETATM    3  O   UNL     1       7.911  26.881  53.572  1.00  0.00    -0.268 OA
HETATM    4  H   UNL     1       6.204  24.820  51.969  1.00  0.00     0.163 HD
ENDROOT
BRANCH   1   5
HETATM    5  C   UNL     1       8.078  24.201  52.656  1.00  0.00     0.164 C 
BRANCH   5   6
HETATM    6  C   UNL     1       8.047  22.962  53.517  1.00  0.00    -0.007 A 
HETATM    7  C   UNL     1       8.137  22.994  54.921  1.00  0.00     0.076 A 
HETATM    8  C   UNL     1       8.056  21.791  55.640  1.00  0.00     0.037 A 
HETATM    9  C   UNL     1       7.908  20.568  54.981  1.00  0.00     0.003 A 
HETATM   10  C   UNL     1       7.843  20.530  53.595  1.00  0.00     0.001 A 
HETATM   11  C   UNL     1       7.910  21.717  52.872  1.00  0.00     0.011 A 
BRANCH   7  12
HETATM   12  O   UNL     1       8.277  24.230  55.510  1.00  0.00    -0.349 OA
BRANCH  12  13
HETATM   13  C   UNL     1       8.815  24.235  56.836  1.00  0.00     0.203 C 
BRANCH  13  14
HETATM   14  C   UNL     1       8.196  25.375  57.654  1.00  0.00     0.261 C 
BRANCH  14  15
HETATM   15  N   UNL     1       7.591  26.507  56.820  1.00  0.00    -0.070 N 
HETATM   16  H   UNL     1       7.682  26.194  55.843  1.00  0.00     0.279 HD
BRANCH  15  17
HETATM   17  C   UNL     1       8.329  27.835  56.892  1.00  0.00     0.230 C 
HETATM   18  C   UNL     1       7.720  28.764  57.925  1.00  0.00     0.034 C 
ENDBRANCH  15  17
BRANCH  15  19
HETATM   19  C   UNL     1       6.102  26.735  57.028  1.00  0.00     0.230 C 
HETATM   20  C   UNL     1       5.312  25.446  56.890  1.00  0.00     0.034 C 
ENDBRANCH  15  19
ENDBRANCH  14  15
ENDBRANCH  13  14
ENDBRANCH  12  13
ENDBRANCH   7  12
ENDBRANCH   5   6
ENDBRANCH   1   5
BRANCH   2  21
HETATM   21  C   UNL     1       5.697  27.141  52.848  1.00  0.00     0.064 A 
HETATM   22  C   UNL     1       5.095  27.254  51.610  1.00  0.00     0.077 A 
HETATM   23  C   UNL     1       3.993  28.088  51.398  1.00  0.00     0.065 A 
HETATM   24  N   UNL     1       5.381  26.622  50.395  1.00  0.00    -0.330 N 
HETATM   25  N   UNL     1       3.629  27.993  50.053  1.00  0.00    -0.331 N 
HETATM   26  C   UNL     1       3.420  28.819  52.410  1.00  0.00     0.074 A 
HETATM   27  C   UNL     1       4.475  27.070  49.431  1.00  0.00     0.176 A 
HETATM   28  H   UNL     1       2.858  28.474  49.609  1.00  0.00     0.168 HD
HETATM   29  S   UNL     1       4.433  26.568  47.862  1.00  0.00    -0.041 SA
HETATM   30  C   UNL     1       3.994  28.679  53.673  1.00  0.00     0.119 A 
HETATM   31  F   UNL     1       3.466  29.354  54.702  1.00  0.00    -0.206 F 
HETATM   32  C   UNL     1       5.113  27.859  53.902  1.00  0.00     0.061 A 
HETATM   33  H   UNL     1       6.052  25.880  50.269  1.00  0.00     0.168 HD
ENDBRANCH   2  21
TORSDOF 9
ENDMDL
MODEL 4
REMARK VINA RESULT:      -8.3      2.561      5.084
REMARK  9 active torsions:
REMARK  status: ('A' for Active; 'I' for Inactive)
REMARK    1  A    between atoms: C_2  and  N_3 
REMARK    2  A    between atoms: N_3  and  C_5 
REMARK    3  A    between atoms: N_3  and  C_29 
REMARK    4  A    between atoms: C_5  and  C_6 
REMARK    5  A    between atoms: C_6  and  O_7 
REMARK    6  A    between atoms: O_7  and  C_8 
REMARK    7  A    between atoms: C_9  and  C_10 
REMARK    8  A    between atoms: C_10  and  N_11 
REMARK       I    between atoms: N_11  and  C_12 
REMARK    9  A    between atoms: C_12  and  C_13 
ROOT
HETATM    1  N   UNL     1       6.770  27.789  56.640  1.00  0.00    -0.352 N 
HETATM    2  C   UNL     1       6.573  29.015  57.257  1.00  0.00     0.254 C 
HETATM    3  O   UNL     1       5.473  29.485  57.515  1.00  0.00    -0.268 OA
HETATM    4  H   UNL     1       7.647  27.342  56.871  1.00  0.00     0.163 HD
ENDROOT
BRANCH   1   5
HETATM    5  C   UNL     1       5.663  26.879  56.411  1.00  0.00     0.164 C 
BRANCH   5   6
HETATM    6  C   UNL     1       5.531  26.373  54.995  1.00  0.00    -0.007 A 
HETATM    7  C   UNL     1       6.032  25.129  54.569  1.00  0.00     0.076 A 
HETATM    8  C   UNL     1       5.823  24.724  53.241  1.00  0.00     0.037 A 
HETATM    9  C   UNL     1       5.146  25.546  52.338  1.00  0.00     0.003 A 
HETATM   10  C   UNL     1       4.671  26.784  52.747  1.00  0.00     0.001 A 
HETATM   11  C   UNL     1       4.861  27.191  54.064  1.00  0.00     0.011 A 
BRANCH   7  12
HETATM   12  O   UNL     1       6.685  24.364  55.509  1.00  0.00    -0.349 OA
BRANCH  12  13
HETATM   13  C   UNL     1       8.114  24.422  55.480  1.00  0.00     0.203 C 
BRANCH  13  14
HETATM   14  C   UNL     1       8.701  23.007  55.400  1.00  0.00     0.261 C 
BRANCH  14  15
HETATM   15  N   UNL     1       7.789  21.973  54.732  1.00  0.00    -0.070 N 
HETATM   16  H   UNL     1       6.835  22.336  54.865  1.00  0.00     0.279 HD
BRANCH  15  17
HETATM   17  C   UNL     1       7.793  20.593  55.371  1.00  0.00     0.230 C 
HETATM   18  C   UNL     1       8.709  20.533  56.579  1.00  0.00     0.034 C 
ENDBRANCH  15  17
BRANCH  15  19
HETATM   19  C   UNL     1       7.959  21.843  53.226  1.00  0.00     0.230 C 
HETATM   20  C   UNL     1       8.374  20.440  52.826  1.00  0.00     0.034 C 
ENDBRANCH  15  19
ENDBRANCH  14  15
ENDBRANCH  13  14
ENDBRANCH  12  13
ENDBRANCH   7  12
ENDBRANCH   5   6
ENDBRANCH   1   5
BRANCH   2  21
HETATM   21  C   UNL     1       7.798  29.738  57.682  1.00  0.00     0.064 A 
HETATM   22  C   UNL     1       7.810  30.719  58.654  1.00  0.00     0.077 A 
HETATM   23  C   UNL     1       8.969  31.436  58.965  1.00  0.00     0.065 A 
HETATM   24  N   UNL     1       6.794  31.180  59.498  1.00  0.00    -0.330 N 
HETATM   25  N   UNL     1       8.656  32.356  59.968  1.00  0.00    -0.331 N 
HETATM   26  C   UNL     1      10.172  31.190  58.349  1.00  0.00     0.074 A 
HETATM   27  C   UNL     1       7.312  32.187  60.316  1.00  0.00     0.176 A 
HETATM   28  H   UNL     1       9.297  33.005  60.404  1.00  0.00     0.168 HD
HETATM   29  S   UNL     1       6.467  32.994  61.477  1.00  0.00    -0.041 SA
HETATM   30  C   UNL     1      10.180  30.172  57.396  1.00  0.00     0.119 A 
HETATM   31  F   UNL     1      11.330  29.875  56.776  1.00  0.00    -0.206 F 
HETATM   32  C   UNL     1       9.021  29.451  57.059  1.00  0.00     0.061 A 
HETATM   33  H   UNL     1       5.877  30.770  59.582  1.00  0.00     0.168 HD
ENDBRANCH   2  21
TORSDOF 9
ENDMDL
MODEL 5
REMARK VINA RESULT:      -8.2      2.175      2.825
REMARK  9 active torsions:
REMARK  status: ('A' for Active; 'I' for Inactive)
REMARK    1  A    between atoms: C_2  and  N_3 
REMARK    2  A    between atoms: N_3  and  C_5 
REMARK    3  A    between atoms: N_3  and  C_29 
REMARK    4  A    between atoms: C_5  and  C_6 
REMARK    5  A    between atoms: C_6  and  O_7 
REMARK    6  A    between atoms: O_7  and  C_8 
REMARK    7  A    between atoms: C_9  and  C_10 
REMARK    8  A    between atoms: C_10  and  N_11 
REMARK       I    between atoms: N_11  and  C_12 
REMARK    9  A    between atoms: C_12  and  C_13 
ROOT
HETATM    1  N   UNL     1       7.358  25.204  56.520  1.00  0.00    -0.352 N 
HETATM    2  C   UNL     1       6.528  26.266  56.848  1.00  0.00     0.254 C 
HETATM    3  O   UNL     1       5.315  26.176  56.979  1.00  0.00    -0.268 OA
HETATM    4  H   UNL     1       8.306  25.297  56.858  1.00  0.00     0.163 HD
ENDROOT
BRANCH   1   5
HETATM    5  C   UNL     1       6.852  23.844  56.481  1.00  0.00     0.164 C 
BRANCH   5   6
HETATM    6  C   UNL     1       7.284  23.034  55.283  1.00  0.00    -0.007 A 
HETATM    7  C   UNL     1       7.213  23.511  53.961  1.00  0.00     0.076 A 
HETATM    8  C   UNL     1       7.680  22.701  52.914  1.00  0.00     0.037 A 
HETATM    9  C   UNL     1       8.192  21.426  53.166  1.00  0.00     0.003 A 
HETATM   10  C   UNL     1       8.243  20.942  54.465  1.00  0.00     0.001 A 
HETATM   11  C   UNL     1       7.794  21.741  55.513  1.00  0.00     0.011 A 
BRANCH   7  12
HETATM   12  O   UNL     1       6.703  24.777  53.781  1.00  0.00    -0.349 OA
BRANCH  12  13
HETATM   13  C   UNL     1       5.357  24.848  53.300  1.00  0.00     0.203 C 
BRANCH  13  14
HETATM   14  C   UNL     1       5.336  25.372  51.859  1.00  0.00     0.261 C 
BRANCH  14  15
HETATM   15  N   UNL     1       5.415  26.896  51.730  1.00  0.00    -0.070 N 
HETATM   16  H   UNL     1       6.401  27.093  51.514  1.00  0.00     0.279 HD
BRANCH  15  17
HETATM   17  C   UNL     1       5.114  27.673  53.002  1.00  0.00     0.230 C 
HETATM   18  C   UNL     1       6.363  28.304  53.588  1.00  0.00     0.034 C 
ENDBRANCH  15  17
BRANCH  15  19
HETATM   19  C   UNL     1       4.628  27.485  50.569  1.00  0.00     0.230 C 
HETATM   20  C   UNL     1       4.619  26.556  49.369  1.00  0.00     0.034 C 
ENDBRANCH  15  19
ENDBRANCH  14  15
ENDBRANCH  13  14
ENDBRANCH  12  13
ENDBRANCH   7  12
ENDBRANCH   5   6
ENDBRANCH   1   5
BRANCH   2  21
HETATM   21  C   UNL     1       7.201  27.561  57.122  1.00  0.00     0.064 A 
HETATM   22  C   UNL     1       6.525  28.727  57.425  1.00  0.00     0.077 A 
HETATM   23  C   UNL     1       7.191  29.945  57.591  1.00  0.00     0.065 A 
HETATM   24  N   UNL     1       5.164  28.962  57.643  1.00  0.00    -0.330 N 
HETATM   25  N   UNL     1       6.239  30.926  57.874  1.00  0.00    -0.331 N 
HETATM   26  C   UNL     1       8.557  30.054  57.497  1.00  0.00     0.074 A 
HETATM   27  C   UNL     1       4.981  30.318  57.926  1.00  0.00     0.176 A 
HETATM   28  H   UNL     1       6.425  31.904  58.055  1.00  0.00     0.168 HD
HETATM   29  S   UNL     1       3.536  31.029  58.269  1.00  0.00    -0.041 SA
HETATM   30  C   UNL     1       9.253  28.874  57.233  1.00  0.00     0.119 A 
HETATM   31  F   UNL     1      10.589  28.916  57.149  1.00  0.00    -0.206 F 
HETATM   32  C   UNL     1       8.599  27.643  57.047  1.00  0.00     0.061 A 
HETATM   33  H   UNL     1       4.453  28.250  57.702  1.00  0.00     0.168 HD
ENDBRANCH   2  21
TORSDOF 9
ENDMDL
MODEL 6
REMARK VINA RESULT:      -8.1      3.570      8.673
REMARK  9 active torsions:
REMARK  status: ('A' for Active; 'I' for Inactive)
REMARK    1  A    between atoms: C_2  and  N_3 
REMARK    2  A    between atoms: N_3  and  C_5 
REMARK    3  A    between atoms: N_3  and  C_29 
REMARK    4  A    between atoms: C_5  and  C_6 
REMARK    5  A    between atoms: C_6  and  O_7 
REMARK    6  A    between atoms: O_7  and  C_8 
REMARK    7  A    between atoms: C_9  and  C_10 
REMARK    8  A    between atoms: C_10  and  N_11 
REMARK       I    between atoms: N_11  and  C_12 
REMARK    9  A    between atoms: C_12  and  C_13 
ROOT
HETATM    1  N   UNL     1       7.588  27.524  56.124  1.00  0.00    -0.352 N 
HETATM    2  C   UNL     1       7.748  26.157  56.291  1.00  0.00     0.254 C 
HETATM    3  O   UNL     1       7.896  25.610  57.375  1.00  0.00    -0.268 OA
HETATM    4  H   UNL     1       7.065  27.785  55.298  1.00  0.00     0.163 HD
ENDROOT
BRANCH   1   5
HETATM    5  C   UNL     1       7.404  28.402  57.266  1.00  0.00     0.164 C 
BRANCH   5   6
HETATM    6  C   UNL     1       8.527  29.381  57.508  1.00  0.00    -0.007 A 
HETATM    7  C   UNL     1       8.460  30.412  58.463  1.00  0.00     0.076 A 
HETATM    8  C   UNL     1       9.573  31.248  58.648  1.00  0.00     0.037 A 
HETATM    9  C   UNL     1      10.731  31.082  57.885  1.00  0.00     0.003 A 
HETATM   10  C   UNL     1      10.793  30.081  56.926  1.00  0.00     0.001 A 
HETATM   11  C   UNL     1       9.701  29.238  56.742  1.00  0.00     0.011 A 
BRANCH   7  12
HETATM   12  O   UNL     1       7.293  30.520  59.185  1.00  0.00    -0.349 OA
BRANCH  12  13
HETATM   13  C   UNL     1       6.657  31.801  59.160  1.00  0.00     0.203 C 
BRANCH  13  14
HETATM   14  C   UNL     1       6.754  32.468  60.538  1.00  0.00     0.261 C 
BRANCH  14  15
HETATM   15  N   UNL     1       6.519  31.526  61.723  1.00  0.00    -0.070 N 
HETATM   16  H   UNL     1       6.267  30.623  61.298  1.00  0.00     0.279 HD
BRANCH  15  17
HETATM   17  C   UNL     1       5.350  31.893  62.623  1.00  0.00     0.230 C 
HETATM   18  C   UNL     1       4.126  32.297  61.823  1.00  0.00     0.034 C 
ENDBRANCH  15  17
BRANCH  15  19
HETATM   19  C   UNL     1       7.749  31.237  62.569  1.00  0.00     0.230 C 
HETATM   20  C   UNL     1       8.956  32.023  62.092  1.00  0.00     0.034 C 
ENDBRANCH  15  19
ENDBRANCH  14  15
ENDBRANCH  13  14
ENDBRANCH  12  13
ENDBRANCH   7  12
ENDBRANCH   5   6
ENDBRANCH   1   5
BRANCH   2  21
HETATM   21  C   UNL     1       7.655  25.333  55.060  1.00  0.00     0.064 A 
HETATM   22  C   UNL     1       7.949  23.983  55.017  1.00  0.00     0.077 A 
HETATM   23  C   UNL     1       7.931  23.261  53.819  1.00  0.00     0.065 A 
HETATM   24  N   UNL     1       8.277  23.088  56.040  1.00  0.00    -0.330 N 
HETATM   25  N   UNL     1       8.282  21.940  54.104  1.00  0.00    -0.331 N 
HETATM   26  C   UNL     1       7.591  23.837  52.620  1.00  0.00     0.074 A 
HETATM   27  C   UNL     1       8.478  21.823  55.483  1.00  0.00     0.176 A 
HETATM   28  H   UNL     1       8.342  21.182  53.436  1.00  0.00     0.168 HD
HETATM   29  S   UNL     1       8.861  20.463  56.330  1.00  0.00    -0.041 SA
HETATM   30  C   UNL     1       7.252  25.190  52.659  1.00  0.00     0.119 A 
HETATM   31  F   UNL     1       6.893  25.800  51.522  1.00  0.00    -0.206 F 
HETATM   32  C   UNL     1       7.279  25.935  53.850  1.00  0.00     0.061 A 
HETATM   33  H   UNL     1       8.254  23.298  57.026  1.00  0.00     0.168 HD
ENDBRANCH   2  21
TORSDOF 9
ENDMDL
MODEL 7
REMARK VINA RESULT:      -8.0      2.399      3.384
REMARK  9 active torsions:
REMARK  status: ('A' for Active; 'I' for Inactive)
REMARK    1  A    between atoms: C_2  and  N_3 
REMARK    2  A    between atoms: N_3  and  C_5 
REMARK    3  A    between atoms: N_3  and  C_29 
REMARK    4  A    between atoms: C_5  and  C_6 
REMARK    5  A    between atoms: C_6  and  O_7 
REMARK    6  A    between atoms: O_7  and  C_8 
REMARK    7  A    between atoms: C_9  and  C_10 
REMARK    8  A    between atoms: C_10  and  N_11 
REMARK       I    between atoms: N_11  and  C_12 
REMARK    9  A    between atoms: C_12  and  C_13 
ROOT
HETATM    1  N   UNL     1       7.571  26.927  56.264  1.00  0.00    -0.352 N 
HETATM    2  C   UNL     1       7.143  28.034  56.981  1.00  0.00     0.254 C 
HETATM    3  O   UNL     1       5.983  28.229  57.317  1.00  0.00    -0.268 OA
HETATM    4  H   UNL     1       8.536  26.674  56.426  1.00  0.00     0.163 HD
ENDROOT
BRANCH   1   5
HETATM    5  C   UNL     1       6.680  25.809  56.010  1.00  0.00     0.164 C 
BRANCH   5   6
HETATM    6  C   UNL     1       7.289  24.668  55.233  1.00  0.00    -0.007 A 
HETATM    7  C   UNL     1       6.878  24.310  53.936  1.00  0.00     0.076 A 
HETATM    8  C   UNL     1       7.534  23.259  53.275  1.00  0.00     0.037 A 
HETATM    9  C   UNL     1       8.571  22.557  53.894  1.00  0.00     0.003 A 
HETATM   10  C   UNL     1       8.964  22.891  55.182  1.00  0.00     0.001 A 
HETATM   11  C   UNL     1       8.329  23.939  55.843  1.00  0.00     0.011 A 
BRANCH   7  12
HETATM   12  O   UNL     1       5.855  25.044  53.380  1.00  0.00    -0.349 OA
BRANCH  12  13
HETATM   13  C   UNL     1       6.182  25.774  52.193  1.00  0.00     0.203 C 
BRANCH  13  14
HETATM   14  C   UNL     1       5.018  25.713  51.197  1.00  0.00     0.261 C 
BRANCH  14  15
HETATM   15  N   UNL     1       4.956  26.883  50.211  1.00  0.00    -0.070 N 
HETATM   16  H   UNL     1       5.937  27.066  49.956  1.00  0.00     0.279 HD
BRANCH  15  17
HETATM   17  C   UNL     1       4.433  28.190  50.784  1.00  0.00     0.230 C 
HETATM   18  C   UNL     1       5.498  29.272  50.787  1.00  0.00     0.034 C 
ENDBRANCH  15  17
BRANCH  15  19
HETATM   19  C   UNL     1       4.254  26.580  48.896  1.00  0.00     0.230 C 
HETATM   20  C   UNL     1       4.992  27.181  47.714  1.00  0.00     0.034 C 
ENDBRANCH  15  19
ENDBRANCH  14  15
ENDBRANCH  13  14
ENDBRANCH  12  13
ENDBRANCH   7  12
ENDBRANCH   5   6
ENDBRANCH   1   5
BRANCH   2  21
HETATM   21  C   UNL     1       8.200  28.983  57.411  1.00  0.00     0.064 A 
HETATM   22  C   UNL     1       7.961  30.089  58.205  1.00  0.00     0.077 A 
HETATM   23  C   UNL     1       8.970  31.006  58.517  1.00  0.00     0.065 A 
HETATM   24  N   UNL     1       6.794  30.516  58.847  1.00  0.00    -0.330 N 
HETATM   25  N   UNL     1       8.414  32.007  59.316  1.00  0.00    -0.331 N 
HETATM   26  C   UNL     1      10.264  30.850  58.084  1.00  0.00     0.074 A 
HETATM   27  C   UNL     1       7.069  31.697  59.540  1.00  0.00     0.176 A 
HETATM   28  H   UNL     1       8.906  32.800  59.706  1.00  0.00     0.168 HD
HETATM   29  S   UNL     1       5.985  32.535  60.455  1.00  0.00    -0.041 SA
HETATM   30  C   UNL     1      10.525  29.714  57.317  1.00  0.00     0.119 A 
HETATM   31  F   UNL     1      11.773  29.500  56.882  1.00  0.00    -0.206 F 
HETATM   32  C   UNL     1       9.521  28.790  56.980  1.00  0.00     0.061 A 
HETATM   33  H   UNL     1       5.934  29.993  58.897  1.00  0.00     0.168 HD
ENDBRANCH   2  21
TORSDOF 9
ENDMDL
MODEL 8
REMARK VINA RESULT:      -7.9      3.598      6.785
REMARK  9 active torsions:
REMARK  status: ('A' for Active; 'I' for Inactive)
REMARK    1  A    between atoms: C_2  and  N_3 
REMARK    2  A    between atoms: N_3  and  C_5 
REMARK    3  A    between atoms: N_3  and  C_29 
REMARK    4  A    between atoms: C_5  and  C_6 
REMARK    5  A    between atoms: C_6  and  O_7 
REMARK    6  A    between atoms: O_7  and  C_8 
REMARK    7  A    between atoms: C_9  and  C_10 
REMARK    8  A    between atoms: C_10  and  N_11 
REMARK       I    between atoms: N_11  and  C_12 
REMARK    9  A    between atoms: C_12  and  C_13 
ROOT
HETATM    1  N   UNL     1       5.565  26.080  52.825  1.00  0.00    -0.352 N 
HETATM    2  C   UNL     1       4.767  27.204  52.676  1.00  0.00     0.254 C 
HETATM    3  O   UNL     1       4.018  27.636  53.542  1.00  0.00    -0.268 OA
HETATM    4  H   UNL     1       6.403  26.086  52.260  1.00  0.00     0.163 HD
ENDROOT
BRANCH   1   5
HETATM    5  C   UNL     1       5.700  25.424  54.113  1.00  0.00     0.164 C 
BRANCH   5   6
HETATM    6  C   UNL     1       6.724  24.317  54.163  1.00  0.00    -0.007 A 
HETATM    7  C   UNL     1       7.331  23.879  55.355  1.00  0.00     0.076 A 
HETATM    8  C   UNL     1       8.242  22.811  55.309  1.00  0.00     0.037 A 
HETATM    9  C   UNL     1       8.566  22.196  54.098  1.00  0.00     0.003 A 
HETATM   10  C   UNL     1       7.989  22.640  52.917  1.00  0.00     0.001 A 
HETATM   11  C   UNL     1       7.075  23.689  52.952  1.00  0.00     0.011 A 
BRANCH   7  12
HETATM   12  O   UNL     1       6.965  24.523  56.516  1.00  0.00    -0.349 OA
BRANCH  12  13
HETATM   13  C   UNL     1       7.940  25.408  57.075  1.00  0.00     0.203 C 
BRANCH  13  14
HETATM   14  C   UNL     1       7.308  26.774  57.371  1.00  0.00     0.261 C 
BRANCH  14  15
HETATM   15  N   UNL     1       8.033  27.965  56.738  1.00  0.00    -0.070 N 
HETATM   16  H   UNL     1       8.910  27.574  56.365  1.00  0.00     0.279 HD
BRANCH  15  17
HETATM   17  C   UNL     1       8.454  29.059  57.705  1.00  0.00     0.230 C 
HETATM   18  C   UNL     1       9.788  29.671  57.321  1.00  0.00     0.034 C 
ENDBRANCH  15  17
BRANCH  15  19
HETATM   19  C   UNL     1       7.331  28.581  55.537  1.00  0.00     0.230 C 
HETATM   20  C   UNL     1       8.060  28.274  54.242  1.00  0.00     0.034 C 
ENDBRANCH  15  19
ENDBRANCH  14  15
ENDBRANCH  13  14
ENDBRANCH  12  13
ENDBRANCH   7  12
ENDBRANCH   5   6
ENDBRANCH   1   5
BRANCH   2  21
HETATM   21  C   UNL     1       4.915  27.946  51.398  1.00  0.00     0.064 A 
HETATM   22  C   UNL     1       4.554  27.431  50.167  1.00  0.00     0.077 A 
HETATM   23  C   UNL     1       4.789  28.128  48.978  1.00  0.00     0.065 A 
HETATM   24  N   UNL     1       3.914  26.234  49.831  1.00  0.00    -0.330 N 
HETATM   25  N   UNL     1       4.328  27.345  47.917  1.00  0.00    -0.331 N 
HETATM   26  C   UNL     1       5.361  29.376  48.959  1.00  0.00     0.074 A 
HETATM   27  C   UNL     1       3.766  26.177  48.443  1.00  0.00     0.176 A 
HETATM   28  H   UNL     1       4.353  27.594  46.937  1.00  0.00     0.168 HD
HETATM   29  S   UNL     1       3.044  24.950  47.615  1.00  0.00    -0.041 SA
HETATM   30  C   UNL     1       5.691  29.923  50.200  1.00  0.00     0.119 A 
HETATM   31  F   UNL     1       6.235  31.146  50.244  1.00  0.00    -0.206 F 
HETATM   32  C   UNL     1       5.477  29.231  51.405  1.00  0.00     0.061 A 
HETATM   33  H   UNL     1       3.520  25.580  50.490  1.00  0.00     0.168 HD
ENDBRANCH   2  21
TORSDOF 9
ENDMDL
MODEL 9
REMARK VINA RESULT:      -7.8      3.045      6.035
REMARK  9 active torsions:
REMARK  status: ('A' for Active; 'I' for Inactive)
REMARK    1  A    between atoms: C_2  and  N_3 
REMARK    2  A    between atoms: N_3  and  C_5 
REMARK    3  A    between atoms: N_3  and  C_29 
REMARK    4  A    between atoms: C_5  and  C_6 
REMARK    5  A    between atoms: C_6  and  O_7 
REMARK    6  A    between atoms: O_7  and  C_8 
REMARK    7  A    between atoms: C_9  and  C_10 
REMARK    8  A    between atoms: C_10  and  N_11 
REMARK       I    between atoms: N_11  and  C_12 
REMARK    9  A    between atoms: C_12  and  C_13 
ROOT
HETATM    1  N   UNL     1       6.782  25.544  51.565  1.00  0.00    -0.352 N 
HETATM    2  C   UNL     1       5.952  26.631  51.796  1.00  0.00     0.254 C 
HETATM    3  O   UNL     1       6.022  27.353  52.781  1.00  0.00    -0.268 OA
HETATM    4  H   UNL     1       6.914  25.321  50.588  1.00  0.00     0.163 HD
ENDROOT
BRANCH   1   5
HETATM    5  C   UNL     1       7.933  25.289  52.412  1.00  0.00     0.164 C 
BRANCH   5   6
HETATM    6  C   UNL     1       7.824  24.066  53.290  1.00  0.00    -0.007 A 
HETATM    7  C   UNL     1       7.493  24.122  54.656  1.00  0.00     0.076 A 
HETATM    8  C   UNL     1       7.373  22.926  55.382  1.00  0.00     0.037 A 
HETATM    9  C   UNL     1       7.596  21.690  54.772  1.00  0.00     0.003 A 
HETATM   10  C   UNL     1       7.945  21.630  53.430  1.00  0.00     0.001 A 
HETATM   11  C   UNL     1       8.056  22.809  52.697  1.00  0.00     0.011 A 
BRANCH   7  12
HETATM   12  O   UNL     1       7.281  25.370  55.196  1.00  0.00    -0.349 OA
BRANCH  12  13
HETATM   13  C   UNL     1       6.653  25.398  56.481  1.00  0.00     0.203 C 
BRANCH  13  14
HETATM   14  C   UNL     1       6.519  26.844  56.974  1.00  0.00     0.261 C 
BRANCH  14  15
HETATM   15  N   UNL     1       6.069  27.846  55.907  1.00  0.00    -0.070 N 
HETATM   16  H   UNL     1       6.237  27.370  55.010  1.00  0.00     0.279 HD
BRANCH  15  17
HETATM   17  C   UNL     1       6.875  29.133  55.842  1.00  0.00     0.230 C 
HETATM   18  C   UNL     1       8.314  28.879  55.434  1.00  0.00     0.034 C 
ENDBRANCH  15  17
BRANCH  15  19
HETATM   19  C   UNL     1       4.582  28.169  55.913  1.00  0.00     0.230 C 
HETATM   20  C   UNL     1       4.277  29.424  55.118  1.00  0.00     0.034 C 
ENDBRANCH  15  19
ENDBRANCH  14  15
ENDBRANCH  13  14
ENDBRANCH  12  13
ENDBRANCH   7  12
ENDBRANCH   5   6
ENDBRANCH   1   5
BRANCH   2  21
HETATM   21  C   UNL     1       4.979  26.949  50.721  1.00  0.00     0.064 A 
HETATM   22  C   UNL     1       4.229  28.109  50.685  1.00  0.00     0.077 A 
HETATM   23  C   UNL     1       3.260  28.333  49.702  1.00  0.00     0.065 A 
HETATM   24  N   UNL     1       4.256  29.239  51.510  1.00  0.00    -0.330 N 
HETATM   25  N   UNL     1       2.673  29.576  49.945  1.00  0.00    -0.331 N 
HETATM   26  C   UNL     1       3.015  27.432  48.695  1.00  0.00     0.074 A 
HETATM   27  C   UNL     1       3.302  30.151  51.054  1.00  0.00     0.176 A 
HETATM   28  H   UNL     1       1.948  30.012  49.390  1.00  0.00     0.168 HD
HETATM   29  S   UNL     1       3.009  31.630  51.718  1.00  0.00    -0.041 SA
HETATM   30  C   UNL     1       3.797  26.276  48.697  1.00  0.00     0.119 A 
HETATM   31  F   UNL     1       3.615  25.370  47.728  1.00  0.00    -0.206 F 
HETATM   32  C   UNL     1       4.764  26.027  49.687  1.00  0.00     0.061 A 
HETATM   33  H   UNL     1       4.934  29.413  52.236  1.00  0.00     0.168 HD
ENDBRANCH   2  21
TORSDOF 9
ENDMDL
MODEL 10
REMARK VINA RESULT:      -7.7      2.470      5.315
REMARK  9 active torsions:
REMARK  status: ('A' for Active; 'I' for Inactive)
REMARK    1  A    between atoms: C_2  and  N_3 
REMARK    2  A    between atoms: N_3  and  C_5 
REMARK    3  A    between atoms: N_3  and  C_29 
REMARK    4  A    between atoms: C_5  and  C_6 
REMARK    5  A    between atoms: C_6  and  O_7 
REMARK    6  A    between atoms: O_7  and  C_8 
REMARK    7  A    between atoms: C_9  and  C_10 
REMARK    8  A    between atoms: C_10  and  N_11 
REMARK       I    between atoms: N_11  and  C_12 
REMARK    9  A    between atoms: C_12  and  C_13 
ROOT
HETATM    1  N   UNL     1       5.983  29.409  55.155  1.00  0.00    -0.352 N 
HETATM    2  C   UNL     1       6.161  29.351  56.529  1.00  0.00     0.254 C 
HETATM    3  O   UNL     1       5.303  28.981  57.318  1.00  0.00    -0.268 OA
HETATM    4  H   UNL     1       6.835  29.305  54.619  1.00  0.00     0.163 HD
ENDROOT
BRANCH   1   5
HETATM    5  C   UNL     1       4.796  28.855  54.530  1.00  0.00     0.164 C 
BRANCH   5   6
HETATM    6  C   UNL     1       5.046  28.059  53.272  1.00  0.00    -0.007 A 
HETATM    7  C   UNL     1       5.831  26.892  53.240  1.00  0.00     0.076 A 
HETATM    8  C   UNL     1       5.971  26.193  52.030  1.00  0.00     0.037 A 
HETATM    9  C   UNL     1       5.362  26.654  50.860  1.00  0.00     0.003 A 
HETATM   10  C   UNL     1       4.607  27.817  50.882  1.00  0.00     0.001 A 
HETATM   11  C   UNL     1       4.450  28.511  52.079  1.00  0.00     0.011 A 
BRANCH   7  12
HETATM   12  O   UNL     1       6.400  26.489  54.427  1.00  0.00    -0.349 OA
BRANCH  12  13
HETATM   13  C   UNL     1       6.245  25.105  54.758  1.00  0.00     0.203 C 
BRANCH  13  14
HETATM   14  C   UNL     1       7.618  24.436  54.895  1.00  0.00     0.261 C 
BRANCH  14  15
HETATM   15  N   UNL     1       7.608  23.100  55.642  1.00  0.00    -0.070 N 
HETATM   16  H   UNL     1       6.620  22.940  55.885  1.00  0.00     0.279 HD
BRANCH  15  17
HETATM   17  C   UNL     1       8.360  23.087  56.963  1.00  0.00     0.230 C 
HETATM   18  C   UNL     1       9.003  24.429  57.260  1.00  0.00     0.034 C 
ENDBRANCH  15  17
BRANCH  15  19
HETATM   19  C   UNL     1       8.012  21.893  54.809  1.00  0.00     0.230 C 
HETATM   20  C   UNL     1       7.990  22.204  53.324  1.00  0.00     0.034 C 
ENDBRANCH  15  19
ENDBRANCH  14  15
ENDBRANCH  13  14
ENDBRANCH  12  13
ENDBRANCH   7  12
ENDBRANCH   5   6
ENDBRANCH   1   5
BRANCH   2  21
HETATM   21  C   UNL     1       7.516  29.697  57.028  1.00  0.00     0.064 A 
HETATM   22  C   UNL     1       7.746  30.409  58.189  1.00  0.00     0.077 A 
HETATM   23  C   UNL     1       9.034  30.790  58.580  1.00  0.00     0.065 A 
HETATM   24  N   UNL     1       6.861  30.860  59.174  1.00  0.00    -0.330 N 
HETATM   25  N   UNL     1       8.933  31.501  59.777  1.00  0.00    -0.331 N 
HETATM   26  C   UNL     1      10.150  30.453  57.853  1.00  0.00     0.074 A 
HETATM   27  C   UNL     1       7.588  31.530  60.160  1.00  0.00     0.176 A 
HETATM   28  H   UNL     1       9.702  31.891  60.306  1.00  0.00     0.168 HD
HETATM   29  S   UNL     1       6.947  32.205  61.519  1.00  0.00    -0.041 SA
HETATM   30  C   UNL     1       9.932  29.698  56.701  1.00  0.00     0.119 A 
HETATM   31  F   UNL     1      10.986  29.326  55.963  1.00  0.00    -0.206 F 
HETATM   32  C   UNL     1       8.644  29.321  56.284  1.00  0.00     0.061 A 
HETATM   33  H   UNL     1       5.879  30.635  59.220  1.00  0.00     0.168 HD
ENDBRANCH   2  21
TORSDOF 9
ENDMDL
