MODEL 1
REMARK VINA RESULT:      -9.3      0.000      0.000
REMARK  6 active torsions:
REMARK  status: ('A' for Active; 'I' for Inactive)
REMARK    1  A    between atoms: C_2  and  S_3 
REMARK    2  A    between atoms: C_2  and  C_11 
REMARK    3  A    between atoms: S_3  and  C_4 
REMARK    4  A    between atoms: C_4  and  C_5 
REMARK       I    between atoms: C_11  and  N_12 
REMARK    5  A    between atoms: N_12  and  C_13 
REMARK    6  A    between atoms: C_15  and  C_16 
ROOT
HETATM    1  C   UNL     1       7.761  26.677  56.964  1.00  0.00     0.235 C 
HETATM    2  N   UNL     1       7.074  26.418  55.786  1.00  0.00    -0.326 N 
HETATM    3  O   UNL     1       8.761  26.076  57.351  1.00  0.00    -0.272 OA
HETATM    4  H   UNL     1       6.179  26.889  55.696  1.00  0.00     0.169 HD
ENDROOT
BRANCH   2   5
HETATM    5  C   UNL     1       7.406  25.487  54.779  1.00  0.00     0.035 A 
HETATM    6  C   UNL     1       7.716  24.146  55.028  1.00  0.00     0.042 A 
HETATM    7  C   UNL     1       8.054  23.271  53.982  1.00  0.00    -0.021 A 
HETATM    8  C   UNL     1       8.088  23.763  52.672  1.00  0.00     0.012 A 
HETATM    9  C   UNL     1       7.785  25.100  52.413  1.00  0.00     0.003 A 
HETATM   10  C   UNL     1       7.445  25.957  53.462  1.00  0.00     0.029 A 
BRANCH   7  11
HETATM   11  C   UNL     1       8.371  21.876  54.246  1.00  0.00     0.010 A 
HETATM   12  C   UNL     1       8.557  20.782  53.368  1.00  0.00     0.152 A 
HETATM   13  N   UNL     1       8.827  19.641  54.009  1.00  0.00    -0.187 NA
HETATM   14  N   UNL     1       8.818  20.000  55.303  1.00  0.00    -0.289 N 
HETATM   15  H   UNL     1       9.002  19.288  56.002  1.00  0.00     0.188 HD
HETATM   16  C   UNL     1       8.546  21.323  55.497  1.00  0.00     0.123 A 
ENDBRANCH   7  11
ENDBRANCH   2   5
BRANCH   1  17
HETATM   17  C   UNL     1       7.210  27.897  57.729  1.00  0.00     0.135 C 
HETATM   18  C   UNL     1       5.855  28.318  57.167  1.00  0.00     0.031 C 
BRANCH  17  19
HETATM   19  S   UNL     1       8.432  29.276  57.685  1.00  0.00    -0.150 SA
BRANCH  19  20
HETATM   20  C   UNL     1       7.391  30.634  58.308  1.00  0.00     0.113 C 
BRANCH  20  21
HETATM   21  C   UNL     1       7.850  31.123  59.659  1.00  0.00    -0.049 A 
HETATM   22  C   UNL     1       7.212  32.210  60.274  1.00  0.00     0.008 A 
HETATM   23  C   UNL     1       7.619  32.653  61.534  1.00  0.00     0.001 A 
HETATM   24  C   UNL     1       8.671  32.017  62.189  1.00  0.00     0.000 A 
HETATM   25  C   UNL     1       9.321  30.943  61.583  1.00  0.00     0.001 A 
HETATM   26  C   UNL     1       8.916  30.499  60.323  1.00  0.00     0.008 A 
ENDBRANCH  20  21
ENDBRANCH  19  20
ENDBRANCH  17  19
ENDBRANCH   1  17
TORSDOF 6
ENDMDL
MODEL 2
REMARK VINA RESULT:      -9.1      3.164      9.676
REMARK  6 active torsions:
REMARK  status: ('A' for Active; 'I' for Inactive)
REMARK    1  A    between atoms: C_2  and  S_3 
REMARK    2  A    between atoms: C_2  and  C_11 
REMARK    3  A    between atoms: S_3  and  C_4 
REMARK    4  A    between atoms: C_4  and  C_5 
REMARK       I    between atoms: C_11  and  N_12 
REMARK    5  A    between atoms: N_12  and  C_13 
REMARK    6  A    between atoms: C_15  and  C_16 
ROOT
HETATM    1  C   UNL     1       7.337  26.960  57.150  1.00  0.00     0.235 C 
HETATM    2  N   UNL     1       7.682  28.226  56.698  1.00  0.00    -0.326 N 
HETATM    3  O   UNL     1       7.746  26.439  58.185  1.00  0.00    -0.272 OA
HETATM    4  H   UNL     1       7.391  28.440  55.749  1.00  0.00     0.169 HD
ENDROOT
BRANCH   2   5
HETATM    5  C   UNL     1       8.495  29.183  57.343  1.00  0.00     0.035 A 
HETATM    6  C   UNL     1       8.146  29.826  58.534  1.00  0.00     0.042 A 
HETATM    7  C   UNL     1       8.992  30.783  59.121  1.00  0.00    -0.021 A 
HETATM    8  C   UNL     1      10.199  31.097  58.485  1.00  0.00     0.012 A 
HETATM    9  C   UNL     1      10.555  30.465  57.294  1.00  0.00     0.003 A 
HETATM   10  C   UNL     1       9.706  29.513  56.726  1.00  0.00     0.029 A 
BRANCH   7  11
HETATM   11  C   UNL     1       8.626  31.445  60.363  1.00  0.00     0.010 A 
HETATM   12  C   UNL     1       7.638  32.419  60.641  1.00  0.00     0.152 A 
HETATM   13  N   UNL     1       7.622  32.791  61.924  1.00  0.00    -0.187 NA
HETATM   14  N   UNL     1       8.601  32.056  62.475  1.00  0.00    -0.289 N 
HETATM   15  H   UNL     1       8.786  32.165  63.466  1.00  0.00     0.188 HD
HETATM   16  C   UNL     1       9.234  31.239  61.584  1.00  0.00     0.123 A 
ENDBRANCH   7  11
ENDBRANCH   2   5
BRANCH   1  17
HETATM   17  C   UNL     1       6.274  26.273  56.269  1.00  0.00     0.135 C 
HETATM   18  C   UNL     1       5.307  25.461  57.126  1.00  0.00     0.031 C 
BRANCH  17  19
HETATM   19  S   UNL     1       7.093  25.234  54.985  1.00  0.00    -0.150 SA
BRANCH  19  20
HETATM   20  C   UNL     1       7.229  23.663  55.896  1.00  0.00     0.113 C 
BRANCH  20  21
HETATM   21  C   UNL     1       7.635  22.523  54.997  1.00  0.00    -0.049 A 
HETATM   22  C   UNL     1       7.937  21.265  55.540  1.00  0.00     0.008 A 
HETATM   23  C   UNL     1       8.293  20.200  54.710  1.00  0.00     0.001 A 
HETATM   24  C   UNL     1       8.356  20.383  53.331  1.00  0.00     0.000 A 
HETATM   25  C   UNL     1       8.070  21.631  52.780  1.00  0.00     0.001 A 
HETATM   26  C   UNL     1       7.715  22.698  53.608  1.00  0.00     0.008 A 
ENDBRANCH  20  21
ENDBRANCH  19  20
ENDBRANCH  17  19
ENDBRANCH   1  17
TORSDOF 6
ENDMDL
MODEL 3
REMARK VINA RESULT:      -8.8      3.581      8.735
REMARK  6 active torsions:
REMARK  status: ('A' for Active; 'I' for Inactive)
REMARK    1  A    between atoms: C_2  and  S_3 
REMARK    2  A    between atoms: C_2  and  C_11 
REMARK    3  A    between atoms: S_3  and  C_4 
REMARK    4  A    between atoms: C_4  and  C_5 
REMARK       I    between atoms: C_11  and  N_12 
REMARK    5  A    between atoms: N_12  and  C_13 
REMARK    6  A    between atoms: C_15  and  C_16 
ROOT
HETATM    1  C   UNL     1       6.229  27.323  52.835  1.00  0.00     0.235 C 
HETATM    2  N   UNL     1       6.356  26.903  54.152  1.00  0.00    -0.326 N 
HETATM    3  O   UNL     1       6.232  28.492  52.458  1.00  0.00    -0.272 OA
HETATM    4  H   UNL     1       6.167  25.918  54.310  1.00  0.00     0.169 HD
ENDROOT
BRANCH   2   5
HETATM    5  C   UNL     1       6.579  27.699  55.295  1.00  0.00     0.035 A 
HETATM    6  C   UNL     1       7.813  28.274  55.615  1.00  0.00     0.042 A 
HETATM    7  C   UNL     1       7.977  29.046  56.778  1.00  0.00    -0.021 A 
HETATM    8  C   UNL     1       6.881  29.226  57.630  1.00  0.00     0.012 A 
HETATM    9  C   UNL     1       5.647  28.652  57.323  1.00  0.00     0.003 A 
HETATM   10  C   UNL     1       5.498  27.892  56.161  1.00  0.00     0.029 A 
BRANCH   7  11
HETATM   11  C   UNL     1       9.262  29.647  57.103  1.00  0.00     0.010 A 
HETATM   12  C   UNL     1      10.558  29.400  56.594  1.00  0.00     0.152 A 
HETATM   13  N   UNL     1      11.495  30.161  57.168  1.00  0.00    -0.187 NA
HETATM   14  N   UNL     1      10.801  30.901  58.047  1.00  0.00    -0.289 N 
HETATM   15  H   UNL     1      11.306  31.571  58.618  1.00  0.00     0.188 HD
HETATM   16  C   UNL     1       9.464  30.628  58.050  1.00  0.00     0.123 A 
ENDBRANCH   7  11
ENDBRANCH   2   5
BRANCH   1  17
HETATM   17  C   UNL     1       6.186  26.154  51.829  1.00  0.00     0.135 C 
HETATM   18  C   UNL     1       5.111  26.392  50.772  1.00  0.00     0.031 C 
BRANCH  17  19
HETATM   19  S   UNL     1       5.932  24.561  52.721  1.00  0.00    -0.150 SA
BRANCH  19  20
HETATM   20  C   UNL     1       7.623  23.889  52.647  1.00  0.00     0.113 C 
BRANCH  20  21
HETATM   21  C   UNL     1       7.795  22.691  53.546  1.00  0.00    -0.049 A 
HETATM   22  C   UNL     1       7.568  22.802  54.926  1.00  0.00     0.008 A 
HETATM   23  C   UNL     1       7.704  21.691  55.760  1.00  0.00     0.001 A 
HETATM   24  C   UNL     1       8.072  20.459  55.224  1.00  0.00     0.000 A 
HETATM   25  C   UNL     1       8.312  20.339  53.857  1.00  0.00     0.001 A 
HETATM   26  C   UNL     1       8.177  21.449  53.021  1.00  0.00     0.008 A 
ENDBRANCH  20  21
ENDBRANCH  19  20
ENDBRANCH  17  19
ENDBRANCH   1  17
TORSDOF 6
ENDMDL
MODEL 4
REMARK VINA RESULT:      -8.7      2.285      3.292
REMARK  6 active torsions:
REMARK  status: ('A' for Active; 'I' for Inactive)
REMARK    1  A    between atoms: C_2  and  S_3 
REMARK    2  A    between atoms: C_2  and  C_11 
REMARK    3  A    between atoms: S_3  and  C_4 
REMARK    4  A    between atoms: C_4  and  C_5 
REMARK       I    between atoms: C_11  and  N_12 
REMARK    5  A    between atoms: N_12  and  C_13 
REMARK    6  A    between atoms: C_15  and  C_16 
ROOT
HETATM    1  C   UNL     1       5.185  26.943  55.990  1.00  0.00     0.235 C 
HETATM    2  N   UNL     1       6.278  26.507  55.253  1.00  0.00    -0.326 N 
HETATM    3  O   UNL     1       4.779  26.430  57.030  1.00  0.00    -0.272 OA
HETATM    4  H   UNL     1       6.379  26.934  54.338  1.00  0.00     0.169 HD
ENDROOT
BRANCH   2   5
HETATM    5  C   UNL     1       7.171  25.461  55.568  1.00  0.00     0.035 A 
HETATM    6  C   UNL     1       7.272  24.275  54.834  1.00  0.00     0.042 A 
HETATM    7  C   UNL     1       8.173  23.263  55.207  1.00  0.00    -0.021 A 
HETATM    8  C   UNL     1       8.968  23.451  56.343  1.00  0.00     0.012 A 
HETATM    9  C   UNL     1       8.872  24.627  57.086  1.00  0.00     0.003 A 
HETATM   10  C   UNL     1       7.977  25.628  56.699  1.00  0.00     0.029 A 
BRANCH   7  11
HETATM   11  C   UNL     1       8.277  22.033  54.437  1.00  0.00     0.010 A 
HETATM   12  C   UNL     1       8.762  20.752  54.792  1.00  0.00     0.152 A 
HETATM   13  N   UNL     1       8.702  19.876  53.785  1.00  0.00    -0.187 NA
HETATM   14  N   UNL     1       8.177  20.593  52.779  1.00  0.00    -0.289 N 
HETATM   15  H   UNL     1       8.031  20.135  51.885  1.00  0.00     0.188 HD
HETATM   16  C   UNL     1       7.909  21.888  53.116  1.00  0.00     0.123 A 
ENDBRANCH   7  11
ENDBRANCH   2   5
BRANCH   1  17
HETATM   17  C   UNL     1       4.557  28.236  55.432  1.00  0.00     0.135 C 
HETATM   18  C   UNL     1       4.120  28.041  53.982  1.00  0.00     0.031 C 
BRANCH  17  19
HETATM   19  S   UNL     1       5.737  29.641  55.611  1.00  0.00    -0.150 SA
BRANCH  19  20
HETATM   20  C   UNL     1       6.561  29.159  57.162  1.00  0.00     0.113 C 
BRANCH  20  21
HETATM   21  C   UNL     1       8.027  29.512  57.154  1.00  0.00    -0.049 A 
HETATM   22  C   UNL     1       8.625  30.080  58.289  1.00  0.00     0.008 A 
HETATM   23  C   UNL     1       9.987  30.389  58.295  1.00  0.00     0.001 A 
HETATM   24  C   UNL     1      10.763  30.138  57.166  1.00  0.00     0.000 A 
HETATM   25  C   UNL     1      10.178  29.585  56.029  1.00  0.00     0.001 A 
HETATM   26  C   UNL     1       8.816  29.276  56.020  1.00  0.00     0.008 A 
ENDBRANCH  20  21
ENDBRANCH  19  20
ENDBRANCH  17  19
ENDBRANCH   1  17
TORSDOF 6
ENDMDL
MODEL 5
REMARK VINA RESULT:      -8.5      4.308      8.555
REMARK  6 active torsions:
REMARK  status: ('A' for Active; 'I' for Inactive)
REMARK    1  A    between atoms: C_2  and  S_3 
REMARK    2  A    between atoms: C_2  and  C_11 
REMARK    3  A    between atoms: S_3  and  C_4 
REMARK    4  A    between atoms: C_4  and  C_5 
REMARK       I    between atoms: C_11  and  N_12 
REMARK    5  A    between atoms: N_12  and  C_13 
REMARK    6  A    between atoms: C_15  and  C_16 
ROOT
HETATM    1  C   UNL     1       6.212  26.832  54.750  1.00  0.00     0.235 C 
HETATM    2  N   UNL     1       4.946  26.777  54.184  1.00  0.00    -0.326 N 
HETATM    3  O   UNL     1       7.164  27.466  54.302  1.00  0.00    -0.272 OA
HETATM    4  H   UNL     1       4.325  26.080  54.583  1.00  0.00     0.169 HD
ENDROOT
BRANCH   2   5
HETATM    5  C   UNL     1       4.475  27.471  53.048  1.00  0.00     0.035 A 
HETATM    6  C   UNL     1       4.857  27.170  51.738  1.00  0.00     0.042 A 
HETATM    7  C   UNL     1       4.365  27.909  50.648  1.00  0.00    -0.021 A 
HETATM    8  C   UNL     1       3.486  28.970  50.893  1.00  0.00     0.012 A 
HETATM    9  C   UNL     1       3.103  29.282  52.197  1.00  0.00     0.003 A 
HETATM   10  C   UNL     1       3.596  28.535  53.270  1.00  0.00     0.029 A 
BRANCH   7  11
HETATM   11  C   UNL     1       4.762  27.588  49.285  1.00  0.00     0.010 A 
HETATM   12  C   UNL     1       4.490  26.457  48.480  1.00  0.00     0.152 A 
HETATM   13  N   UNL     1       5.053  26.534  47.270  1.00  0.00    -0.187 NA
HETATM   14  N   UNL     1       5.688  27.716  47.295  1.00  0.00    -0.289 N 
HETATM   15  H   UNL     1       6.202  28.005  46.470  1.00  0.00     0.188 HD
HETATM   16  C   UNL     1       5.548  28.383  48.478  1.00  0.00     0.123 A 
ENDBRANCH   7  11
ENDBRANCH   2   5
BRANCH   1  17
HETATM   17  C   UNL     1       6.304  26.087  56.097  1.00  0.00     0.135 C 
HETATM   18  C   UNL     1       6.617  27.061  57.230  1.00  0.00     0.031 C 
BRANCH  17  19
HETATM   19  S   UNL     1       7.553  24.736  55.989  1.00  0.00    -0.150 SA
BRANCH  19  20
HETATM   20  C   UNL     1       6.971  23.894  54.483  1.00  0.00     0.113 C 
BRANCH  20  21
HETATM   21  C   UNL     1       7.582  22.524  54.332  1.00  0.00    -0.049 A 
HETATM   22  C   UNL     1       7.868  21.746  55.464  1.00  0.00     0.008 A 
HETATM   23  C   UNL     1       8.413  20.468  55.329  1.00  0.00     0.001 A 
HETATM   24  C   UNL     1       8.682  19.956  54.062  1.00  0.00     0.000 A 
HETATM   25  C   UNL     1       8.413  20.723  52.929  1.00  0.00     0.001 A 
HETATM   26  C   UNL     1       7.868  22.002  53.062  1.00  0.00     0.008 A 
ENDBRANCH  20  21
ENDBRANCH  19  20
ENDBRANCH  17  19
ENDBRANCH   1  17
TORSDOF 6
ENDMDL
MODEL 6
REMARK VINA RESULT:      -8.5      4.564      8.138
REMARK  6 active torsions:
REMARK  status: ('A' for Active; 'I' for Inactive)
REMARK    1  A    between atoms: C_2  and  S_3 
REMARK    2  A    between atoms: C_2  and  C_11 
REMARK    3  A    between atoms: S_3  and  C_4 
REMARK    4  A    between atoms: C_4  and  C_5 
REMARK       I    between atoms: C_11  and  N_12 
REMARK    5  A    between atoms: N_12  and  C_13 
REMARK    6  A    between atoms: C_15  and  C_16 
ROOT
HETATM    1  C   UNL     1       6.678  27.123  53.555  1.00  0.00     0.235 C 
HETATM    2  N   UNL     1       6.220  26.004  54.236  1.00  0.00    -0.326 N 
HETATM    3  O   UNL     1       7.816  27.580  53.621  1.00  0.00    -0.272 OA
HETATM    4  H   UNL     1       5.216  25.858  54.202  1.00  0.00     0.169 HD
ENDROOT
BRANCH   2   5
HETATM    5  C   UNL     1       6.960  25.136  55.069  1.00  0.00     0.035 A 
HETATM    6  C   UNL     1       7.318  23.833  54.712  1.00  0.00     0.042 A 
HETATM    7  C   UNL     1       8.044  23.011  55.592  1.00  0.00    -0.021 A 
HETATM    8  C   UNL     1       8.397  23.514  56.850  1.00  0.00     0.012 A 
HETATM    9  C   UNL     1       8.040  24.811  57.218  1.00  0.00     0.003 A 
HETATM   10  C   UNL     1       7.324  25.618  56.330  1.00  0.00     0.029 A 
BRANCH   7  11
HETATM   11  C   UNL     1       8.419  21.657  55.214  1.00  0.00     0.010 A 
HETATM   12  C   UNL     1       8.315  20.975  53.979  1.00  0.00     0.152 A 
HETATM   13  N   UNL     1       8.764  19.717  54.042  1.00  0.00    -0.187 NA
HETATM   14  N   UNL     1       9.159  19.589  55.319  1.00  0.00    -0.289 N 
HETATM   15  H   UNL     1       9.546  18.700  55.617  1.00  0.00     0.188 HD
HETATM   16  C   UNL     1       8.969  20.719  56.061  1.00  0.00     0.123 A 
ENDBRANCH   7  11
ENDBRANCH   2   5
BRANCH   1  17
HETATM   17  C   UNL     1       5.630  27.712  52.588  1.00  0.00     0.135 C 
HETATM   18  C   UNL     1       4.314  27.977  53.316  1.00  0.00     0.031 C 
BRANCH  17  19
HETATM   19  S   UNL     1       5.403  26.592  51.143  1.00  0.00    -0.150 SA
BRANCH  19  20
HETATM   20  C   UNL     1       5.001  27.819  49.858  1.00  0.00     0.113 C 
BRANCH  20  21
HETATM   21  C   UNL     1       3.867  27.361  48.976  1.00  0.00    -0.049 A 
HETATM   22  C   UNL     1       2.617  27.996  49.041  1.00  0.00     0.008 A 
HETATM   23  C   UNL     1       1.571  27.590  48.211  1.00  0.00     0.001 A 
HETATM   24  C   UNL     1       1.760  26.543  47.312  1.00  0.00     0.000 A 
HETATM   25  C   UNL     1       2.993  25.897  47.247  1.00  0.00     0.001 A 
HETATM   26  C   UNL     1       4.041  26.300  48.076  1.00  0.00     0.008 A 
ENDBRANCH  20  21
ENDBRANCH  19  20
ENDBRANCH  17  19
ENDBRANCH   1  17
TORSDOF 6
ENDMDL
MODEL 7
REMARK VINA RESULT:      -8.4      4.527     11.079
REMARK  6 active torsions:
REMARK  status: ('A' for Active; 'I' for Inactive)
REMARK    1  A    between atoms: C_2  and  S_3 
REMARK    2  A    between atoms: C_2  and  C_11 
REMARK    3  A    between atoms: S_3  and  C_4 
REMARK    4  A    between atoms: C_4  and  C_5 
REMARK       I    between atoms: C_11  and  N_12 
REMARK    5  A    between atoms: N_12  and  C_13 
REMARK    6  A    between atoms: C_15  and  C_16 
ROOT
HETATM    1  C   UNL     1       7.710  31.144  59.545  1.00  0.00     0.235 C 
HETATM    2  N   UNL     1       7.619  30.822  60.892  1.00  0.00    -0.326 N 
HETATM    3  O   UNL     1       7.435  32.236  59.055  1.00  0.00    -0.272 OA
HETATM    4  H   UNL     1       7.723  29.836  61.108  1.00  0.00     0.169 HD
ENDROOT
BRANCH   2   5
HETATM    5  C   UNL     1       7.271  31.673  61.963  1.00  0.00     0.035 A 
HETATM    6  C   UNL     1       5.971  32.126  62.206  1.00  0.00     0.042 A 
HETATM    7  C   UNL     1       5.689  32.986  63.282  1.00  0.00    -0.021 A 
HETATM    8  C   UNL     1       6.739  33.399  64.110  1.00  0.00     0.012 A 
HETATM    9  C   UNL     1       8.041  32.957  63.873  1.00  0.00     0.003 A 
HETATM   10  C   UNL     1       8.304  32.098  62.804  1.00  0.00     0.029 A 
BRANCH   7  11
HETATM   11  C   UNL     1       4.333  33.451  63.534  1.00  0.00     0.010 A 
HETATM   12  C   UNL     1       3.159  33.359  62.750  1.00  0.00     0.152 A 
HETATM   13  N   UNL     1       2.100  33.928  63.333  1.00  0.00    -0.187 NA
HETATM   14  N   UNL     1       2.591  34.386  64.495  1.00  0.00    -0.289 N 
HETATM   15  H   UNL     1       1.962  34.869  65.128  1.00  0.00     0.188 HD
HETATM   16  C   UNL     1       3.922  34.130  64.661  1.00  0.00     0.123 A 
ENDBRANCH   7  11
ENDBRANCH   2   5
BRANCH   1  17
HETATM   17  C   UNL     1       8.308  30.007  58.691  1.00  0.00     0.135 C 
HETATM   18  C   UNL     1       9.688  30.395  58.167  1.00  0.00     0.031 C 
BRANCH  17  19
HETATM   19  S   UNL     1       7.152  29.569  57.324  1.00  0.00    -0.150 SA
BRANCH  19  20
HETATM   20  C   UNL     1       7.146  27.755  57.490  1.00  0.00     0.113 C 
BRANCH  20  21
HETATM   21  C   UNL     1       7.288  27.066  56.157  1.00  0.00    -0.049 A 
HETATM   22  C   UNL     1       7.310  27.814  54.970  1.00  0.00     0.008 A 
HETATM   23  C   UNL     1       7.462  27.183  53.735  1.00  0.00     0.001 A 
HETATM   24  C   UNL     1       7.589  25.798  53.671  1.00  0.00     0.000 A 
HETATM   25  C   UNL     1       7.556  25.042  54.842  1.00  0.00     0.001 A 
HETATM   26  C   UNL     1       7.403  25.671  56.079  1.00  0.00     0.008 A 
ENDBRANCH  20  21
ENDBRANCH  19  20
ENDBRANCH  17  19
ENDBRANCH   1  17
TORSDOF 6
ENDMDL
MODEL 8
REMARK VINA RESULT:      -8.3      6.562     10.217
REMARK  6 active torsions:
REMARK  status: ('A' for Active; 'I' for Inactive)
REMARK    1  A    between atoms: C_2  and  S_3 
REMARK    2  A    between atoms: C_2  and  C_11 
REMARK    3  A    between atoms: S_3  and  C_4 
REMARK    4  A    between atoms: C_4  and  C_5 
REMARK       I    between atoms: C_11  and  N_12 
REMARK    5  A    between atoms: N_12  and  C_13 
REMARK    6  A    between atoms: C_15  and  C_16 
ROOT
HETATM    1  C   UNL     1       5.314  26.562  51.262  1.00  0.00     0.235 C 
HETATM    2  N   UNL     1       5.147  26.470  49.887  1.00  0.00    -0.326 N 
HETATM    3  O   UNL     1       5.089  27.562  51.940  1.00  0.00    -0.272 OA
HETATM    4  H   UNL     1       5.534  25.634  49.461  1.00  0.00     0.169 HD
ENDROOT
BRANCH   2   5
HETATM    5  C   UNL     1       4.633  27.450  49.011  1.00  0.00     0.035 A 
HETATM    6  C   UNL     1       3.357  27.393  48.442  1.00  0.00     0.042 A 
HETATM    7  C   UNL     1       2.906  28.393  47.563  1.00  0.00    -0.021 A 
HETATM    8  C   UNL     1       3.764  29.454  47.250  1.00  0.00     0.012 A 
HETATM    9  C   UNL     1       5.041  29.518  47.808  1.00  0.00     0.003 A 
HETATM   10  C   UNL     1       5.472  28.520  48.685  1.00  0.00     0.029 A 
BRANCH   7  11
HETATM   11  C   UNL     1       1.576  28.332  46.978  1.00  0.00     0.010 A 
HETATM   12  C   UNL     1       0.677  29.358  46.603  1.00  0.00     0.152 A 
HETATM   13  N   UNL     1      -0.470  28.888  46.105  1.00  0.00    -0.187 NA
HETATM   14  N   UNL     1      -0.311  27.556  46.157  1.00  0.00    -0.289 N 
HETATM   15  H   UNL     1      -1.066  26.966  45.825  1.00  0.00     0.188 HD
HETATM   16  C   UNL     1       0.893  27.173  46.674  1.00  0.00     0.123 A 
ENDBRANCH   7  11
ENDBRANCH   2   5
BRANCH   1  17
HETATM   17  C   UNL     1       5.722  25.225  51.912  1.00  0.00     0.135 C 
HETATM   18  C   UNL     1       4.973  25.014  53.226  1.00  0.00     0.031 C 
BRANCH  17  19
HETATM   19  S   UNL     1       7.549  25.166  52.146  1.00  0.00    -0.150 SA
BRANCH  19  20
HETATM   20  C   UNL     1       7.624  24.599  53.875  1.00  0.00     0.113 C 
BRANCH  20  21
HETATM   21  C   UNL     1       8.016  23.147  53.975  1.00  0.00    -0.049 A 
HETATM   22  C   UNL     1       8.789  22.694  55.055  1.00  0.00     0.008 A 
HETATM   23  C   UNL     1       9.136  21.347  55.165  1.00  0.00     0.001 A 
HETATM   24  C   UNL     1       8.720  20.439  54.195  1.00  0.00     0.000 A 
HETATM   25  C   UNL     1       7.962  20.878  53.111  1.00  0.00     0.001 A 
HETATM   26  C   UNL     1       7.613  22.225  52.998  1.00  0.00     0.008 A 
ENDBRANCH  20  21
ENDBRANCH  19  20
ENDBRANCH  17  19
ENDBRANCH   1  17
TORSDOF 6
ENDMDL
MODEL 9
REMARK VINA RESULT:      -8.3      4.070     10.299
REMARK  6 active torsions:
REMARK  status: ('A' for Active; 'I' for Inactive)
REMARK    1  A    between atoms: C_2  and  S_3 
REMARK    2  A    between atoms: C_2  and  C_11 
REMARK    3  A    between atoms: S_3  and  C_4 
REMARK    4  A    between atoms: C_4  and  C_5 
REMARK       I    between atoms: C_11  and  N_12 
REMARK    5  A    between atoms: N_12  and  C_13 
REMARK    6  A    between atoms: C_15  and  C_16 
ROOT
HETATM    1  C   UNL     1       6.807  30.862  58.096  1.00  0.00     0.235 C 
HETATM    2  N   UNL     1       7.493  30.342  59.186  1.00  0.00    -0.326 N 
HETATM    3  O   UNL     1       6.433  32.026  57.981  1.00  0.00    -0.272 OA
HETATM    4  H   UNL     1       7.581  29.331  59.197  1.00  0.00     0.169 HD
ENDROOT
BRANCH   2   5
HETATM    5  C   UNL     1       7.954  31.033  60.326  1.00  0.00     0.035 A 
HETATM    6  C   UNL     1       7.123  31.469  61.362  1.00  0.00     0.042 A 
HETATM    7  C   UNL     1       7.641  32.167  62.467  1.00  0.00    -0.021 A 
HETATM    8  C   UNL     1       9.014  32.435  62.514  1.00  0.00     0.012 A 
HETATM    9  C   UNL     1       9.852  32.009  61.483  1.00  0.00     0.003 A 
HETATM   10  C   UNL     1       9.323  31.311  60.395  1.00  0.00     0.029 A 
BRANCH   7  11
HETATM   11  C   UNL     1       6.772  32.613  63.545  1.00  0.00     0.010 A 
HETATM   12  C   UNL     1       5.365  32.560  63.688  1.00  0.00     0.152 A 
HETATM   13  N   UNL     1       4.939  33.095  64.836  1.00  0.00    -0.187 NA
HETATM   14  N   UNL     1       6.072  33.493  65.435  1.00  0.00    -0.289 N 
HETATM   15  H   UNL     1       6.006  33.940  66.343  1.00  0.00     0.188 HD
HETATM   16  C   UNL     1       7.194  33.231  64.703  1.00  0.00     0.123 A 
ENDBRANCH   7  11
ENDBRANCH   2   5
BRANCH   1  17
HETATM   17  C   UNL     1       6.637  29.845  56.949  1.00  0.00     0.135 C 
HETATM   18  C   UNL     1       5.201  29.331  56.894  1.00  0.00     0.031 C 
BRANCH  17  19
HETATM   19  S   UNL     1       7.852  28.472  57.134  1.00  0.00    -0.150 SA
BRANCH  19  20
HETATM   20  C   UNL     1       6.709  27.078  57.394  1.00  0.00     0.113 C 
BRANCH  20  21
HETATM   21  C   UNL     1       7.245  25.794  56.814  1.00  0.00    -0.049 A 
HETATM   22  C   UNL     1       6.557  25.142  55.779  1.00  0.00     0.008 A 
HETATM   23  C   UNL     1       7.060  23.964  55.224  1.00  0.00     0.001 A 
HETATM   24  C   UNL     1       8.252  23.423  55.699  1.00  0.00     0.000 A 
HETATM   25  C   UNL     1       8.939  24.055  56.734  1.00  0.00     0.001 A 
HETATM   26  C   UNL     1       8.437  25.232  57.292  1.00  0.00     0.008 A 
ENDBRANCH  20  21
ENDBRANCH  19  20
ENDBRANCH  17  19
ENDBRANCH   1  17
TORSDOF 6
ENDMDL
MODEL 10
REMARK VINA RESULT:      -8.2      5.660      9.238
REMARK  6 active torsions:
REMARK  status: ('A' for Active; 'I' for Inactive)
REMARK    1  A    between atoms: C_2  and  S_3 
REMARK    2  A    between atoms: C_2  and  C_11 
REMARK    3  A    between atoms: S_3  and  C_4 
REMARK    4  A    between atoms: C_4  and  C_5 
REMARK       I    between atoms: C_11  and  N_12 
REMARK    5  A    between atoms: N_12  and  C_13 
REMARK    6  A    between atoms: C_15  and  C_16 
ROOT
HETATM    1  C   UNL     1       5.504  26.435  51.364  1.00  0.00     0.235 C 
HETATM    2  N   UNL     1       6.722  25.800  51.565  1.00  0.00    -0.326 N 
HETATM    3  O   UNL     1       4.597  26.510  52.189  1.00  0.00    -0.272 OA
HETATM    4  H   UNL     1       7.291  25.685  50.732  1.00  0.00     0.169 HD
ENDROOT
BRANCH   2   5
HETATM    5  C   UNL     1       7.191  25.185  52.745  1.00  0.00     0.035 A 
HETATM    6  C   UNL     1       7.563  23.839  52.828  1.00  0.00     0.042 A 
HETATM    7  C   UNL     1       8.009  23.281  54.038  1.00  0.00    -0.021 A 
HETATM    8  C   UNL     1       8.068  24.093  55.177  1.00  0.00     0.012 A 
HETATM    9  C   UNL     1       7.695  25.435  55.106  1.00  0.00     0.003 A 
HETATM   10  C   UNL     1       7.259  25.978  53.895  1.00  0.00     0.029 A 
BRANCH   7  11
HETATM   11  C   UNL     1       8.399  21.881  54.117  1.00  0.00     0.010 A 
HETATM   12  C   UNL     1       8.389  20.857  53.141  1.00  0.00     0.152 A 
HETATM   13  N   UNL     1       8.818  19.683  53.616  1.00  0.00    -0.187 NA
HETATM   14  N   UNL     1       9.105  19.951  54.899  1.00  0.00    -0.289 N 
HETATM   15  H   UNL     1       9.457  19.199  55.482  1.00  0.00     0.188 HD
HETATM   16  C   UNL     1       8.869  21.249  55.249  1.00  0.00     0.123 A 
ENDBRANCH   7  11
ENDBRANCH   2   5
BRANCH   1  17
HETATM   17  C   UNL     1       5.417  27.159  50.005  1.00  0.00     0.135 C 
HETATM   18  C   UNL     1       5.214  28.659  50.205  1.00  0.00     0.031 C 
BRANCH  17  19
HETATM   19  S   UNL     1       4.080  26.416  48.976  1.00  0.00    -0.150 SA
BRANCH  19  20
HETATM   20  C   UNL     1       4.099  27.566  47.564  1.00  0.00     0.113 C 
BRANCH  20  21
HETATM   21  C   UNL     1       2.707  27.969  47.147  1.00  0.00    -0.049 A 
HETATM   22  C   UNL     1       2.396  29.320  46.930  1.00  0.00     0.008 A 
HETATM   23  C   UNL     1       1.115  29.697  46.523  1.00  0.00     0.001 A 
HETATM   24  C   UNL     1       0.131  28.730  46.334  1.00  0.00     0.000 A 
HETATM   25  C   UNL     1       0.424  27.386  46.558  1.00  0.00     0.001 A 
HETATM   26  C   UNL     1       1.704  27.006  46.966  1.00  0.00     0.008 A 
ENDBRANCH  20  21
ENDBRANCH  19  20
ENDBRANCH  17  19
ENDBRANCH   1  17
TORSDOF 6
ENDMDL
