MODEL 1
REMARK VINA RESULT:     -10.0      0.000      0.000
REMARK  6 active torsions:
REMARK  status: ('A' for Active; 'I' for Inactive)
REMARK    1  A    between atoms: C_4  and  C_5 
REMARK    2  A    between atoms: C_5  and  N_6 
REMARK    3  A    between atoms: C_5  and  C_20 
REMARK       I    between atoms: N_6  and  C_7 
REMARK    4  A    between atoms: C_7  and  C_8 
REMARK    5  A    between atoms: C_8  and  N_9 
REMARK    6  A    between atoms: C_21  and  O_22 
ROOT
HETATM    1  C   UNL     1       7.316  28.371  57.384  1.00  0.00     0.154 C 
ENDROOT
BRANCH   1   2
HETATM    2  C   UNL     1       6.136  28.829  56.521  1.00  0.00    -0.031 A 
HETATM    3  C   UNL     1       4.996  29.338  57.181  1.00  0.00     0.009 A 
HETATM    4  C   UNL     1       3.879  29.777  56.468  1.00  0.00     0.001 A 
HETATM    5  C   UNL     1       3.876  29.720  55.078  1.00  0.00     0.000 A 
HETATM    6  C   UNL     1       4.988  29.220  54.405  1.00  0.00     0.001 A 
HETATM    7  C   UNL     1       6.105  28.774  55.119  1.00  0.00     0.009 A 
ENDBRANCH   1   2
BRANCH   1   8
HETATM    8  N   UNL     1       7.866  27.066  57.071  1.00  0.00    -0.347 N 
HETATM    9  C   UNL     1       7.083  25.930  57.118  1.00  0.00     0.236 C 
HETATM   10  O   UNL     1       5.886  25.951  57.408  1.00  0.00    -0.272 OA
HETATM   11  H   UNL     1       8.710  27.012  56.504  1.00  0.00     0.163 HD
BRANCH   9  12
HETATM   12  C   UNL     1       7.846  24.634  56.830  1.00  0.00     0.236 C 
BRANCH  12  13
HETATM   13  N   UNL     1       7.665  24.177  55.475  1.00  0.00    -0.289 N 
HETATM   14  C   UNL     1       7.731  25.013  54.343  1.00  0.00     0.328 A 
HETATM   15  O   UNL     1       7.792  26.232  54.340  1.00  0.00    -0.247 OA
HETATM   16  N   UNL     1       7.733  24.181  53.220  1.00  0.00    -0.306 N 
HETATM   17  C   UNL     1       7.756  22.857  53.644  1.00  0.00     0.063 A 
HETATM   18  H   UNL     1       7.788  24.513  52.270  1.00  0.00     0.171 HD
HETATM   19  C   UNL     1       7.725  22.844  55.041  1.00  0.00     0.066 A 
HETATM   20  C   UNL     1       7.847  21.711  52.889  1.00  0.00     0.032 A 
HETATM   21  C   UNL     1       7.790  21.660  55.743  1.00  0.00     0.032 A 
HETATM   22  C   UNL     1       7.890  20.478  54.998  1.00  0.00     0.002 A 
HETATM   23  C   UNL     1       7.917  20.502  53.587  1.00  0.00     0.002 A 
ENDBRANCH  12  13
ENDBRANCH   9  12
ENDBRANCH   1   8
BRANCH   1  24
HETATM   24  C   UNL     1       8.431  29.420  57.498  1.00  0.00     0.013 C 
HETATM   25  C   UNL     1       9.444  29.430  56.519  1.00  0.00     0.075 C 
HETATM   26  C   UNL     1      10.582  30.215  56.642  1.00  0.00     0.038 C 
HETATM   27  C   UNL     1      10.703  31.076  57.725  1.00  0.00     0.015 C 
HETATM   28  C   UNL     1       9.676  31.187  58.669  1.00  0.00    -0.025 A 
HETATM   29  C   UNL     1       8.515  30.371  58.565  1.00  0.00    -0.015 A 
HETATM   30  C   UNL     1       9.799  32.121  59.712  1.00  0.00     0.012 A 
HETATM   31  C   UNL     1       7.504  30.585  59.531  1.00  0.00     0.013 A 
HETATM   32  C   UNL     1       7.632  31.528  60.555  1.00  0.00     0.001 A 
HETATM   33  C   UNL     1       8.784  32.292  60.650  1.00  0.00     0.001 A 
BRANCH  25  34
HETATM   34  O   UNL     1       9.335  28.704  55.363  1.00  0.00    -0.360 OA
HETATM   35  H   UNL     1       8.463  28.248  55.414  1.00  0.00     0.217 HD
ENDBRANCH  25  34
ENDBRANCH   1  24
TORSDOF 6
ENDMDL
MODEL 2
REMARK VINA RESULT:      -9.9      2.053      8.233
REMARK  6 active torsions:
REMARK  status: ('A' for Active; 'I' for Inactive)
REMARK    1  A    between atoms: C_4  and  C_5 
REMARK    2  A    between atoms: C_5  and  N_6 
REMARK    3  A    between atoms: C_5  and  C_20 
REMARK       I    between atoms: N_6  and  C_7 
REMARK    4  A    between atoms: C_7  and  C_8 
REMARK    5  A    between atoms: C_8  and  N_9 
REMARK    6  A    between atoms: C_21  and  O_22 
ROOT
HETATM    1  C   UNL     1       7.806  25.109  55.000  1.00  0.00     0.154 C 
ENDROOT
BRANCH   1   2
HETATM    2  C   UNL     1       6.866  25.219  53.795  1.00  0.00    -0.031 A 
HETATM    3  C   UNL     1       5.508  24.886  53.987  1.00  0.00     0.009 A 
HETATM    4  C   UNL     1       4.585  24.960  52.942  1.00  0.00     0.001 A 
HETATM    5  C   UNL     1       5.000  25.373  51.679  1.00  0.00     0.000 A 
HETATM    6  C   UNL     1       6.334  25.705  51.465  1.00  0.00     0.001 A 
HETATM    7  C   UNL     1       7.260  25.624  52.511  1.00  0.00     0.009 A 
ENDBRANCH   1   2
BRANCH   1   8
HETATM    8  N   UNL     1       7.541  26.017  56.100  1.00  0.00    -0.347 N 
HETATM    9  C   UNL     1       7.700  27.380  55.957  1.00  0.00     0.236 C 
HETATM   10  O   UNL     1       8.055  27.908  54.902  1.00  0.00    -0.272 OA
HETATM   11  H   UNL     1       6.931  25.708  56.855  1.00  0.00     0.163 HD
BRANCH   9  12
HETATM   12  C   UNL     1       7.448  28.177  57.240  1.00  0.00     0.236 C 
BRANCH  12  13
HETATM   13  N   UNL     1       6.228  28.944  57.182  1.00  0.00    -0.289 N 
HETATM   14  C   UNL     1       4.977  28.415  56.809  1.00  0.00     0.328 A 
HETATM   15  O   UNL     1       4.765  27.306  56.343  1.00  0.00    -0.247 OA
HETATM   16  N   UNL     1       4.019  29.392  57.092  1.00  0.00    -0.306 N 
HETATM   17  C   UNL     1       4.647  30.470  57.707  1.00  0.00     0.063 A 
HETATM   18  H   UNL     1       3.031  29.276  56.936  1.00  0.00     0.171 HD
HETATM   19  C   UNL     1       6.016  30.197  57.778  1.00  0.00     0.066 A 
HETATM   20  C   UNL     1       4.086  31.613  58.228  1.00  0.00     0.032 A 
HETATM   21  C   UNL     1       6.886  31.074  58.388  1.00  0.00     0.032 A 
HETATM   22  C   UNL     1       6.339  32.243  58.934  1.00  0.00     0.002 A 
HETATM   23  C   UNL     1       4.956  32.510  58.854  1.00  0.00     0.002 A 
ENDBRANCH  12  13
ENDBRANCH   9  12
ENDBRANCH   1   8
BRANCH   1  24
HETATM   24  C   UNL     1       7.980  23.671  55.508  1.00  0.00     0.013 C 
HETATM   25  C   UNL     1       8.008  23.451  56.899  1.00  0.00     0.075 C 
HETATM   26  C   UNL     1       8.342  22.220  57.445  1.00  0.00     0.038 C 
HETATM   27  C   UNL     1       8.591  21.145  56.602  1.00  0.00     0.015 C 
HETATM   28  C   UNL     1       8.470  21.280  55.215  1.00  0.00    -0.025 A 
HETATM   29  C   UNL     1       8.149  22.543  54.643  1.00  0.00    -0.015 A 
HETATM   30  C   UNL     1       8.657  20.154  54.395  1.00  0.00     0.012 A 
HETATM   31  C   UNL     1       7.994  22.579  53.237  1.00  0.00     0.013 A 
HETATM   32  C   UNL     1       8.168  21.449  52.434  1.00  0.00     0.001 A 
HETATM   33  C   UNL     1       8.507  20.236  53.013  1.00  0.00     0.001 A 
BRANCH  25  34
HETATM   34  O   UNL     1       7.650  24.428  57.789  1.00  0.00    -0.360 OA
HETATM   35  H   UNL     1       8.465  24.639  58.300  1.00  0.00     0.217 HD
ENDBRANCH  25  34
ENDBRANCH   1  24
TORSDOF 6
ENDMDL
MODEL 3
REMARK VINA RESULT:      -9.9      3.972      7.289
REMARK  6 active torsions:
REMARK  status: ('A' for Active; 'I' for Inactive)
REMARK    1  A    between atoms: C_4  and  C_5 
REMARK    2  A    between atoms: C_5  and  N_6 
REMARK    3  A    between atoms: C_5  and  C_20 
REMARK       I    between atoms: N_6  and  C_7 
REMARK    4  A    between atoms: C_7  and  C_8 
REMARK    5  A    between atoms: C_8  and  N_9 
REMARK    6  A    between atoms: C_21  and  O_22 
ROOT
HETATM    1  C   UNL     1       6.591  28.428  55.021  1.00  0.00     0.154 C 
ENDROOT
BRANCH   1   2
HETATM    2  C   UNL     1       7.834  28.963  55.738  1.00  0.00    -0.031 A 
HETATM    3  C   UNL     1       7.702  29.344  57.091  1.00  0.00     0.009 A 
HETATM    4  C   UNL     1       8.786  29.840  57.817  1.00  0.00     0.001 A 
HETATM    5  C   UNL     1      10.030  29.965  57.207  1.00  0.00     0.000 A 
HETATM    6  C   UNL     1      10.185  29.598  55.873  1.00  0.00     0.001 A 
HETATM    7  C   UNL     1       9.098  29.107  55.143  1.00  0.00     0.009 A 
ENDBRANCH   1   2
BRANCH   1   8
HETATM    8  N   UNL     1       6.467  28.773  53.617  1.00  0.00    -0.347 N 
HETATM    9  C   UNL     1       5.230  28.954  53.032  1.00  0.00     0.236 C 
HETATM   10  O   UNL     1       4.172  28.852  53.653  1.00  0.00    -0.272 OA
HETATM   11  H   UNL     1       7.259  29.206  53.146  1.00  0.00     0.163 HD
BRANCH   9  12
HETATM   12  C   UNL     1       5.287  29.241  51.529  1.00  0.00     0.236 C 
BRANCH  12  13
HETATM   13  N   UNL     1       4.014  29.041  50.881  1.00  0.00    -0.289 N 
HETATM   14  C   UNL     1       3.000  30.015  50.811  1.00  0.00     0.328 A 
HETATM   15  O   UNL     1       2.976  31.085  51.399  1.00  0.00    -0.247 OA
HETATM   16  N   UNL     1       2.032  29.536  49.924  1.00  0.00    -0.306 N 
HETATM   17  C   UNL     1       2.475  28.331  49.387  1.00  0.00     0.063 A 
HETATM   18  H   UNL     1       1.196  30.039  49.673  1.00  0.00     0.171 HD
HETATM   19  C   UNL     1       3.708  28.021  49.966  1.00  0.00     0.066 A 
HETATM   20  C   UNL     1       1.888  27.552  48.418  1.00  0.00     0.032 A 
HETATM   21  C   UNL     1       4.412  26.900  49.583  1.00  0.00     0.032 A 
HETATM   22  C   UNL     1       3.840  26.092  48.592  1.00  0.00     0.002 A 
HETATM   23  C   UNL     1       2.592  26.413  48.016  1.00  0.00     0.002 A 
ENDBRANCH  12  13
ENDBRANCH   9  12
ENDBRANCH   1   8
BRANCH   1  24
HETATM   24  C   UNL     1       6.363  26.925  55.235  1.00  0.00     0.013 C 
HETATM   25  C   UNL     1       5.592  26.515  56.340  1.00  0.00     0.075 C 
HETATM   26  C   UNL     1       5.488  25.183  56.714  1.00  0.00     0.038 C 
HETATM   27  C   UNL     1       6.103  24.207  55.940  1.00  0.00     0.015 C 
HETATM   28  C   UNL     1       6.789  24.549  54.769  1.00  0.00    -0.025 A 
HETATM   29  C   UNL     1       6.920  25.914  54.388  1.00  0.00    -0.015 A 
HETATM   30  C   UNL     1       7.336  23.531  53.970  1.00  0.00     0.012 A 
HETATM   31  C   UNL     1       7.584  26.167  53.164  1.00  0.00     0.013 A 
HETATM   32  C   UNL     1       8.111  25.144  52.371  1.00  0.00     0.001 A 
HETATM   33  C   UNL     1       7.992  23.825  52.778  1.00  0.00     0.001 A 
BRANCH  25  34
HETATM   34  O   UNL     1       4.856  27.406  57.074  1.00  0.00    -0.360 OA
HETATM   35  H   UNL     1       3.970  26.992  57.190  1.00  0.00     0.217 HD
ENDBRANCH  25  34
ENDBRANCH   1  24
TORSDOF 6
ENDMDL
MODEL 4
REMARK VINA RESULT:      -9.8      2.732      6.921
REMARK  6 active torsions:
REMARK  status: ('A' for Active; 'I' for Inactive)
REMARK    1  A    between atoms: C_4  and  C_5 
REMARK    2  A    between atoms: C_5  and  N_6 
REMARK    3  A    between atoms: C_5  and  C_20 
REMARK       I    between atoms: N_6  and  C_7 
REMARK    4  A    between atoms: C_7  and  C_8 
REMARK    5  A    between atoms: C_8  and  N_9 
REMARK    6  A    between atoms: C_21  and  O_22 
ROOT
HETATM    1  C   UNL     1       7.093  27.115  56.309  1.00  0.00     0.154 C 
ENDROOT
BRANCH   1   2
HETATM    2  C   UNL     1       8.241  28.124  56.208  1.00  0.00    -0.031 A 
HETATM    3  C   UNL     1       8.797  28.613  57.410  1.00  0.00     0.009 A 
HETATM    4  C   UNL     1       9.846  29.534  57.404  1.00  0.00     0.001 A 
HETATM    5  C   UNL     1      10.366  29.986  56.196  1.00  0.00     0.000 A 
HETATM    6  C   UNL     1       9.833  29.520  54.997  1.00  0.00     0.001 A 
HETATM    7  C   UNL     1       8.778  28.602  55.002  1.00  0.00     0.009 A 
ENDBRANCH   1   2
BRANCH   1   8
HETATM    8  N   UNL     1       5.926  27.393  55.495  1.00  0.00    -0.347 N 
HETATM    9  C   UNL     1       5.010  28.359  55.863  1.00  0.00     0.236 C 
HETATM   10  O   UNL     1       5.130  29.045  56.880  1.00  0.00    -0.272 OA
HETATM   11  H   UNL     1       5.941  27.136  54.510  1.00  0.00     0.163 HD
BRANCH   9  12
HETATM   12  C   UNL     1       3.804  28.466  54.926  1.00  0.00     0.236 C 
BRANCH  12  13
HETATM   13  N   UNL     1       4.068  29.304  53.783  1.00  0.00    -0.289 N 
HETATM   14  C   UNL     1       4.242  30.701  53.849  1.00  0.00     0.328 A 
HETATM   15  O   UNL     1       4.049  31.413  54.821  1.00  0.00    -0.247 OA
HETATM   16  N   UNL     1       4.697  31.115  52.594  1.00  0.00    -0.306 N 
HETATM   17  C   UNL     1       4.886  29.994  51.793  1.00  0.00     0.063 A 
HETATM   18  H   UNL     1       4.919  32.070  52.361  1.00  0.00     0.171 HD
HETATM   19  C   UNL     1       4.509  28.865  52.525  1.00  0.00     0.066 A 
HETATM   20  C   UNL     1       5.398  29.921  50.518  1.00  0.00     0.032 A 
HETATM   21  C   UNL     1       4.638  27.599  51.996  1.00  0.00     0.032 A 
HETATM   22  C   UNL     1       5.164  27.495  50.702  1.00  0.00     0.002 A 
HETATM   23  C   UNL     1       5.538  28.643  49.971  1.00  0.00     0.002 A 
ENDBRANCH  12  13
ENDBRANCH   9  12
ENDBRANCH   1   8
BRANCH   1  24
HETATM   24  C   UNL     1       7.545  25.658  56.135  1.00  0.00     0.013 C 
HETATM   25  C   UNL     1       7.948  24.940  57.277  1.00  0.00     0.075 C 
HETATM   26  C   UNL     1       8.541  23.689  57.192  1.00  0.00     0.038 C 
HETATM   27  C   UNL     1       8.683  23.084  55.949  1.00  0.00     0.015 C 
HETATM   28  C   UNL     1       8.200  23.706  54.792  1.00  0.00    -0.025 A 
HETATM   29  C   UNL     1       7.609  24.998  54.866  1.00  0.00    -0.015 A 
HETATM   30  C   UNL     1       8.293  23.034  53.561  1.00  0.00     0.012 A 
HETATM   31  C   UNL     1       7.100  25.530  53.657  1.00  0.00     0.013 A 
HETATM   32  C   UNL     1       7.186  24.846  52.442  1.00  0.00     0.001 A 
HETATM   33  C   UNL     1       7.789  23.599  52.392  1.00  0.00     0.001 A 
BRANCH  25  34
HETATM   34  O   UNL     1       7.724  25.416  58.542  1.00  0.00    -0.360 OA
HETATM   35  H   UNL     1       7.614  26.390  58.447  1.00  0.00     0.217 HD
ENDBRANCH  25  34
ENDBRANCH   1  24
TORSDOF 6
ENDMDL
MODEL 5
REMARK VINA RESULT:      -9.8      2.521      6.490
REMARK  6 active torsions:
REMARK  status: ('A' for Active; 'I' for Inactive)
REMARK    1  A    between atoms: C_4  and  C_5 
REMARK    2  A    between atoms: C_5  and  N_6 
REMARK    3  A    between atoms: C_5  and  C_20 
REMARK       I    between atoms: N_6  and  C_7 
REMARK    4  A    between atoms: C_7  and  C_8 
REMARK    5  A    between atoms: C_8  and  N_9 
REMARK    6  A    between atoms: C_21  and  O_22 
ROOT
HETATM    1  C   UNL     1       7.270  28.028  56.488  1.00  0.00     0.154 C 
ENDROOT
BRANCH   1   2
HETATM    2  C   UNL     1       8.489  28.864  56.894  1.00  0.00    -0.031 A 
HETATM    3  C   UNL     1       8.401  29.622  58.082  1.00  0.00     0.009 A 
HETATM    4  C   UNL     1       9.467  30.409  58.522  1.00  0.00     0.001 A 
HETATM    5  C   UNL     1      10.647  30.454  57.787  1.00  0.00     0.000 A 
HETATM    6  C   UNL     1      10.756  29.717  56.611  1.00  0.00     0.001 A 
HETATM    7  C   UNL     1       9.687  28.933  56.166  1.00  0.00     0.009 A 
ENDBRANCH   1   2
BRANCH   1   8
HETATM    8  N   UNL     1       6.065  28.771  56.173  1.00  0.00    -0.347 N 
HETATM    9  C   UNL     1       4.816  28.201  56.316  1.00  0.00     0.236 C 
HETATM   10  O   UNL     1       4.645  27.053  56.727  1.00  0.00    -0.272 OA
HETATM   11  H   UNL     1       6.101  29.788  56.171  1.00  0.00     0.163 HD
BRANCH   9  12
HETATM   12  C   UNL     1       3.663  29.103  55.867  1.00  0.00     0.236 C 
BRANCH  12  13
HETATM   13  N   UNL     1       3.882  29.667  54.557  1.00  0.00    -0.289 N 
HETATM   14  C   UNL     1       4.205  31.017  54.321  1.00  0.00     0.328 A 
HETATM   15  O   UNL     1       4.198  31.922  55.140  1.00  0.00    -0.247 OA
HETATM   16  N   UNL     1       4.558  31.122  52.973  1.00  0.00    -0.306 N 
HETATM   17  C   UNL     1       4.538  29.853  52.404  1.00  0.00     0.063 A 
HETATM   18  H   UNL     1       4.850  31.979  52.530  1.00  0.00     0.171 HD
HETATM   19  C   UNL     1       4.131  28.942  53.381  1.00  0.00     0.066 A 
HETATM   20  C   UNL     1       4.894  29.473  51.131  1.00  0.00     0.032 A 
HETATM   21  C   UNL     1       4.068  27.591  53.113  1.00  0.00     0.032 A 
HETATM   22  C   UNL     1       4.432  27.176  51.826  1.00  0.00     0.002 A 
HETATM   23  C   UNL     1       4.839  28.106  50.845  1.00  0.00     0.002 A 
ENDBRANCH  12  13
ENDBRANCH   9  12
ENDBRANCH   1   8
BRANCH   1  24
HETATM   24  C   UNL     1       7.577  26.996  55.395  1.00  0.00     0.013 C 
HETATM   25  C   UNL     1       7.547  27.414  54.050  1.00  0.00     0.075 C 
HETATM   26  C   UNL     1       7.630  26.516  52.996  1.00  0.00     0.038 C 
HETATM   27  C   UNL     1       7.817  25.166  53.262  1.00  0.00     0.015 C 
HETATM   28  C   UNL     1       7.964  24.710  54.577  1.00  0.00    -0.025 A 
HETATM   29  C   UNL     1       7.860  25.618  55.667  1.00  0.00    -0.015 A 
HETATM   30  C   UNL     1       8.226  23.348  54.807  1.00  0.00     0.012 A 
HETATM   31  C   UNL     1       8.072  25.082  56.959  1.00  0.00     0.013 A 
HETATM   32  C   UNL     1       8.347  23.729  57.173  1.00  0.00     0.001 A 
HETATM   33  C   UNL     1       8.418  22.860  56.097  1.00  0.00     0.001 A 
BRANCH  25  34
HETATM   34  O   UNL     1       7.493  28.739  53.711  1.00  0.00    -0.360 OA
HETATM   35  H   UNL     1       7.478  28.764  52.726  1.00  0.00     0.217 HD
ENDBRANCH  25  34
ENDBRANCH   1  24
TORSDOF 6
ENDMDL
MODEL 6
REMARK VINA RESULT:      -9.8      3.192      7.160
REMARK  6 active torsions:
REMARK  status: ('A' for Active; 'I' for Inactive)
REMARK    1  A    between atoms: C_4  and  C_5 
REMARK    2  A    between atoms: C_5  and  N_6 
REMARK    3  A    between atoms: C_5  and  C_20 
REMARK       I    between atoms: N_6  and  C_7 
REMARK    4  A    between atoms: C_7  and  C_8 
REMARK    5  A    between atoms: C_8  and  N_9 
REMARK    6  A    between atoms: C_21  and  O_22 
ROOT
HETATM    1  C   UNL     1       6.437  26.425  54.918  1.00  0.00     0.154 C 
ENDROOT
BRANCH   1   2
HETATM    2  C   UNL     1       7.406  27.437  55.538  1.00  0.00    -0.031 A 
HETATM    3  C   UNL     1       7.523  27.460  56.944  1.00  0.00     0.009 A 
HETATM    4  C   UNL     1       8.384  28.351  57.588  1.00  0.00     0.001 A 
HETATM    5  C   UNL     1       9.150  29.238  56.839  1.00  0.00     0.000 A 
HETATM    6  C   UNL     1       9.051  29.236  55.451  1.00  0.00     0.001 A 
HETATM    7  C   UNL     1       8.183  28.348  54.805  1.00  0.00     0.009 A 
ENDBRANCH   1   2
BRANCH   1   8
HETATM    8  N   UNL     1       5.418  26.973  54.042  1.00  0.00    -0.347 N 
HETATM    9  C   UNL     1       4.437  27.816  54.525  1.00  0.00     0.236 C 
HETATM   10  O   UNL     1       4.373  28.164  55.705  1.00  0.00    -0.272 OA
HETATM   11  H   UNL     1       5.603  27.019  53.042  1.00  0.00     0.163 HD
BRANCH   9  12
HETATM   12  C   UNL     1       3.404  28.237  53.476  1.00  0.00     0.236 C 
BRANCH  12  13
HETATM   13  N   UNL     1       3.939  29.176  52.522  1.00  0.00    -0.289 N 
HETATM   14  C   UNL     1       4.345  30.486  52.843  1.00  0.00     0.328 A 
HETATM   15  O   UNL     1       4.169  31.064  53.904  1.00  0.00    -0.247 OA
HETATM   16  N   UNL     1       5.007  30.995  51.723  1.00  0.00    -0.306 N 
HETATM   17  C   UNL     1       5.089  29.997  50.758  1.00  0.00     0.063 A 
HETATM   18  H   UNL     1       5.417  31.914  51.677  1.00  0.00     0.171 HD
HETATM   19  C   UNL     1       4.439  28.861  51.249  1.00  0.00     0.066 A 
HETATM   20  C   UNL     1       5.723  30.025  49.538  1.00  0.00     0.032 A 
HETATM   21  C   UNL     1       4.406  27.690  50.522  1.00  0.00     0.032 A 
HETATM   22  C   UNL     1       5.051  27.690  49.278  1.00  0.00     0.002 A 
HETATM   23  C   UNL     1       5.701  28.844  48.791  1.00  0.00     0.002 A 
ENDBRANCH  12  13
ENDBRANCH   9  12
ENDBRANCH   1   8
BRANCH   1  24
HETATM   24  C   UNL     1       7.141  25.233  54.256  1.00  0.00     0.013 C 
HETATM   25  C   UNL     1       7.307  25.244  52.857  1.00  0.00     0.075 C 
HETATM   26  C   UNL     1       7.763  24.135  52.159  1.00  0.00     0.038 C 
HETATM   27  C   UNL     1       8.138  22.995  52.859  1.00  0.00     0.015 C 
HETATM   28  C   UNL     1       8.098  22.969  54.257  1.00  0.00    -0.025 A 
HETATM   29  C   UNL     1       7.611  24.092  54.982  1.00  0.00    -0.015 A 
HETATM   30  C   UNL     1       8.554  21.826  54.936  1.00  0.00     0.012 A 
HETATM   31  C   UNL     1       7.654  24.000  56.394  1.00  0.00     0.013 A 
HETATM   32  C   UNL     1       8.124  22.863  57.057  1.00  0.00     0.001 A 
HETATM   33  C   UNL     1       8.568  21.772  56.328  1.00  0.00     0.001 A 
BRANCH  25  34
HETATM   34  O   UNL     1       7.080  26.372  52.115  1.00  0.00    -0.360 OA
HETATM   35  H   UNL     1       7.469  27.116  52.630  1.00  0.00     0.217 HD
ENDBRANCH  25  34
ENDBRANCH   1  24
TORSDOF 6
ENDMDL
MODEL 7
REMARK VINA RESULT:      -9.7      1.943      7.904
REMARK  6 active torsions:
REMARK  status: ('A' for Active; 'I' for Inactive)
REMARK    1  A    between atoms: C_4  and  C_5 
REMARK    2  A    between atoms: C_5  and  N_6 
REMARK    3  A    between atoms: C_5  and  C_20 
REMARK       I    between atoms: N_6  and  C_7 
REMARK    4  A    between atoms: C_7  and  C_8 
REMARK    5  A    between atoms: C_8  and  N_9 
REMARK    6  A    between atoms: C_21  and  O_22 
ROOT
HETATM    1  C   UNL     1       7.844  27.183  55.694  1.00  0.00     0.154 C 
ENDROOT
BRANCH   1   2
HETATM    2  C   UNL     1       6.531  27.656  55.060  1.00  0.00    -0.031 A 
HETATM    3  C   UNL     1       5.354  27.559  55.834  1.00  0.00     0.009 A 
HETATM    4  C   UNL     1       4.118  27.969  55.331  1.00  0.00     0.001 A 
HETATM    5  C   UNL     1       4.030  28.488  54.044  1.00  0.00     0.000 A 
HETATM    6  C   UNL     1       5.177  28.592  53.261  1.00  0.00     0.001 A 
HETATM    7  C   UNL     1       6.415  28.175  53.762  1.00  0.00     0.009 A 
ENDBRANCH   1   2
BRANCH   1   8
HETATM    8  N   UNL     1       8.283  27.910  56.869  1.00  0.00    -0.347 N 
HETATM    9  C   UNL     1       8.950  29.114  56.758  1.00  0.00     0.236 C 
HETATM   10  O   UNL     1       9.198  29.646  55.675  1.00  0.00    -0.272 OA
HETATM   11  H   UNL     1       7.825  27.727  57.760  1.00  0.00     0.163 HD
BRANCH   9  12
HETATM   12  C   UNL     1       9.402  29.703  58.097  1.00  0.00     0.236 C 
BRANCH  12  13
HETATM   13  N   UNL     1       8.414  30.579  58.675  1.00  0.00    -0.289 N 
HETATM   14  C   UNL     1       7.107  30.737  58.175  1.00  0.00     0.328 A 
HETATM   15  O   UNL     1       6.671  30.296  57.124  1.00  0.00    -0.247 OA
HETATM   16  N   UNL     1       6.395  31.480  59.121  1.00  0.00    -0.306 N 
HETATM   17  C   UNL     1       7.213  31.704  60.223  1.00  0.00     0.063 A 
HETATM   18  H   UNL     1       5.423  31.731  59.028  1.00  0.00     0.171 HD
HETATM   19  C   UNL     1       8.464  31.139  59.962  1.00  0.00     0.066 A 
HETATM   20  C   UNL     1       6.905  32.315  61.416  1.00  0.00     0.032 A 
HETATM   21  C   UNL     1       9.468  31.165  60.905  1.00  0.00     0.032 A 
HETATM   22  C   UNL     1       9.178  31.775  62.132  1.00  0.00     0.002 A 
HETATM   23  C   UNL     1       7.912  32.345  62.385  1.00  0.00     0.002 A 
ENDBRANCH  12  13
ENDBRANCH   9  12
ENDBRANCH   1   8
BRANCH   1  24
HETATM   24  C   UNL     1       7.891  25.668  55.940  1.00  0.00     0.013 C 
HETATM   25  C   UNL     1       7.953  25.207  57.270  1.00  0.00     0.075 C 
HETATM   26  C   UNL     1       8.182  23.875  57.579  1.00  0.00     0.038 C 
HETATM   27  C   UNL     1       8.286  22.944  56.553  1.00  0.00     0.015 C 
HETATM   28  C   UNL     1       8.122  23.330  55.218  1.00  0.00    -0.025 A 
HETATM   29  C   UNL     1       7.909  24.698  54.888  1.00  0.00    -0.015 A 
HETATM   30  C   UNL     1       8.160  22.351  54.210  1.00  0.00     0.012 A 
HETATM   31  C   UNL     1       7.702  24.992  53.520  1.00  0.00     0.013 A 
HETATM   32  C   UNL     1       7.727  24.008  52.528  1.00  0.00     0.001 A 
HETATM   33  C   UNL     1       7.964  22.687  52.873  1.00  0.00     0.001 A 
BRANCH  25  34
HETATM   34  O   UNL     1       7.732  26.043  58.331  1.00  0.00    -0.360 OA
HETATM   35  H   UNL     1       7.941  25.516  59.137  1.00  0.00     0.217 HD
ENDBRANCH  25  34
ENDBRANCH   1  24
TORSDOF 6
ENDMDL
MODEL 8
REMARK VINA RESULT:      -9.7      4.514      6.726
REMARK  6 active torsions:
REMARK  status: ('A' for Active; 'I' for Inactive)
REMARK    1  A    between atoms: C_4  and  C_5 
REMARK    2  A    between atoms: C_5  and  N_6 
REMARK    3  A    between atoms: C_5  and  C_20 
REMARK       I    between atoms: N_6  and  C_7 
REMARK    4  A    between atoms: C_7  and  C_8 
REMARK    5  A    between atoms: C_8  and  N_9 
REMARK    6  A    between atoms: C_21  and  O_22 
ROOT
HETATM    1  C   UNL     1       4.515  27.109  50.978  1.00  0.00     0.154 C 
ENDROOT
BRANCH   1   2
HETATM    2  C   UNL     1       3.971  27.091  49.546  1.00  0.00    -0.031 A 
HETATM    3  C   UNL     1       2.765  27.780  49.291  1.00  0.00     0.009 A 
HETATM    4  C   UNL     1       2.203  27.814  48.013  1.00  0.00     0.001 A 
HETATM    5  C   UNL     1       2.835  27.161  46.960  1.00  0.00     0.000 A 
HETATM    6  C   UNL     1       4.024  26.474  47.187  1.00  0.00     0.001 A 
HETATM    7  C   UNL     1       4.585  26.434  48.468  1.00  0.00     0.009 A 
ENDBRANCH   1   2
BRANCH   1   8
HETATM    8  N   UNL     1       5.840  26.548  51.163  1.00  0.00    -0.347 N 
HETATM    9  C   UNL     1       6.042  25.435  51.954  1.00  0.00     0.236 C 
HETATM   10  O   UNL     1       5.126  24.846  52.531  1.00  0.00    -0.272 OA
HETATM   11  H   UNL     1       6.559  26.749  50.471  1.00  0.00     0.163 HD
BRANCH   9  12
HETATM   12  C   UNL     1       7.511  25.028  52.095  1.00  0.00     0.236 C 
BRANCH  12  13
HETATM   13  N   UNL     1       7.800  24.446  53.382  1.00  0.00    -0.289 N 
HETATM   14  C   UNL     1       7.725  25.146  54.602  1.00  0.00     0.328 A 
HETATM   15  O   UNL     1       7.562  26.347  54.743  1.00  0.00    -0.247 OA
HETATM   16  N   UNL     1       7.851  24.201  55.624  1.00  0.00    -0.306 N 
HETATM   17  C   UNL     1       7.916  22.933  55.056  1.00  0.00     0.063 A 
HETATM   18  H   UNL     1       7.819  24.423  56.606  1.00  0.00     0.171 HD
HETATM   19  C   UNL     1       7.874  23.073  53.667  1.00  0.00     0.066 A 
HETATM   20  C   UNL     1       7.961  21.709  55.682  1.00  0.00     0.032 A 
HETATM   21  C   UNL     1       7.872  21.971  52.840  1.00  0.00     0.032 A 
HETATM   22  C   UNL     1       7.910  20.711  53.452  1.00  0.00     0.002 A 
HETATM   23  C   UNL     1       7.955  20.581  54.856  1.00  0.00     0.002 A 
ENDBRANCH  12  13
ENDBRANCH   9  12
ENDBRANCH   1   8
BRANCH   1  24
HETATM   24  C   UNL     1       4.403  28.481  51.656  1.00  0.00     0.013 C 
HETATM   25  C   UNL     1       3.770  28.559  52.912  1.00  0.00     0.075 C 
HETATM   26  C   UNL     1       3.463  29.772  53.510  1.00  0.00     0.038 C 
HETATM   27  C   UNL     1       3.850  30.955  52.892  1.00  0.00     0.015 C 
HETATM   28  C   UNL     1       4.579  30.933  51.698  1.00  0.00    -0.025 A 
HETATM   29  C   UNL     1       4.880  29.695  51.065  1.00  0.00    -0.015 A 
HETATM   30  C   UNL     1       5.018  32.145  51.138  1.00  0.00     0.012 A 
HETATM   31  C   UNL     1       5.665  29.761  49.889  1.00  0.00     0.013 A 
HETATM   32  C   UNL     1       6.109  30.972  49.351  1.00  0.00     0.001 A 
HETATM   33  C   UNL     1       5.779  32.166  49.972  1.00  0.00     0.001 A 
BRANCH  25  34
HETATM   34  O   UNL     1       3.474  27.437  53.638  1.00  0.00    -0.360 OA
HETATM   35  H   UNL     1       2.527  27.524  53.894  1.00  0.00     0.217 HD
ENDBRANCH  25  34
ENDBRANCH   1  24
TORSDOF 6
ENDMDL
MODEL 9
REMARK VINA RESULT:      -9.7      4.310      9.202
REMARK  6 active torsions:
REMARK  status: ('A' for Active; 'I' for Inactive)
REMARK    1  A    between atoms: C_4  and  C_5 
REMARK    2  A    between atoms: C_5  and  N_6 
REMARK    3  A    between atoms: C_5  and  C_20 
REMARK       I    between atoms: N_6  and  C_7 
REMARK    4  A    between atoms: C_7  and  C_8 
REMARK    5  A    between atoms: C_8  and  N_9 
REMARK    6  A    between atoms: C_21  and  O_22 
ROOT
HETATM    1  C   UNL     1       6.966  31.459  58.665  1.00  0.00     0.154 C 
ENDROOT
BRANCH   1   2
HETATM    2  C   UNL     1       5.742  31.415  57.744  1.00  0.00    -0.031 A 
HETATM    3  C   UNL     1       4.508  31.022  58.305  1.00  0.00     0.009 A 
HETATM    4  C   UNL     1       3.346  30.957  57.534  1.00  0.00     0.001 A 
HETATM    5  C   UNL     1       3.391  31.285  56.183  1.00  0.00     0.000 A 
HETATM    6  C   UNL     1       4.597  31.673  55.606  1.00  0.00     0.001 A 
HETATM    7  C   UNL     1       5.763  31.733  56.376  1.00  0.00     0.009 A 
ENDBRANCH   1   2
BRANCH   1   8
HETATM    8  N   UNL     1       6.709  31.236  60.076  1.00  0.00    -0.347 N 
HETATM    9  C   UNL     1       7.234  32.073  61.039  1.00  0.00     0.236 C 
HETATM   10  O   UNL     1       7.929  33.054  60.770  1.00  0.00    -0.272 OA
HETATM   11  H   UNL     1       5.894  30.689  60.346  1.00  0.00     0.163 HD
BRANCH   9  12
HETATM   12  C   UNL     1       6.923  31.644  62.476  1.00  0.00     0.236 C 
BRANCH  12  13
HETATM   13  N   UNL     1       5.910  32.468  63.089  1.00  0.00    -0.289 N 
HETATM   14  C   UNL     1       4.550  32.454  62.723  1.00  0.00     0.328 A 
HETATM   15  O   UNL     1       4.060  31.881  61.763  1.00  0.00    -0.247 OA
HETATM   16  N   UNL     1       3.862  33.203  63.681  1.00  0.00    -0.306 N 
HETATM   17  C   UNL     1       4.758  33.602  64.667  1.00  0.00     0.063 A 
HETATM   18  H   UNL     1       2.865  33.350  63.675  1.00  0.00     0.171 HD
HETATM   19  C   UNL     1       6.029  33.141  64.315  1.00  0.00     0.066 A 
HETATM   20  C   UNL     1       4.508  34.283  65.836  1.00  0.00     0.032 A 
HETATM   21  C   UNL     1       7.114  33.347  65.139  1.00  0.00     0.032 A 
HETATM   22  C   UNL     1       6.886  34.032  66.340  1.00  0.00     0.002 A 
HETATM   23  C   UNL     1       5.598  34.496  66.684  1.00  0.00     0.002 A 
ENDBRANCH  12  13
ENDBRANCH   9  12
ENDBRANCH   1   8
BRANCH   1  24
HETATM   24  C   UNL     1       8.129  30.584  58.177  1.00  0.00     0.013 C 
HETATM   25  C   UNL     1       9.426  31.132  58.178  1.00  0.00     0.075 C 
HETATM   26  C   UNL     1      10.501  30.485  57.587  1.00  0.00     0.038 C 
HETATM   27  C   UNL     1      10.319  29.223  57.036  1.00  0.00     0.015 C 
HETATM   28  C   UNL     1       9.076  28.585  57.106  1.00  0.00    -0.025 A 
HETATM   29  C   UNL     1       7.961  29.248  57.690  1.00  0.00    -0.015 A 
HETATM   30  C   UNL     1       8.945  27.278  56.604  1.00  0.00     0.012 A 
HETATM   31  C   UNL     1       6.756  28.510  57.767  1.00  0.00     0.013 A 
HETATM   32  C   UNL     1       6.642  27.206  57.277  1.00  0.00     0.001 A 
HETATM   33  C   UNL     1       7.736  26.592  56.689  1.00  0.00     0.001 A 
BRANCH  25  34
HETATM   34  O   UNL     1       9.708  32.312  58.813  1.00  0.00    -0.360 OA
HETATM   35  H   UNL     1      10.688  32.407  58.782  1.00  0.00     0.217 HD
ENDBRANCH  25  34
ENDBRANCH   1  24
TORSDOF 6
ENDMDL
MODEL 10
REMARK VINA RESULT:      -9.6      1.295      2.018
REMARK  6 active torsions:
REMARK  status: ('A' for Active; 'I' for Inactive)
REMARK    1  A    between atoms: C_4  and  C_5 
REMARK    2  A    between atoms: C_5  and  N_6 
REMARK    3  A    between atoms: C_5  and  C_20 
REMARK       I    between atoms: N_6  and  C_7 
REMARK    4  A    between atoms: C_7  and  C_8 
REMARK    5  A    between atoms: C_8  and  N_9 
REMARK    6  A    between atoms: C_21  and  O_22 
ROOT
HETATM    1  C   UNL     1       6.480  28.847  56.895  1.00  0.00     0.154 C 
ENDROOT
BRANCH   1   2
HETATM    2  C   UNL     1       5.345  29.847  56.654  1.00  0.00    -0.031 A 
HETATM    3  C   UNL     1       5.259  30.452  55.382  1.00  0.00     0.009 A 
HETATM    4  C   UNL     1       4.254  31.373  55.080  1.00  0.00     0.001 A 
HETATM    5  C   UNL     1       3.308  31.707  56.043  1.00  0.00     0.000 A 
HETATM    6  C   UNL     1       3.372  31.125  57.306  1.00  0.00     0.001 A 
HETATM    7  C   UNL     1       4.383  30.207  57.611  1.00  0.00     0.009 A 
ENDBRANCH   1   2
BRANCH   1   8
HETATM    8  N   UNL     1       6.482  27.668  56.051  1.00  0.00    -0.347 N 
HETATM    9  C   UNL     1       5.576  26.645  56.250  1.00  0.00     0.236 C 
HETATM   10  O   UNL     1       4.714  26.672  57.129  1.00  0.00    -0.272 OA
HETATM   11  H   UNL     1       6.904  27.726  55.126  1.00  0.00     0.163 HD
BRANCH   9  12
HETATM   12  C   UNL     1       5.771  25.448  55.314  1.00  0.00     0.236 C 
BRANCH  12  13
HETATM   13  N   UNL     1       7.019  24.764  55.548  1.00  0.00    -0.289 N 
HETATM   14  C   UNL     1       7.695  24.751  56.783  1.00  0.00     0.328 A 
HETATM   15  O   UNL     1       7.425  25.419  57.768  1.00  0.00    -0.247 OA
HETATM   16  N   UNL     1       8.725  23.812  56.675  1.00  0.00    -0.306 N 
HETATM   17  C   UNL     1       8.638  23.193  55.433  1.00  0.00     0.063 A 
HETATM   18  H   UNL     1       9.364  23.586  57.420  1.00  0.00     0.171 HD
HETATM   19  C   UNL     1       7.576  23.768  54.730  1.00  0.00     0.066 A 
HETATM   20  C   UNL     1       9.390  22.155  54.932  1.00  0.00     0.032 A 
HETATM   21  C   UNL     1       7.221  23.313  53.479  1.00  0.00     0.032 A 
HETATM   22  C   UNL     1       7.966  22.252  52.948  1.00  0.00     0.002 A 
HETATM   23  C   UNL     1       9.039  21.681  53.665  1.00  0.00     0.002 A 
ENDBRANCH  12  13
ENDBRANCH   9  12
ENDBRANCH   1   8
BRANCH   1  24
HETATM   24  C   UNL     1       7.870  29.499  56.924  1.00  0.00     0.013 C 
HETATM   25  C   UNL     1       8.741  29.268  55.842  1.00  0.00     0.075 C 
HETATM   26  C   UNL     1      10.071  29.662  55.868  1.00  0.00     0.038 C 
HETATM   27  C   UNL     1      10.552  30.369  56.963  1.00  0.00     0.015 C 
HETATM   28  C   UNL     1       9.702  30.721  58.017  1.00  0.00    -0.025 A 
HETATM   29  C   UNL     1       8.341  30.303  58.011  1.00  0.00    -0.015 A 
HETATM   30  C   UNL     1      10.204  31.499  59.074  1.00  0.00     0.012 A 
HETATM   31  C   UNL     1       7.540  30.747  59.089  1.00  0.00     0.013 A 
HETATM   32  C   UNL     1       8.047  31.533  60.127  1.00  0.00     0.001 A 
HETATM   33  C   UNL     1       9.382  31.904  60.123  1.00  0.00     0.001 A 
BRANCH  25  34
HETATM   34  O   UNL     1       8.306  28.692  54.679  1.00  0.00    -0.360 OA
HETATM   35  H   UNL     1       8.929  27.952  54.495  1.00  0.00     0.217 HD
ENDBRANCH  25  34
ENDBRANCH   1  24
TORSDOF 6
ENDMDL
