MODEL 1
REMARK VINA RESULT:     -10.4      0.000      0.000
REMARK  6 active torsions:
REMARK  status: ('A' for Active; 'I' for Inactive)
REMARK    1  A    between atoms: C_3  and  N_4 
REMARK       I    between atoms: N_4  and  C_5 
REMARK    2  A    between atoms: C_5  and  C_6 
REMARK    3  A    between atoms: C_14  and  N_15 
REMARK       I    between atoms: N_15  and  C_16 
REMARK       I    between atoms: C_16  and  N_17 
REMARK    4  A    between atoms: N_17  and  C_18 
REMARK    5  A    between atoms: C_18  and  C_19 
REMARK    6  A    between atoms: C_19  and  N_20 
ROOT
HETATM    1  N   UNL     1       7.712  28.574  54.650  1.00  0.00    -0.309 N 
HETATM    2  C   UNL     1       7.553  27.316  54.172  1.00  0.00     0.321 C 
HETATM    3  N   UNL     1       6.776  26.460  54.880  1.00  0.00    -0.337 N 
HETATM    4  O   UNL     1       8.028  26.998  53.082  1.00  0.00    -0.247 OA
HETATM    5  H   UNL     1       8.053  29.219  53.945  1.00  0.00     0.170 HD
HETATM    6  H   UNL     1       6.240  26.873  55.636  1.00  0.00     0.164 HD
ENDROOT
BRANCH   1   7
HETATM    7  C   UNL     1       7.724  29.074  55.968  1.00  0.00     0.036 A 
HETATM    8  C   UNL     1       8.805  28.966  56.837  1.00  0.00     0.032 A 
HETATM    9  C   UNL     1       8.764  29.570  58.101  1.00  0.00     0.032 A 
HETATM   10  C   UNL     1       7.649  30.305  58.519  1.00  0.00     0.041 A 
HETATM   11  C   UNL     1       6.549  30.418  57.647  1.00  0.00    -0.033 A 
HETATM   12  C   UNL     1       5.314  31.203  58.006  1.00  0.00     0.050 C 
HETATM   13  C   UNL     1       6.607  29.809  56.378  1.00  0.00     0.038 A 
BRANCH  10  14
HETATM   14  N   UNL     1       7.595  30.958  59.768  1.00  0.00    -0.321 N 
HETATM   15  C   UNL     1       8.277  32.086  60.193  1.00  0.00     0.279 C 
HETATM   16  O   UNL     1       9.099  32.712  59.533  1.00  0.00    -0.265 OA
HETATM   17  H   UNL     1       6.944  30.599  60.458  1.00  0.00     0.169 HD
BRANCH  15  18
HETATM   18  C   UNL     1       7.901  32.480  61.540  1.00  0.00     0.142 A 
HETATM   19  O   UNL     1       6.919  33.425  61.712  1.00  0.00    -0.317 OA
HETATM   20  C   UNL     1       6.768  33.607  63.050  1.00  0.00     0.143 A 
HETATM   21  C   UNL     1       7.639  32.803  63.747  1.00  0.00     0.027 A 
HETATM   22  C   UNL     1       8.367  32.074  62.776  1.00  0.00     0.045 A 
ENDBRANCH  15  18
ENDBRANCH  10  14
ENDBRANCH   1   7
BRANCH   3  23
HETATM   23  C   UNL     1       6.669  25.011  54.675  1.00  0.00     0.108 C 
HETATM   24  C   UNL     1       5.440  24.686  53.831  1.00  0.00     0.034 C 
BRANCH  23  25
HETATM   25  C   UNL     1       6.826  24.128  55.951  1.00  0.00     0.259 C 
BRANCH  25  26
HETATM   26  N   UNL     1       7.284  22.703  55.709  1.00  0.00    -0.069 N 
HETATM   27  H   UNL     1       6.448  22.108  55.896  1.00  0.00     0.280 HD
HETATM   28  C   UNL     1       7.719  22.405  54.298  1.00  0.00     0.239 C 
HETATM   29  C   UNL     1       7.919  20.896  54.138  1.00  0.00     0.007 C 
HETATM   30  C   UNL     1       8.960  20.385  55.139  1.00  0.00     0.007 C 
HETATM   31  C   UNL     1       8.329  20.556  52.707  1.00  0.00     0.011 C 
HETATM   32  C   UNL     1       8.579  20.763  56.566  1.00  0.00     0.028 C 
HETATM   33  C   UNL     1       8.318  22.257  56.715  1.00  0.00     0.235 C 
ENDBRANCH  25  26
ENDBRANCH  23  25
ENDBRANCH   3  23
TORSDOF 6
ENDMDL
MODEL 2
REMARK VINA RESULT:      -9.9      2.197      3.698
REMARK  6 active torsions:
REMARK  status: ('A' for Active; 'I' for Inactive)
REMARK    1  A    between atoms: C_3  and  N_4 
REMARK       I    between atoms: N_4  and  C_5 
REMARK    2  A    between atoms: C_5  and  C_6 
REMARK    3  A    between atoms: C_14  and  N_15 
REMARK       I    between atoms: N_15  and  C_16 
REMARK       I    between atoms: C_16  and  N_17 
REMARK    4  A    between atoms: N_17  and  C_18 
REMARK    5  A    between atoms: C_18  and  C_19 
REMARK    6  A    between atoms: C_19  and  N_20 
ROOT
HETATM    1  N   UNL     1       7.771  30.085  57.104  1.00  0.00    -0.309 N 
HETATM    2  C   UNL     1       7.599  28.787  56.756  1.00  0.00     0.321 C 
HETATM    3  N   UNL     1       6.564  28.111  57.314  1.00  0.00    -0.337 N 
HETATM    4  O   UNL     1       8.308  28.273  55.891  1.00  0.00    -0.247 OA
HETATM    5  H   UNL     1       8.363  30.588  56.452  1.00  0.00     0.170 HD
HETATM    6  H   UNL     1       5.898  28.674  57.833  1.00  0.00     0.164 HD
ENDROOT
BRANCH   1   7
HETATM    7  C   UNL     1       7.489  30.773  58.301  1.00  0.00     0.036 A 
HETATM    8  C   UNL     1       6.396  31.616  58.481  1.00  0.00     0.032 A 
HETATM    9  C   UNL     1       6.141  32.191  59.734  1.00  0.00     0.032 A 
HETATM   10  C   UNL     1       6.964  31.929  60.835  1.00  0.00     0.041 A 
HETATM   11  C   UNL     1       8.073  31.078  60.662  1.00  0.00    -0.033 A 
HETATM   12  C   UNL     1       9.002  30.726  61.795  1.00  0.00     0.050 C 
HETATM   13  C   UNL     1       8.313  30.504  59.398  1.00  0.00     0.038 A 
BRANCH  10  14
HETATM   14  N   UNL     1       6.709  32.460  62.117  1.00  0.00    -0.321 N 
HETATM   15  C   UNL     1       5.721  32.116  63.024  1.00  0.00     0.279 C 
HETATM   16  O   UNL     1       4.848  31.276  62.840  1.00  0.00    -0.265 OA
HETATM   17  H   UNL     1       7.348  33.166  62.467  1.00  0.00     0.169 HD
BRANCH  15  18
HETATM   18  C   UNL     1       5.831  32.863  64.265  1.00  0.00     0.142 A 
HETATM   19  O   UNL     1       4.695  33.131  64.990  1.00  0.00    -0.317 OA
HETATM   20  C   UNL     1       5.077  33.834  66.087  1.00  0.00     0.143 A 
HETATM   21  C   UNL     1       6.437  34.034  66.083  1.00  0.00     0.027 A 
HETATM   22  C   UNL     1       6.925  33.406  64.911  1.00  0.00     0.045 A 
ENDBRANCH  15  18
ENDBRANCH  10  14
ENDBRANCH   1   7
BRANCH   3  23
HETATM   23  C   UNL     1       6.345  26.661  57.263  1.00  0.00     0.108 C 
HETATM   24  C   UNL     1       7.589  25.922  57.748  1.00  0.00     0.034 C 
BRANCH  23  25
HETATM   25  C   UNL     1       5.744  26.107  55.934  1.00  0.00     0.259 C 
BRANCH  25  26
HETATM   26  N   UNL     1       6.744  25.517  54.959  1.00  0.00    -0.069 N 
HETATM   27  H   UNL     1       7.682  25.753  55.349  1.00  0.00     0.280 HD
HETATM   28  C   UNL     1       6.696  24.017  54.829  1.00  0.00     0.239 C 
HETATM   29  C   UNL     1       7.900  23.541  54.013  1.00  0.00     0.007 C 
HETATM   30  C   UNL     1       7.905  24.200  52.630  1.00  0.00     0.007 C 
HETATM   31  C   UNL     1       7.900  22.019  53.889  1.00  0.00     0.011 C 
HETATM   32  C   UNL     1       7.857  25.720  52.748  1.00  0.00     0.028 C 
HETATM   33  C   UNL     1       6.695  26.194  53.611  1.00  0.00     0.235 C 
ENDBRANCH  25  26
ENDBRANCH  23  25
ENDBRANCH   3  23
TORSDOF 6
ENDMDL
MODEL 3
REMARK VINA RESULT:      -9.3      1.999      2.731
REMARK  6 active torsions:
REMARK  status: ('A' for Active; 'I' for Inactive)
REMARK    1  A    between atoms: C_3  and  N_4 
REMARK       I    between atoms: N_4  and  C_5 
REMARK    2  A    between atoms: C_5  and  C_6 
REMARK    3  A    between atoms: C_14  and  N_15 
REMARK       I    between atoms: N_15  and  C_16 
REMARK       I    between atoms: C_16  and  N_17 
REMARK    4  A    between atoms: N_17  and  C_18 
REMARK    5  A    between atoms: C_18  and  C_19 
REMARK    6  A    between atoms: C_19  and  N_20 
ROOT
HETATM    1  N   UNL     1       4.054  28.846  53.821  1.00  0.00    -0.309 N 
HETATM    2  C   UNL     1       4.372  27.899  52.906  1.00  0.00     0.321 C 
HETATM    3  N   UNL     1       5.019  26.789  53.339  1.00  0.00    -0.337 N 
HETATM    4  O   UNL     1       3.999  28.010  51.738  1.00  0.00    -0.247 OA
HETATM    5  H   UNL     1       3.342  29.487  53.489  1.00  0.00     0.170 HD
HETATM    6  H   UNL     1       5.079  26.677  54.345  1.00  0.00     0.164 HD
ENDROOT
BRANCH   1   7
HETATM    7  C   UNL     1       4.692  29.238  55.016  1.00  0.00     0.036 A 
HETATM    8  C   UNL     1       4.022  29.603  56.179  1.00  0.00     0.032 A 
HETATM    9  C   UNL     1       4.736  29.892  57.350  1.00  0.00     0.032 A 
HETATM   10  C   UNL     1       6.132  29.814  57.388  1.00  0.00     0.041 A 
HETATM   11  C   UNL     1       6.820  29.448  56.214  1.00  0.00    -0.033 A 
HETATM   12  C   UNL     1       8.321  29.321  56.167  1.00  0.00     0.050 C 
HETATM   13  C   UNL     1       6.088  29.154  55.047  1.00  0.00     0.038 A 
BRANCH  10  14
HETATM   14  N   UNL     1       6.875  30.060  58.561  1.00  0.00    -0.321 N 
HETATM   15  C   UNL     1       7.235  31.271  59.129  1.00  0.00     0.279 C 
HETATM   16  O   UNL     1       6.980  32.377  58.666  1.00  0.00    -0.265 OA
HETATM   17  H   UNL     1       7.165  29.258  59.110  1.00  0.00     0.169 HD
BRANCH  15  18
HETATM   18  C   UNL     1       7.957  31.099  60.378  1.00  0.00     0.142 A 
HETATM   19  O   UNL     1       7.331  31.407  61.562  1.00  0.00    -0.317 OA
HETATM   20  C   UNL     1       8.219  31.160  62.559  1.00  0.00     0.143 A 
HETATM   21  C   UNL     1       9.410  30.706  62.044  1.00  0.00     0.027 A 
HETATM   22  C   UNL     1       9.242  30.663  60.639  1.00  0.00     0.045 A 
ENDBRANCH  15  18
ENDBRANCH  10  14
ENDBRANCH   1   7
BRANCH   3  23
HETATM   23  C   UNL     1       5.659  25.773  52.495  1.00  0.00     0.108 C 
HETATM   24  C   UNL     1       4.711  24.598  52.274  1.00  0.00     0.034 C 
BRANCH  23  25
HETATM   25  C   UNL     1       7.109  25.364  52.900  1.00  0.00     0.259 C 
BRANCH  25  26
HETATM   26  N   UNL     1       7.235  24.046  53.639  1.00  0.00    -0.069 N 
HETATM   27  H   UNL     1       6.256  23.725  53.801  1.00  0.00     0.280 HD
HETATM   28  C   UNL     1       7.927  22.950  52.871  1.00  0.00     0.239 C 
HETATM   29  C   UNL     1       7.771  21.627  53.625  1.00  0.00     0.007 C 
HETATM   30  C   UNL     1       8.353  21.743  55.037  1.00  0.00     0.007 C 
HETATM   31  C   UNL     1       8.434  20.487  52.856  1.00  0.00     0.011 C 
HETATM   32  C   UNL     1       7.728  22.911  55.793  1.00  0.00     0.028 C 
HETATM   33  C   UNL     1       7.827  24.218  55.017  1.00  0.00     0.235 C 
ENDBRANCH  25  26
ENDBRANCH  23  25
ENDBRANCH   3  23
TORSDOF 6
ENDMDL
MODEL 4
REMARK VINA RESULT:      -9.1      2.291     10.147
REMARK  6 active torsions:
REMARK  status: ('A' for Active; 'I' for Inactive)
REMARK    1  A    between atoms: C_3  and  N_4 
REMARK       I    between atoms: N_4  and  C_5 
REMARK    2  A    between atoms: C_5  and  C_6 
REMARK    3  A    between atoms: C_14  and  N_15 
REMARK       I    between atoms: N_15  and  C_16 
REMARK       I    between atoms: C_16  and  N_17 
REMARK    4  A    between atoms: N_17  and  C_18 
REMARK    5  A    between atoms: C_18  and  C_19 
REMARK    6  A    between atoms: C_19  and  N_20 
ROOT
HETATM    1  N   UNL     1       5.756  30.086  56.652  1.00  0.00    -0.309 N 
HETATM    2  C   UNL     1       6.272  30.939  57.570  1.00  0.00     0.321 C 
HETATM    3  N   UNL     1       7.599  30.863  57.834  1.00  0.00    -0.337 N 
HETATM    4  O   UNL     1       5.567  31.813  58.074  1.00  0.00    -0.247 OA
HETATM    5  H   UNL     1       4.850  30.384  56.307  1.00  0.00     0.170 HD
HETATM    6  H   UNL     1       8.141  30.276  57.208  1.00  0.00     0.164 HD
ENDROOT
BRANCH   1   7
HETATM    7  C   UNL     1       6.127  28.774  56.290  1.00  0.00     0.036 A 
HETATM    8  C   UNL     1       7.228  28.462  55.499  1.00  0.00     0.032 A 
HETATM    9  C   UNL     1       7.575  27.125  55.261  1.00  0.00     0.032 A 
HETATM   10  C   UNL     1       6.838  26.073  55.813  1.00  0.00     0.041 A 
HETATM   11  C   UNL     1       5.719  26.379  56.613  1.00  0.00    -0.033 A 
HETATM   12  C   UNL     1       4.877  25.312  57.263  1.00  0.00     0.050 C 
HETATM   13  C   UNL     1       5.386  27.728  56.848  1.00  0.00     0.038 A 
BRANCH  10  14
HETATM   14  N   UNL     1       7.187  24.719  55.624  1.00  0.00    -0.321 N 
HETATM   15  C   UNL     1       8.034  23.923  56.376  1.00  0.00     0.279 C 
HETATM   16  O   UNL     1       8.673  24.291  57.356  1.00  0.00    -0.265 OA
HETATM   17  H   UNL     1       6.738  24.221  54.863  1.00  0.00     0.169 HD
BRANCH  15  18
HETATM   18  C   UNL     1       8.086  22.557  55.883  1.00  0.00     0.142 A 
HETATM   19  O   UNL     1       8.666  21.585  56.661  1.00  0.00    -0.317 OA
HETATM   20  C   UNL     1       8.583  20.418  55.971  1.00  0.00     0.143 A 
HETATM   21  C   UNL     1       7.967  20.618  54.758  1.00  0.00     0.027 A 
HETATM   22  C   UNL     1       7.644  21.995  54.701  1.00  0.00     0.045 A 
ENDBRANCH  15  18
ENDBRANCH  10  14
ENDBRANCH   1   7
BRANCH   3  23
HETATM   23  C   UNL     1       8.303  31.515  58.944  1.00  0.00     0.108 C 
HETATM   24  C   UNL     1       9.801  31.566  58.663  1.00  0.00     0.034 C 
BRANCH  23  25
HETATM   25  C   UNL     1       7.933  31.014  60.375  1.00  0.00     0.259 C 
BRANCH  25  26
HETATM   26  N   UNL     1       7.744  32.096  61.420  1.00  0.00    -0.069 N 
HETATM   27  H   UNL     1       8.507  32.785  61.244  1.00  0.00     0.280 HD
HETATM   28  C   UNL     1       6.447  32.854  61.324  1.00  0.00     0.239 C 
HETATM   29  C   UNL     1       6.494  34.058  62.267  1.00  0.00     0.007 C 
HETATM   30  C   UNL     1       6.742  33.601  63.708  1.00  0.00     0.007 C 
HETATM   31  C   UNL     1       5.203  34.869  62.170  1.00  0.00     0.011 C 
HETATM   32  C   UNL     1       8.005  32.751  63.802  1.00  0.00     0.028 C 
HETATM   33  C   UNL     1       7.988  31.587  62.820  1.00  0.00     0.235 C 
ENDBRANCH  25  26
ENDBRANCH  23  25
ENDBRANCH   3  23
TORSDOF 6
ENDMDL
MODEL 5
REMARK VINA RESULT:      -9.0      1.752      2.291
REMARK  6 active torsions:
REMARK  status: ('A' for Active; 'I' for Inactive)
REMARK    1  A    between atoms: C_3  and  N_4 
REMARK       I    between atoms: N_4  and  C_5 
REMARK    2  A    between atoms: C_5  and  C_6 
REMARK    3  A    between atoms: C_14  and  N_15 
REMARK       I    between atoms: N_15  and  C_16 
REMARK       I    between atoms: C_16  and  N_17 
REMARK    4  A    between atoms: N_17  and  C_18 
REMARK    5  A    between atoms: C_18  and  C_19 
REMARK    6  A    between atoms: C_19  and  N_20 
ROOT
HETATM    1  N   UNL     1       6.199  29.737  55.410  1.00  0.00    -0.309 N 
HETATM    2  C   UNL     1       6.214  28.409  55.144  1.00  0.00     0.321 C 
HETATM    3  N   UNL     1       5.736  27.564  56.090  1.00  0.00    -0.337 N 
HETATM    4  O   UNL     1       6.567  27.999  54.038  1.00  0.00    -0.247 OA
HETATM    5  H   UNL     1       6.296  30.305  54.575  1.00  0.00     0.170 HD
HETATM    6  H   UNL     1       5.255  28.001  56.869  1.00  0.00     0.164 HD
ENDROOT
BRANCH   1   7
HETATM    7  C   UNL     1       6.319  30.444  56.625  1.00  0.00     0.036 A 
HETATM    8  C   UNL     1       5.398  31.383  57.078  1.00  0.00     0.032 A 
HETATM    9  C   UNL     1       5.549  31.974  58.340  1.00  0.00     0.032 A 
HETATM   10  C   UNL     1       6.615  31.633  59.180  1.00  0.00     0.041 A 
HETATM   11  C   UNL     1       7.553  30.685  58.728  1.00  0.00    -0.033 A 
HETATM   12  C   UNL     1       8.722  30.244  59.571  1.00  0.00     0.050 C 
HETATM   13  C   UNL     1       7.385  30.095  57.459  1.00  0.00     0.038 A 
BRANCH  10  14
HETATM   14  N   UNL     1       6.770  32.181  60.470  1.00  0.00    -0.321 N 
HETATM   15  C   UNL     1       5.813  32.399  61.447  1.00  0.00     0.279 C 
HETATM   16  O   UNL     1       4.614  32.169  61.333  1.00  0.00    -0.265 OA
HETATM   17  H   UNL     1       7.710  32.419  60.768  1.00  0.00     0.169 HD
BRANCH  15  18
HETATM   18  C   UNL     1       6.389  32.932  62.670  1.00  0.00     0.142 A 
HETATM   19  O   UNL     1       5.714  33.913  63.357  1.00  0.00    -0.317 OA
HETATM   20  C   UNL     1       6.464  34.227  64.444  1.00  0.00     0.143 A 
HETATM   21  C   UNL     1       7.615  33.475  64.471  1.00  0.00     0.027 A 
HETATM   22  C   UNL     1       7.566  32.638  63.330  1.00  0.00     0.045 A 
ENDBRANCH  15  18
ENDBRANCH  10  14
ENDBRANCH   1   7
BRANCH   3  23
HETATM   23  C   UNL     1       5.881  26.105  56.105  1.00  0.00     0.108 C 
HETATM   24  C   UNL     1       4.936  25.490  57.133  1.00  0.00     0.034 C 
BRANCH  23  25
HETATM   25  C   UNL     1       7.343  25.564  56.169  1.00  0.00     0.259 C 
BRANCH  25  26
HETATM   26  N   UNL     1       7.498  24.069  55.974  1.00  0.00    -0.069 N 
HETATM   27  H   UNL     1       6.561  23.663  56.191  1.00  0.00     0.280 HD
HETATM   28  C   UNL     1       7.838  23.642  54.571  1.00  0.00     0.239 C 
HETATM   29  C   UNL     1       7.724  22.119  54.462  1.00  0.00     0.007 C 
HETATM   30  C   UNL     1       8.656  21.440  55.471  1.00  0.00     0.007 C 
HETATM   31  C   UNL     1       8.032  21.656  53.040  1.00  0.00     0.011 C 
HETATM   32  C   UNL     1       8.385  21.935  56.887  1.00  0.00     0.028 C 
HETATM   33  C   UNL     1       8.436  23.454  56.985  1.00  0.00     0.235 C 
ENDBRANCH  25  26
ENDBRANCH  23  25
ENDBRANCH   3  23
TORSDOF 6
ENDMDL
MODEL 6
REMARK VINA RESULT:      -8.8      2.075     10.614
REMARK  6 active torsions:
REMARK  status: ('A' for Active; 'I' for Inactive)
REMARK    1  A    between atoms: C_3  and  N_4 
REMARK       I    between atoms: N_4  and  C_5 
REMARK    2  A    between atoms: C_5  and  C_6 
REMARK    3  A    between atoms: C_14  and  N_15 
REMARK       I    between atoms: N_15  and  C_16 
REMARK       I    between atoms: C_16  and  N_17 
REMARK    4  A    between atoms: N_17  and  C_18 
REMARK    5  A    between atoms: C_18  and  C_19 
REMARK    6  A    between atoms: C_19  and  N_20 
ROOT
HETATM    1  N   UNL     1       6.124  31.137  57.579  1.00  0.00    -0.309 N 
HETATM    2  C   UNL     1       6.399  31.856  58.694  1.00  0.00     0.321 C 
HETATM    3  N   UNL     1       7.640  31.750  59.229  1.00  0.00    -0.337 N 
HETATM    4  O   UNL     1       5.572  32.648  59.146  1.00  0.00    -0.247 OA
HETATM    5  H   UNL     1       5.304  31.478  57.087  1.00  0.00     0.170 HD
HETATM    6  H   UNL     1       8.324  31.259  58.663  1.00  0.00     0.164 HD
ENDROOT
BRANCH   1   7
HETATM    7  C   UNL     1       6.609  29.892  57.131  1.00  0.00     0.036 A 
HETATM    8  C   UNL     1       7.182  28.931  57.959  1.00  0.00     0.032 A 
HETATM    9  C   UNL     1       7.558  27.683  57.444  1.00  0.00     0.032 A 
HETATM   10  C   UNL     1       7.359  27.362  56.097  1.00  0.00     0.041 A 
HETATM   11  C   UNL     1       6.782  28.329  55.251  1.00  0.00    -0.033 A 
HETATM   12  C   UNL     1       6.515  28.066  53.792  1.00  0.00     0.050 C 
HETATM   13  C   UNL     1       6.405  29.578  55.784  1.00  0.00     0.038 A 
BRANCH  10  14
HETATM   14  N   UNL     1       7.689  26.100  55.560  1.00  0.00    -0.321 N 
HETATM   15  C   UNL     1       7.003  24.902  55.661  1.00  0.00     0.279 C 
HETATM   16  O   UNL     1       5.963  24.728  56.287  1.00  0.00    -0.265 OA
HETATM   17  H   UNL     1       8.519  26.040  54.979  1.00  0.00     0.169 HD
BRANCH  15  18
HETATM   18  C   UNL     1       7.647  23.835  54.913  1.00  0.00     0.142 A 
HETATM   19  O   UNL     1       8.691  23.151  55.486  1.00  0.00    -0.317 OA
HETATM   20  C   UNL     1       9.104  22.224  54.584  1.00  0.00     0.143 A 
HETATM   21  C   UNL     1       8.352  22.300  53.435  1.00  0.00     0.027 A 
HETATM   22  C   UNL     1       7.411  23.336  53.647  1.00  0.00     0.045 A 
ENDBRANCH  15  18
ENDBRANCH  10  14
ENDBRANCH   1   7
BRANCH   3  23
HETATM   23  C   UNL     1       8.064  32.243  60.544  1.00  0.00     0.108 C 
HETATM   24  C   UNL     1       9.575  32.103  60.700  1.00  0.00     0.034 C 
BRANCH  23  25
HETATM   25  C   UNL     1       7.241  31.726  61.765  1.00  0.00     0.259 C 
BRANCH  25  26
HETATM   26  N   UNL     1       6.848  32.778  62.783  1.00  0.00    -0.069 N 
HETATM   27  H   UNL     1       7.107  33.691  62.351  1.00  0.00     0.280 HD
HETATM   28  C   UNL     1       5.376  32.849  63.090  1.00  0.00     0.239 C 
HETATM   29  C   UNL     1       5.093  34.095  63.933  1.00  0.00     0.007 C 
HETATM   30  C   UNL     1       5.910  34.061  65.229  1.00  0.00     0.007 C 
HETATM   31  C   UNL     1       3.601  34.214  64.235  1.00  0.00     0.011 C 
HETATM   32  C   UNL     1       7.397  33.894  64.934  1.00  0.00     0.028 C 
HETATM   33  C   UNL     1       7.675  32.690  64.044  1.00  0.00     0.235 C 
ENDBRANCH  25  26
ENDBRANCH  23  25
ENDBRANCH   3  23
TORSDOF 6
ENDMDL
MODEL 7
REMARK VINA RESULT:      -8.7      5.514      9.731
REMARK  6 active torsions:
REMARK  status: ('A' for Active; 'I' for Inactive)
REMARK    1  A    between atoms: C_3  and  N_4 
REMARK       I    between atoms: N_4  and  C_5 
REMARK    2  A    between atoms: C_5  and  C_6 
REMARK    3  A    between atoms: C_14  and  N_15 
REMARK       I    between atoms: N_15  and  C_16 
REMARK       I    between atoms: C_16  and  N_17 
REMARK    4  A    between atoms: N_17  and  C_18 
REMARK    5  A    between atoms: C_18  and  C_19 
REMARK    6  A    between atoms: C_19  and  N_20 
ROOT
HETATM    1  N   UNL     1       6.422  28.245  52.807  1.00  0.00    -0.309 N 
HETATM    2  C   UNL     1       6.689  27.499  53.906  1.00  0.00     0.321 C 
HETATM    3  N   UNL     1       6.232  26.224  53.936  1.00  0.00    -0.337 N 
HETATM    4  O   UNL     1       7.405  27.945  54.803  1.00  0.00    -0.247 OA
HETATM    5  H   UNL     1       7.022  29.060  52.732  1.00  0.00     0.170 HD
HETATM    6  H   UNL     1       5.856  25.869  53.063  1.00  0.00     0.164 HD
ENDROOT
BRANCH   1   7
HETATM    7  C   UNL     1       5.332  28.227  51.912  1.00  0.00     0.036 A 
HETATM    8  C   UNL     1       4.194  29.015  52.048  1.00  0.00     0.032 A 
HETATM    9  C   UNL     1       3.197  28.999  51.064  1.00  0.00     0.032 A 
HETATM   10  C   UNL     1       3.319  28.204  49.919  1.00  0.00     0.041 A 
HETATM   11  C   UNL     1       4.467  27.401  49.773  1.00  0.00    -0.033 A 
HETATM   12  C   UNL     1       4.691  26.528  48.566  1.00  0.00     0.050 C 
HETATM   13  C   UNL     1       5.463  27.432  50.769  1.00  0.00     0.038 A 
BRANCH  10  14
HETATM   14  N   UNL     1       2.351  28.198  48.892  1.00  0.00    -0.321 N 
HETATM   15  C   UNL     1       2.262  29.006  47.771  1.00  0.00     0.279 C 
HETATM   16  O   UNL     1       3.029  29.921  47.491  1.00  0.00    -0.265 OA
HETATM   17  H   UNL     1       1.630  27.485  48.932  1.00  0.00     0.169 HD
BRANCH  15  18
HETATM   18  C   UNL     1       1.142  28.643  46.920  1.00  0.00     0.142 A 
HETATM   19  O   UNL     1       0.525  29.617  46.172  1.00  0.00    -0.317 OA
HETATM   20  C   UNL     1      -0.477  29.015  45.480  1.00  0.00     0.143 A 
HETATM   21  C   UNL     1      -0.526  27.672  45.772  1.00  0.00     0.027 A 
HETATM   22  C   UNL     1       0.518  27.431  46.697  1.00  0.00     0.045 A 
ENDBRANCH  15  18
ENDBRANCH  10  14
ENDBRANCH   1   7
BRANCH   3  23
HETATM   23  C   UNL     1       6.201  25.339  55.106  1.00  0.00     0.108 C 
HETATM   24  C   UNL     1       5.451  26.008  56.254  1.00  0.00     0.034 C 
BRANCH  23  25
HETATM   25  C   UNL     1       7.564  24.698  55.514  1.00  0.00     0.259 C 
BRANCH  25  26
HETATM   26  N   UNL     1       7.619  23.184  55.454  1.00  0.00    -0.069 N 
HETATM   27  H   UNL     1       6.636  22.866  55.593  1.00  0.00     0.280 HD
HETATM   28  C   UNL     1       8.074  22.616  54.136  1.00  0.00     0.239 C 
HETATM   29  C   UNL     1       7.853  21.101  54.134  1.00  0.00     0.007 C 
HETATM   30  C   UNL     1       8.613  20.447  55.292  1.00  0.00     0.007 C 
HETATM   31  C   UNL     1       8.274  20.497  52.797  1.00  0.00     0.011 C 
HETATM   32  C   UNL     1       8.231  21.080  56.625  1.00  0.00     0.028 C 
HETATM   33  C   UNL     1       8.391  22.595  56.610  1.00  0.00     0.235 C 
ENDBRANCH  25  26
ENDBRANCH  23  25
ENDBRANCH   3  23
TORSDOF 6
ENDMDL
MODEL 8
REMARK VINA RESULT:      -8.7      3.851      5.812
REMARK  6 active torsions:
REMARK  status: ('A' for Active; 'I' for Inactive)
REMARK    1  A    between atoms: C_3  and  N_4 
REMARK       I    between atoms: N_4  and  C_5 
REMARK    2  A    between atoms: C_5  and  C_6 
REMARK    3  A    between atoms: C_14  and  N_15 
REMARK       I    between atoms: N_15  and  C_16 
REMARK       I    between atoms: C_16  and  N_17 
REMARK    4  A    between atoms: N_17  and  C_18 
REMARK    5  A    between atoms: C_18  and  C_19 
REMARK    6  A    between atoms: C_19  and  N_20 
ROOT
HETATM    1  N   UNL     1       7.013  27.342  54.043  1.00  0.00    -0.309 N 
HETATM    2  C   UNL     1       6.355  27.518  52.872  1.00  0.00     0.321 C 
HETATM    3  N   UNL     1       6.094  28.787  52.473  1.00  0.00    -0.337 N 
HETATM    4  O   UNL     1       6.090  26.553  52.154  1.00  0.00    -0.247 OA
HETATM    5  H   UNL     1       7.416  26.415  54.129  1.00  0.00     0.170 HD
HETATM    6  H   UNL     1       6.549  29.520  53.007  1.00  0.00     0.164 HD
ENDROOT
BRANCH   1   7
HETATM    7  C   UNL     1       7.025  28.107  55.228  1.00  0.00     0.036 A 
HETATM    8  C   UNL     1       5.918  28.294  56.050  1.00  0.00     0.032 A 
HETATM    9  C   UNL     1       6.040  28.996  57.257  1.00  0.00     0.032 A 
HETATM   10  C   UNL     1       7.269  29.516  57.674  1.00  0.00     0.041 A 
HETATM   11  C   UNL     1       8.395  29.334  56.847  1.00  0.00    -0.033 A 
HETATM   12  C   UNL     1       9.762  29.844  57.223  1.00  0.00     0.050 C 
HETATM   13  C   UNL     1       8.258  28.621  55.639  1.00  0.00     0.038 A 
BRANCH  10  14
HETATM   14  N   UNL     1       7.431  30.191  58.902  1.00  0.00    -0.321 N 
HETATM   15  C   UNL     1       7.135  31.506  59.221  1.00  0.00     0.279 C 
HETATM   16  O   UNL     1       6.690  32.344  58.444  1.00  0.00    -0.265 OA
HETATM   17  H   UNL     1       7.772  29.654  59.691  1.00  0.00     0.169 HD
BRANCH  15  18
HETATM   18  C   UNL     1       7.396  31.804  60.619  1.00  0.00     0.142 A 
HETATM   19  O   UNL     1       8.150  30.928  61.362  1.00  0.00    -0.317 OA
HETATM   20  C   UNL     1       8.236  31.440  62.617  1.00  0.00     0.143 A 
HETATM   21  C   UNL     1       7.545  32.625  62.703  1.00  0.00     0.027 A 
HETATM   22  C   UNL     1       7.006  32.863  61.416  1.00  0.00     0.045 A 
ENDBRANCH  15  18
ENDBRANCH  10  14
ENDBRANCH   1   7
BRANCH   3  23
HETATM   23  C   UNL     1       5.198  29.187  51.382  1.00  0.00     0.108 C 
HETATM   24  C   UNL     1       5.095  30.708  51.315  1.00  0.00     0.034 C 
BRANCH  23  25
HETATM   25  C   UNL     1       3.828  28.445  51.316  1.00  0.00     0.259 C 
BRANCH  25  26
HETATM   26  N   UNL     1       3.581  27.637  50.057  1.00  0.00    -0.069 N 
HETATM   27  H   UNL     1       3.411  26.661  50.383  1.00  0.00     0.280 HD
HETATM   28  C   UNL     1       2.365  28.045  49.268  1.00  0.00     0.239 C 
HETATM   29  C   UNL     1       2.100  27.008  48.174  1.00  0.00     0.007 C 
HETATM   30  C   UNL     1       3.317  26.877  47.253  1.00  0.00     0.007 C 
HETATM   31  C   UNL     1       0.852  27.375  47.374  1.00  0.00     0.011 C 
HETATM   32  C   UNL     1       4.576  26.557  48.053  1.00  0.00     0.028 C 
HETATM   33  C   UNL     1       4.808  27.553  49.182  1.00  0.00     0.235 C 
ENDBRANCH  25  26
ENDBRANCH  23  25
ENDBRANCH   3  23
TORSDOF 6
ENDMDL
MODEL 9
REMARK VINA RESULT:      -8.6      5.047      9.492
REMARK  6 active torsions:
REMARK  status: ('A' for Active; 'I' for Inactive)
REMARK    1  A    between atoms: C_3  and  N_4 
REMARK       I    between atoms: N_4  and  C_5 
REMARK    2  A    between atoms: C_5  and  C_6 
REMARK    3  A    between atoms: C_14  and  N_15 
REMARK       I    between atoms: N_15  and  C_16 
REMARK       I    between atoms: C_16  and  N_17 
REMARK    4  A    between atoms: N_17  and  C_18 
REMARK    5  A    between atoms: C_18  and  C_19 
REMARK    6  A    between atoms: C_19  and  N_20 
ROOT
HETATM    1  N   UNL     1       4.699  29.448  54.361  1.00  0.00    -0.309 N 
HETATM    2  C   UNL     1       4.291  30.366  53.451  1.00  0.00     0.321 C 
HETATM    3  N   UNL     1       3.967  29.929  52.209  1.00  0.00    -0.337 N 
HETATM    4  O   UNL     1       4.134  31.542  53.778  1.00  0.00    -0.247 OA
HETATM    5  H   UNL     1       4.645  29.793  55.314  1.00  0.00     0.170 HD
HETATM    6  H   UNL     1       3.904  28.923  52.097  1.00  0.00     0.164 HD
ENDROOT
BRANCH   1   7
HETATM    7  C   UNL     1       5.395  28.232  54.208  1.00  0.00     0.036 A 
HETATM    8  C   UNL     1       6.661  27.984  54.729  1.00  0.00     0.032 A 
HETATM    9  C   UNL     1       7.244  26.715  54.606  1.00  0.00     0.032 A 
HETATM   10  C   UNL     1       6.571  25.665  53.971  1.00  0.00     0.041 A 
HETATM   11  C   UNL     1       5.290  25.907  53.439  1.00  0.00    -0.033 A 
HETATM   12  C   UNL     1       4.486  24.833  52.754  1.00  0.00     0.050 C 
HETATM   13  C   UNL     1       4.716  27.187  53.575  1.00  0.00     0.038 A 
BRANCH  10  14
HETATM   14  N   UNL     1       7.115  24.367  53.868  1.00  0.00    -0.321 N 
HETATM   15  C   UNL     1       7.287  23.412  54.856  1.00  0.00     0.279 C 
HETATM   16  O   UNL     1       7.010  23.556  56.042  1.00  0.00    -0.265 OA
HETATM   17  H   UNL     1       7.388  24.045  52.946  1.00  0.00     0.169 HD
BRANCH  15  18
HETATM   18  C   UNL     1       7.833  22.172  54.331  1.00  0.00     0.142 A 
HETATM   19  O   UNL     1       8.297  21.220  55.207  1.00  0.00    -0.317 OA
HETATM   20  C   UNL     1       8.748  20.178  54.462  1.00  0.00     0.143 A 
HETATM   21  C   UNL     1       8.593  20.440  53.122  1.00  0.00     0.027 A 
HETATM   22  C   UNL     1       8.001  21.723  53.036  1.00  0.00     0.045 A 
ENDBRANCH  15  18
ENDBRANCH  10  14
ENDBRANCH   1   7
BRANCH   3  23
HETATM   23  C   UNL     1       3.740  30.767  51.026  1.00  0.00     0.108 C 
HETATM   24  C   UNL     1       2.313  31.307  51.027  1.00  0.00     0.034 C 
BRANCH  23  25
HETATM   25  C   UNL     1       4.198  30.162  49.663  1.00  0.00     0.259 C 
BRANCH  25  26
HETATM   26  N   UNL     1       3.711  28.756  49.373  1.00  0.00    -0.069 N 
HETATM   27  H   UNL     1       3.225  28.447  50.243  1.00  0.00     0.280 HD
HETATM   28  C   UNL     1       2.707  28.647  48.256  1.00  0.00     0.239 C 
HETATM   29  C   UNL     1       2.125  27.232  48.234  1.00  0.00     0.007 C 
HETATM   30  C   UNL     1       3.241  26.197  48.054  1.00  0.00     0.007 C 
HETATM   31  C   UNL     1       1.077  27.097  47.131  1.00  0.00     0.011 C 
HETATM   32  C   UNL     1       4.314  26.358  49.125  1.00  0.00     0.028 C 
HETATM   33  C   UNL     1       4.851  27.782  49.192  1.00  0.00     0.235 C 
ENDBRANCH  25  26
ENDBRANCH  23  25
ENDBRANCH   3  23
TORSDOF 6
ENDMDL
MODEL 10
REMARK VINA RESULT:      -8.4      2.179      3.555
REMARK  6 active torsions:
REMARK  status: ('A' for Active; 'I' for Inactive)
REMARK    1  A    between atoms: C_3  and  N_4 
REMARK       I    between atoms: N_4  and  C_5 
REMARK    2  A    between atoms: C_5  and  C_6 
REMARK    3  A    between atoms: C_14  and  N_15 
REMARK       I    between atoms: N_15  and  C_16 
REMARK       I    between atoms: C_16  and  N_17 
REMARK    4  A    between atoms: N_17  and  C_18 
REMARK    5  A    between atoms: C_18  and  C_19 
REMARK    6  A    between atoms: C_19  and  N_20 
ROOT
HETATM    1  N   UNL     1       4.476  30.192  55.916  1.00  0.00    -0.309 N 
HETATM    2  C   UNL     1       4.814  28.969  55.442  1.00  0.00     0.321 C 
HETATM    3  N   UNL     1       4.890  27.943  56.325  1.00  0.00    -0.337 N 
HETATM    4  O   UNL     1       4.954  28.785  54.233  1.00  0.00    -0.247 OA
HETATM    5  H   UNL     1       4.165  30.823  55.184  1.00  0.00     0.170 HD
HETATM    6  H   UNL     1       4.534  28.135  57.256  1.00  0.00     0.164 HD
ENDROOT
BRANCH   1   7
HETATM    7  C   UNL     1       4.709  30.803  57.165  1.00  0.00     0.036 A 
HETATM    8  C   UNL     1       3.704  31.203  58.041  1.00  0.00     0.032 A 
HETATM    9  C   UNL     1       4.026  31.721  59.303  1.00  0.00     0.032 A 
HETATM   10  C   UNL     1       5.356  31.841  59.721  1.00  0.00     0.041 A 
HETATM   11  C   UNL     1       6.380  31.441  58.841  1.00  0.00    -0.033 A 
HETATM   12  C   UNL     1       7.838  31.518  59.213  1.00  0.00     0.050 C 
HETATM   13  C   UNL     1       6.040  30.917  57.578  1.00  0.00     0.038 A 
BRANCH  10  14
HETATM   14  N   UNL     1       5.709  32.321  61.000  1.00  0.00    -0.321 N 
HETATM   15  C   UNL     1       5.047  32.161  62.206  1.00  0.00     0.279 C 
HETATM   16  O   UNL     1       3.982  31.574  62.361  1.00  0.00    -0.265 OA
HETATM   17  H   UNL     1       6.586  32.822  61.087  1.00  0.00     0.169 HD
BRANCH  15  18
HETATM   18  C   UNL     1       5.770  32.763  63.313  1.00  0.00     0.142 A 
HETATM   19  O   UNL     1       7.142  32.805  63.274  1.00  0.00    -0.317 OA
HETATM   20  C   UNL     1       7.556  33.409  64.418  1.00  0.00     0.143 A 
HETATM   21  C   UNL     1       6.479  33.752  65.200  1.00  0.00     0.027 A 
HETATM   22  C   UNL     1       5.327  33.339  64.489  1.00  0.00     0.045 A 
ENDBRANCH  15  18
ENDBRANCH  10  14
ENDBRANCH   1   7
BRANCH   3  23
HETATM   23  C   UNL     1       5.462  26.617  56.069  1.00  0.00     0.108 C 
HETATM   24  C   UNL     1       4.858  25.587  57.019  1.00  0.00     0.034 C 
BRANCH  23  25
HETATM   25  C   UNL     1       7.017  26.555  55.956  1.00  0.00     0.259 C 
BRANCH  25  26
HETATM   26  N   UNL     1       7.559  25.682  54.842  1.00  0.00    -0.069 N 
HETATM   27  H   UNL     1       8.578  25.899  54.791  1.00  0.00     0.280 HD
HETATM   28  C   UNL     1       7.445  24.199  55.082  1.00  0.00     0.239 C 
HETATM   29  C   UNL     1       8.238  23.450  54.008  1.00  0.00     0.007 C 
HETATM   30  C   UNL     1       7.721  23.808  52.612  1.00  0.00     0.007 C 
HETATM   31  C   UNL     1       8.171  21.943  54.242  1.00  0.00     0.011 C 
HETATM   32  C   UNL     1       7.741  25.317  52.391  1.00  0.00     0.028 C 
HETATM   33  C   UNL     1       7.005  26.070  53.492  1.00  0.00     0.235 C 
ENDBRANCH  25  26
ENDBRANCH  23  25
ENDBRANCH   3  23
TORSDOF 6
ENDMDL
