MODEL 1
REMARK VINA RESULT:      -8.5      0.000      0.000
REMARK  3 active torsions:
REMARK  status: ('A' for Active; 'I' for Inactive)
REMARK    1  A    between atoms: C_9  and  C_10 
REMARK    2  A    between atoms: C_16  and  C_17 
REMARK       I    between atoms: C_17  and  N_18 
REMARK    3  A    between atoms: N_18  and  C_19 
ROOT
HETATM    1  C   UNL     1       5.160  25.434  52.066  1.00  0.00     0.070 C 
HETATM    2  C   UNL     1       5.118  26.485  53.149  1.00  0.00     0.037 C 
HETATM    3  N   UNL     1       4.545  27.701  52.783  1.00  0.00    -0.191 N 
HETATM    4  C   UNL     1       4.198  28.643  53.683  1.00  0.00     0.735 A 
HETATM    5  N   UNL     1       4.563  28.485  54.990  1.00  0.00    -0.092 N 
HETATM    6  N   UNL     1       4.073  29.487  55.735  1.00  0.00     0.012 NA
HETATM    7  N   UNL     1       3.442  30.269  54.865  1.00  0.00     0.033 NA
HETATM    8  N   UNL     1       3.511  29.755  53.584  1.00  0.00     0.030 NA
HETATM    9  C   UNL     1       5.349  27.366  55.502  1.00  0.00     0.199 C 
HETATM   10  C   UNL     1       5.526  26.294  54.429  1.00  0.00     0.062 C 
HETATM   11  H   UNL     1       4.172  27.778  51.839  1.00  0.00     0.184 HD
ENDROOT
BRANCH  10  12
HETATM   12  C   UNL     1       6.057  25.007  54.949  1.00  0.00     0.256 C 
HETATM   13  N   UNL     1       7.083  24.482  54.197  1.00  0.00    -0.322 N 
HETATM   14  H   UNL     1       7.413  25.025  53.408  1.00  0.00     0.169 HD
HETATM   15  O   UNL     1       5.601  24.562  55.993  1.00  0.00    -0.267 OA
BRANCH  13  16
HETATM   16  C   UNL     1       7.726  23.244  54.411  1.00  0.00     0.052 A 
HETATM   17  C   UNL     1       8.427  22.890  55.561  1.00  0.00     0.145 A 
HETATM   18  N   UNL     1       9.017  21.683  55.753  1.00  0.00    -0.271 NA
HETATM   19  C   UNL     1       8.904  20.781  54.758  1.00  0.00     0.116 A 
HETATM   20  C   UNL     1       8.230  21.032  53.575  1.00  0.00     0.021 A 
HETATM   21  C   UNL     1       7.636  22.282  53.402  1.00  0.00     0.032 A 
ENDBRANCH  13  16
ENDBRANCH  10  12
BRANCH   9  22
HETATM   22  C   UNL     1       6.688  27.846  56.039  1.00  0.00    -0.011 A 
HETATM   23  C   UNL     1       7.064  27.671  57.371  1.00  0.00     0.125 A 
HETATM   24  N   UNL     1       8.222  28.129  57.899  1.00  0.00    -0.272 NA
HETATM   25  C   UNL     1       9.061  28.777  57.065  1.00  0.00     0.116 A 
HETATM   26  C   UNL     1       8.784  29.011  55.729  1.00  0.00     0.020 A 
HETATM   27  C   UNL     1       7.578  28.544  55.214  1.00  0.00     0.012 A 
ENDBRANCH   9  22
TORSDOF 3
ENDMDL
MODEL 2
REMARK VINA RESULT:      -8.3      4.536      8.429
REMARK  3 active torsions:
REMARK  status: ('A' for Active; 'I' for Inactive)
REMARK    1  A    between atoms: C_9  and  C_10 
REMARK    2  A    between atoms: C_16  and  C_17 
REMARK       I    between atoms: C_17  and  N_18 
REMARK    3  A    between atoms: N_18  and  C_19 
ROOT
HETATM    1  C   UNL     1      10.061  30.498  58.043  1.00  0.00     0.070 C 
HETATM    2  C   UNL     1       8.751  29.822  57.716  1.00  0.00     0.037 C 
HETATM    3  N   UNL     1       8.842  28.709  56.883  1.00  0.00    -0.191 N 
HETATM    4  C   UNL     1       7.820  27.847  56.703  1.00  0.00     0.735 A 
HETATM    5  N   UNL     1       6.592  28.151  57.220  1.00  0.00    -0.092 N 
HETATM    6  N   UNL     1       5.731  27.148  56.994  1.00  0.00     0.012 NA
HETATM    7  N   UNL     1       6.435  26.255  56.306  1.00  0.00     0.033 NA
HETATM    8  N   UNL     1       7.738  26.678  56.118  1.00  0.00     0.030 NA
HETATM    9  C   UNL     1       6.277  29.380  57.942  1.00  0.00     0.199 C 
HETATM   10  C   UNL     1       7.546  30.181  58.227  1.00  0.00     0.062 C 
HETATM   11  H   UNL     1       9.772  28.418  56.588  1.00  0.00     0.184 HD
ENDROOT
BRANCH  10  12
HETATM   12  C   UNL     1       7.352  31.286  59.200  1.00  0.00     0.256 C 
HETATM   13  N   UNL     1       7.390  30.885  60.516  1.00  0.00    -0.322 N 
HETATM   14  H   UNL     1       7.589  29.909  60.704  1.00  0.00     0.169 HD
HETATM   15  O   UNL     1       7.240  32.429  58.778  1.00  0.00    -0.267 OA
BRANCH  13  16
HETATM   16  C   UNL     1       7.165  31.701  61.646  1.00  0.00     0.052 A 
HETATM   17  C   UNL     1       5.953  32.305  61.972  1.00  0.00     0.145 A 
HETATM   18  N   UNL     1       5.755  33.067  63.078  1.00  0.00    -0.271 NA
HETATM   19  C   UNL     1       6.809  33.234  63.902  1.00  0.00     0.116 A 
HETATM   20  C   UNL     1       8.054  32.678  63.670  1.00  0.00     0.021 A 
HETATM   21  C   UNL     1       8.231  31.903  62.524  1.00  0.00     0.032 A 
ENDBRANCH  13  16
ENDBRANCH  10  12
BRANCH   9  22
HETATM   22  C   UNL     1       5.253  30.208  57.182  1.00  0.00    -0.011 A 
HETATM   23  C   UNL     1       4.040  30.600  57.748  1.00  0.00     0.125 A 
HETATM   24  N   UNL     1       3.083  31.290  57.089  1.00  0.00    -0.272 NA
HETATM   25  C   UNL     1       3.343  31.627  55.809  1.00  0.00     0.116 A 
HETATM   26  C   UNL     1       4.509  31.284  55.148  1.00  0.00     0.020 A 
HETATM   27  C   UNL     1       5.473  30.559  55.844  1.00  0.00     0.012 A 
ENDBRANCH   9  22
TORSDOF 3
ENDMDL
MODEL 3
REMARK VINA RESULT:      -8.2      2.300      6.951
REMARK  3 active torsions:
REMARK  status: ('A' for Active; 'I' for Inactive)
REMARK    1  A    between atoms: C_9  and  C_10 
REMARK    2  A    between atoms: C_16  and  C_17 
REMARK       I    between atoms: C_17  and  N_18 
REMARK    3  A    between atoms: N_18  and  C_19 
ROOT
HETATM    1  C   UNL     1       9.071  24.821  57.753  1.00  0.00     0.070 C 
HETATM    2  C   UNL     1       8.534  24.089  56.547  1.00  0.00     0.037 C 
HETATM    3  N   UNL     1       9.341  23.064  56.058  1.00  0.00    -0.191 N 
HETATM    4  C   UNL     1       8.903  22.154  55.164  1.00  0.00     0.735 A 
HETATM    5  N   UNL     1       7.679  22.327  54.582  1.00  0.00    -0.092 N 
HETATM    6  N   UNL     1       7.396  21.291  53.777  1.00  0.00     0.012 NA
HETATM    7  N   UNL     1       8.471  20.513  53.847  1.00  0.00     0.033 NA
HETATM    8  N   UNL     1       9.417  21.039  54.708  1.00  0.00     0.030 NA
HETATM    9  C   UNL     1       6.795  23.462  54.829  1.00  0.00     0.199 C 
HETATM   10  C   UNL     1       7.323  24.318  55.978  1.00  0.00     0.062 C 
HETATM   11  H   UNL     1      10.203  22.864  56.562  1.00  0.00     0.184 HD
ENDROOT
BRANCH  10  12
HETATM   12  C   UNL     1       6.345  25.316  56.482  1.00  0.00     0.256 C 
HETATM   13  N   UNL     1       6.556  26.592  56.011  1.00  0.00    -0.322 N 
HETATM   14  H   UNL     1       7.306  26.728  55.344  1.00  0.00     0.169 HD
HETATM   15  O   UNL     1       5.430  24.933  57.198  1.00  0.00    -0.267 OA
BRANCH  13  16
HETATM   16  C   UNL     1       5.832  27.748  56.375  1.00  0.00     0.052 A 
HETATM   17  C   UNL     1       6.213  28.658  57.358  1.00  0.00     0.145 A 
HETATM   18  N   UNL     1       5.512  29.777  57.674  1.00  0.00    -0.271 NA
HETATM   19  C   UNL     1       4.379  30.005  56.979  1.00  0.00     0.116 A 
HETATM   20  C   UNL     1       3.912  29.164  55.984  1.00  0.00     0.021 A 
HETATM   21  C   UNL     1       4.650  28.020  55.683  1.00  0.00     0.032 A 
ENDBRANCH  13  16
ENDBRANCH  10  12
BRANCH   9  22
HETATM   22  C   UNL     1       6.600  24.283  53.565  1.00  0.00    -0.011 A 
HETATM   23  C   UNL     1       7.673  24.803  52.839  1.00  0.00     0.125 A 
HETATM   24  N   UNL     1       7.540  25.580  51.741  1.00  0.00    -0.272 NA
HETATM   25  C   UNL     1       6.284  25.844  51.326  1.00  0.00     0.116 A 
HETATM   26  C   UNL     1       5.150  25.385  51.974  1.00  0.00     0.020 A 
HETATM   27  C   UNL     1       5.314  24.600  53.112  1.00  0.00     0.012 A 
ENDBRANCH   9  22
TORSDOF 3
ENDMDL
MODEL 4
REMARK VINA RESULT:      -7.7      3.019      5.485
REMARK  3 active torsions:
REMARK  status: ('A' for Active; 'I' for Inactive)
REMARK    1  A    between atoms: C_9  and  C_10 
REMARK    2  A    between atoms: C_16  and  C_17 
REMARK       I    between atoms: C_17  and  N_18 
REMARK    3  A    between atoms: N_18  and  C_19 
ROOT
HETATM    1  C   UNL     1       4.258  29.053  54.602  1.00  0.00     0.070 C 
HETATM    2  C   UNL     1       4.597  29.219  53.141  1.00  0.00     0.037 C 
HETATM    3  N   UNL     1       4.580  30.528  52.665  1.00  0.00    -0.191 N 
HETATM    4  C   UNL     1       5.102  30.878  51.471  1.00  0.00     0.735 A 
HETATM    5  N   UNL     1       5.519  29.900  50.613  1.00  0.00    -0.092 N 
HETATM    6  N   UNL     1       6.063  30.444  49.515  1.00  0.00     0.012 NA
HETATM    7  N   UNL     1       5.938  31.755  49.698  1.00  0.00     0.033 NA
HETATM    8  N   UNL     1       5.341  32.039  50.913  1.00  0.00     0.030 NA
HETATM    9  C   UNL     1       5.414  28.467  50.874  1.00  0.00     0.199 C 
HETATM   10  C   UNL     1       4.974  28.211  52.314  1.00  0.00     0.062 C 
HETATM   11  H   UNL     1       4.376  31.268  53.335  1.00  0.00     0.184 HD
ENDROOT
BRANCH  10  12
HETATM   12  C   UNL     1       5.123  26.796  52.744  1.00  0.00     0.256 C 
HETATM   13  N   UNL     1       6.405  26.456  53.112  1.00  0.00    -0.322 N 
HETATM   14  H   UNL     1       7.105  27.189  53.107  1.00  0.00     0.169 HD
HETATM   15  O   UNL     1       4.127  26.088  52.793  1.00  0.00    -0.267 OA
BRANCH  13  16
HETATM   16  C   UNL     1       6.853  25.173  53.492  1.00  0.00     0.052 A 
HETATM   17  C   UNL     1       6.714  24.617  54.762  1.00  0.00     0.145 A 
HETATM   18  N   UNL     1       7.131  23.369  55.097  1.00  0.00    -0.271 NA
HETATM   19  C   UNL     1       7.711  22.636  54.126  1.00  0.00     0.116 A 
HETATM   20  C   UNL     1       7.897  23.094  52.833  1.00  0.00     0.021 A 
HETATM   21  C   UNL     1       7.463  24.381  52.517  1.00  0.00     0.032 A 
ENDBRANCH  13  16
ENDBRANCH  10  12
BRANCH   9  22
HETATM   22  C   UNL     1       4.479  27.802  49.878  1.00  0.00    -0.011 A 
HETATM   23  C   UNL     1       3.189  28.273  49.634  1.00  0.00     0.125 A 
HETATM   24  N   UNL     1       2.310  27.680  48.796  1.00  0.00    -0.272 NA
HETATM   25  C   UNL     1       2.731  26.573  48.150  1.00  0.00     0.116 A 
HETATM   26  C   UNL     1       3.987  26.016  48.322  1.00  0.00     0.020 A 
HETATM   27  C   UNL     1       4.868  26.637  49.204  1.00  0.00     0.012 A 
ENDBRANCH   9  22
TORSDOF 3
ENDMDL
MODEL 5
REMARK VINA RESULT:      -7.6      1.581      2.100
REMARK  3 active torsions:
REMARK  status: ('A' for Active; 'I' for Inactive)
REMARK    1  A    between atoms: C_9  and  C_10 
REMARK    2  A    between atoms: C_16  and  C_17 
REMARK       I    between atoms: C_17  and  N_18 
REMARK    3  A    between atoms: N_18  and  C_19 
ROOT
HETATM    1  C   UNL     1       4.513  26.972  53.174  1.00  0.00     0.070 C 
HETATM    2  C   UNL     1       4.818  28.078  54.155  1.00  0.00     0.037 C 
HETATM    3  N   UNL     1       4.451  29.359  53.748  1.00  0.00    -0.191 N 
HETATM    4  C   UNL     1       4.414  30.410  54.592  1.00  0.00     0.735 A 
HETATM    5  N   UNL     1       4.907  30.267  55.858  1.00  0.00    -0.092 N 
HETATM    6  N   UNL     1       4.723  31.395  56.561  1.00  0.00     0.012 NA
HETATM    7  N   UNL     1       4.149  32.230  55.700  1.00  0.00     0.033 NA
HETATM    8  N   UNL     1       3.951  31.630  54.471  1.00  0.00     0.030 NA
HETATM    9  C   UNL     1       5.519  29.047  56.377  1.00  0.00     0.199 C 
HETATM   10  C   UNL     1       5.343  27.893  55.392  1.00  0.00     0.062 C 
HETATM   11  H   UNL     1       3.981  29.449  52.849  1.00  0.00     0.184 HD
ENDROOT
BRANCH  10  12
HETATM   12  C   UNL     1       5.675  26.562  55.963  1.00  0.00     0.256 C 
HETATM   13  N   UNL     1       6.820  26.002  55.444  1.00  0.00    -0.322 N 
HETATM   14  H   UNL     1       7.349  26.549  54.776  1.00  0.00     0.169 HD
HETATM   15  O   UNL     1       4.969  26.111  56.854  1.00  0.00    -0.267 OA
BRANCH  13  16
HETATM   16  C   UNL     1       7.334  24.722  55.745  1.00  0.00     0.052 A 
HETATM   17  C   UNL     1       8.003  24.380  56.918  1.00  0.00     0.145 A 
HETATM   18  N   UNL     1       8.468  23.135  57.195  1.00  0.00    -0.271 NA
HETATM   19  C   UNL     1       8.256  22.182  56.265  1.00  0.00     0.116 A 
HETATM   20  C   UNL     1       7.603  22.417  55.068  1.00  0.00     0.021 A 
HETATM   21  C   UNL     1       7.140  23.706  54.807  1.00  0.00     0.032 A 
ENDBRANCH  13  16
ENDBRANCH  10  12
BRANCH   9  22
HETATM   22  C   UNL     1       6.984  29.276  56.712  1.00  0.00    -0.011 A 
HETATM   23  C   UNL     1       7.985  29.259  55.740  1.00  0.00     0.125 A 
HETATM   24  N   UNL     1       9.302  29.406  56.005  1.00  0.00    -0.272 NA
HETATM   25  C   UNL     1       9.650  29.597  57.294  1.00  0.00     0.116 A 
HETATM   26  C   UNL     1       8.741  29.625  58.337  1.00  0.00     0.020 A 
HETATM   27  C   UNL     1       7.391  29.455  58.040  1.00  0.00     0.012 A 
ENDBRANCH   9  22
TORSDOF 3
ENDMDL
MODEL 6
REMARK VINA RESULT:      -7.5      2.386      6.991
REMARK  3 active torsions:
REMARK  status: ('A' for Active; 'I' for Inactive)
REMARK    1  A    between atoms: C_9  and  C_10 
REMARK    2  A    between atoms: C_16  and  C_17 
REMARK       I    between atoms: C_17  and  N_18 
REMARK    3  A    between atoms: N_18  and  C_19 
ROOT
HETATM    1  C   UNL     1       7.666  28.971  57.520  1.00  0.00     0.070 C 
HETATM    2  C   UNL     1       7.480  27.575  56.978  1.00  0.00     0.037 C 
HETATM    3  N   UNL     1       8.457  26.653  57.347  1.00  0.00    -0.191 N 
HETATM    4  C   UNL     1       8.311  25.324  57.169  1.00  0.00     0.735 A 
HETATM    5  N   UNL     1       7.242  24.860  56.455  1.00  0.00    -0.092 N 
HETATM    6  N   UNL     1       7.235  23.519  56.445  1.00  0.00     0.012 NA
HETATM    7  N   UNL     1       8.325  23.177  57.125  1.00  0.00     0.033 NA
HETATM    8  N   UNL     1       9.004  24.291  57.582  1.00  0.00     0.030 NA
HETATM    9  C   UNL     1       6.237  25.708  55.821  1.00  0.00     0.199 C 
HETATM   10  C   UNL     1       6.417  27.166  56.241  1.00  0.00     0.062 C 
HETATM   11  H   UNL     1       9.194  26.975  57.972  1.00  0.00     0.184 HD
ENDROOT
BRANCH  10  12
HETATM   12  C   UNL     1       5.272  28.041  55.878  1.00  0.00     0.256 C 
HETATM   13  N   UNL     1       5.538  28.907  54.843  1.00  0.00    -0.322 N 
HETATM   14  H   UNL     1       6.445  28.843  54.397  1.00  0.00     0.169 HD
HETATM   15  O   UNL     1       4.208  27.889  56.462  1.00  0.00    -0.267 OA
BRANCH  13  16
HETATM   16  C   UNL     1       4.667  29.897  54.337  1.00  0.00     0.052 A 
HETATM   17  C   UNL     1       4.361  31.098  54.973  1.00  0.00     0.145 A 
HETATM   18  N   UNL     1       3.539  32.047  54.454  1.00  0.00    -0.271 NA
HETATM   19  C   UNL     1       2.997  31.793  53.247  1.00  0.00     0.116 A 
HETATM   20  C   UNL     1       3.236  30.632  52.533  1.00  0.00     0.021 A 
HETATM   21  C   UNL     1       4.081  29.673  53.089  1.00  0.00     0.032 A 
ENDBRANCH  13  16
ENDBRANCH  10  12
BRANCH   9  22
HETATM   22  C   UNL     1       6.271  25.553  54.310  1.00  0.00    -0.011 A 
HETATM   23  C   UNL     1       7.419  25.807  53.559  1.00  0.00     0.125 A 
HETATM   24  N   UNL     1       7.476  25.732  52.210  1.00  0.00    -0.272 NA
HETATM   25  C   UNL     1       6.346  25.369  51.569  1.00  0.00     0.116 A 
HETATM   26  C   UNL     1       5.151  25.101  52.215  1.00  0.00     0.020 A 
HETATM   27  C   UNL     1       5.115  25.202  53.603  1.00  0.00     0.012 A 
ENDBRANCH   9  22
TORSDOF 3
ENDMDL
MODEL 7
REMARK VINA RESULT:      -7.4      6.008      8.523
REMARK  3 active torsions:
REMARK  status: ('A' for Active; 'I' for Inactive)
REMARK    1  A    between atoms: C_9  and  C_10 
REMARK    2  A    between atoms: C_16  and  C_17 
REMARK       I    between atoms: C_17  and  N_18 
REMARK    3  A    between atoms: N_18  and  C_19 
ROOT
HETATM    1  C   UNL     1       3.636  34.701  59.022  1.00  0.00     0.070 C 
HETATM    2  C   UNL     1       4.284  33.946  60.157  1.00  0.00     0.037 C 
HETATM    3  N   UNL     1       4.048  34.457  61.430  1.00  0.00    -0.191 N 
HETATM    4  C   UNL     1       4.330  33.770  62.557  1.00  0.00     0.735 A 
HETATM    5  N   UNL     1       5.024  32.597  62.466  1.00  0.00    -0.092 N 
HETATM    6  N   UNL     1       5.149  32.035  63.677  1.00  0.00     0.012 NA
HETATM    7  N   UNL     1       4.559  32.893  64.503  1.00  0.00     0.033 NA
HETATM    8  N   UNL     1       4.045  33.978  63.818  1.00  0.00     0.030 NA
HETATM    9  C   UNL     1       5.529  32.026  61.221  1.00  0.00     0.199 C 
HETATM   10  C   UNL     1       4.997  32.800  60.016  1.00  0.00     0.062 C 
HETATM   11  H   UNL     1       3.438  35.269  61.504  1.00  0.00     0.184 HD
ENDROOT
BRANCH  10  12
HETATM   12  C   UNL     1       5.223  32.116  58.716  1.00  0.00     0.256 C 
HETATM   13  N   UNL     1       4.603  30.892  58.614  1.00  0.00    -0.322 N 
HETATM   14  H   UNL     1       4.023  30.593  59.389  1.00  0.00     0.169 HD
HETATM   15  O   UNL     1       5.865  32.695  57.851  1.00  0.00    -0.267 OA
BRANCH  13  16
HETATM   16  C   UNL     1       4.701  29.993  57.530  1.00  0.00     0.052 A 
HETATM   17  C   UNL     1       3.803  29.915  56.468  1.00  0.00     0.145 A 
HETATM   18  N   UNL     1       3.932  29.058  55.423  1.00  0.00    -0.271 NA
HETATM   19  C   UNL     1       5.005  28.242  55.430  1.00  0.00     0.116 A 
HETATM   20  C   UNL     1       5.955  28.239  56.436  1.00  0.00     0.021 A 
HETATM   21  C   UNL     1       5.796  29.127  57.500  1.00  0.00     0.032 A 
ENDBRANCH  13  16
ENDBRANCH  10  12
BRANCH   9  22
HETATM   22  C   UNL     1       7.048  31.973  61.225  1.00  0.00    -0.011 A 
HETATM   23  C   UNL     1       7.826  32.803  60.417  1.00  0.00     0.125 A 
HETATM   24  N   UNL     1       9.176  32.751  60.353  1.00  0.00    -0.272 NA
HETATM   25  C   UNL     1       9.792  31.845  61.140  1.00  0.00     0.116 A 
HETATM   26  C   UNL     1       9.117  30.970  61.974  1.00  0.00     0.020 A 
HETATM   27  C   UNL     1       7.726  31.032  62.009  1.00  0.00     0.012 A 
ENDBRANCH   9  22
TORSDOF 3
ENDMDL
MODEL 8
REMARK VINA RESULT:      -7.2      5.469      8.901
REMARK  3 active torsions:
REMARK  status: ('A' for Active; 'I' for Inactive)
REMARK    1  A    between atoms: C_9  and  C_10 
REMARK    2  A    between atoms: C_16  and  C_17 
REMARK       I    between atoms: C_17  and  N_18 
REMARK    3  A    between atoms: N_18  and  C_19 
ROOT
HETATM    1  C   UNL     1       9.355  30.033  58.170  1.00  0.00     0.070 C 
HETATM    2  C   UNL     1       7.903  30.235  57.810  1.00  0.00     0.037 C 
HETATM    3  N   UNL     1       7.416  29.411  56.799  1.00  0.00    -0.191 N 
HETATM    4  C   UNL     1       6.099  29.280  56.536  1.00  0.00     0.735 A 
HETATM    5  N   UNL     1       5.208  30.100  57.167  1.00  0.00    -0.092 N 
HETATM    6  N   UNL     1       3.952  29.774  56.826  1.00  0.00     0.012 NA
HETATM    7  N   UNL     1       4.093  28.777  55.958  1.00  0.00     0.033 NA
HETATM    8  N   UNL     1       5.425  28.459  55.768  1.00  0.00     0.030 NA
HETATM    9  C   UNL     1       5.574  31.160  58.102  1.00  0.00     0.199 C 
HETATM   10  C   UNL     1       7.061  31.090  58.443  1.00  0.00     0.062 C 
HETATM   11  H   UNL     1       8.054  28.722  56.406  1.00  0.00     0.184 HD
ENDROOT
BRANCH  10  12
HETATM   12  C   UNL     1       7.452  31.938  59.599  1.00  0.00     0.256 C 
HETATM   13  N   UNL     1       6.660  31.768  60.710  1.00  0.00    -0.322 N 
HETATM   14  H   UNL     1       5.932  31.065  60.665  1.00  0.00     0.169 HD
HETATM   15  O   UNL     1       8.442  32.649  59.498  1.00  0.00    -0.267 OA
BRANCH  13  16
HETATM   16  C   UNL     1       6.752  32.488  61.921  1.00  0.00     0.052 A 
HETATM   17  C   UNL     1       5.850  33.461  62.347  1.00  0.00     0.145 A 
HETATM   18  N   UNL     1       5.946  34.123  63.528  1.00  0.00    -0.271 NA
HETATM   19  C   UNL     1       6.985  33.804  64.326  1.00  0.00     0.116 A 
HETATM   20  C   UNL     1       7.935  32.854  63.997  1.00  0.00     0.021 A 
HETATM   21  C   UNL     1       7.815  32.191  62.776  1.00  0.00     0.032 A 
ENDBRANCH  13  16
ENDBRANCH  10  12
BRANCH   9  22
HETATM   22  C   UNL     1       5.190  32.524  57.553  1.00  0.00    -0.011 A 
HETATM   23  C   UNL     1       4.694  33.544  58.365  1.00  0.00     0.125 A 
HETATM   24  N   UNL     1       4.293  34.751  57.908  1.00  0.00    -0.272 NA
HETATM   25  C   UNL     1       4.404  34.971  56.581  1.00  0.00     0.116 A 
HETATM   26  C   UNL     1       4.876  34.028  55.685  1.00  0.00     0.020 A 
HETATM   27  C   UNL     1       5.267  32.787  56.180  1.00  0.00     0.012 A 
ENDBRANCH   9  22
TORSDOF 3
ENDMDL
MODEL 9
REMARK VINA RESULT:      -7.2      9.276     12.298
REMARK  3 active torsions:
REMARK  status: ('A' for Active; 'I' for Inactive)
REMARK    1  A    between atoms: C_9  and  C_10 
REMARK    2  A    between atoms: C_16  and  C_17 
REMARK       I    between atoms: C_17  and  N_18 
REMARK    3  A    between atoms: N_18  and  C_19 
ROOT
HETATM    1  C   UNL     1       3.457  37.444  62.637  1.00  0.00     0.070 C 
HETATM    2  C   UNL     1       3.957  36.341  63.539  1.00  0.00     0.037 C 
HETATM    3  N   UNL     1       4.403  36.748  64.794  1.00  0.00    -0.191 N 
HETATM    4  C   UNL     1       4.636  35.883  65.802  1.00  0.00     0.735 A 
HETATM    5  N   UNL     1       4.595  34.540  65.551  1.00  0.00    -0.092 N 
HETATM    6  N   UNL     1       4.786  33.848  66.684  1.00  0.00     0.012 NA
HETATM    7  N   UNL     1       4.979  34.780  67.612  1.00  0.00     0.033 NA
HETATM    8  N   UNL     1       4.888  36.051  67.077  1.00  0.00     0.030 NA
HETATM    9  C   UNL     1       4.346  33.948  64.239  1.00  0.00     0.199 C 
HETATM   10  C   UNL     1       3.930  35.019  63.233  1.00  0.00     0.062 C 
HETATM   11  H   UNL     1       4.329  37.739  65.020  1.00  0.00     0.184 HD
ENDROOT
BRANCH  10  12
HETATM   12  C   UNL     1       3.382  34.471  61.966  1.00  0.00     0.256 C 
HETATM   13  N   UNL     1       4.258  34.531  60.907  1.00  0.00    -0.322 N 
HETATM   14  H   UNL     1       5.189  34.887  61.087  1.00  0.00     0.169 HD
HETATM   15  O   UNL     1       2.264  33.974  61.974  1.00  0.00    -0.267 OA
BRANCH  13  16
HETATM   16  C   UNL     1       3.985  34.152  59.574  1.00  0.00     0.052 A 
HETATM   17  C   UNL     1       3.767  32.847  59.139  1.00  0.00     0.145 A 
HETATM   18  N   UNL     1       3.481  32.510  57.855  1.00  0.00    -0.271 NA
HETATM   19  C   UNL     1       3.407  33.516  56.960  1.00  0.00     0.116 A 
HETATM   20  C   UNL     1       3.608  34.845  57.289  1.00  0.00     0.021 A 
HETATM   21  C   UNL     1       3.903  35.163  58.614  1.00  0.00     0.032 A 
ENDBRANCH  13  16
ENDBRANCH  10  12
BRANCH   9  22
HETATM   22  C   UNL     1       5.560  33.171  63.757  1.00  0.00    -0.011 A 
HETATM   23  C   UNL     1       5.448  31.966  63.063  1.00  0.00     0.125 A 
HETATM   24  N   UNL     1       6.501  31.219  62.664  1.00  0.00    -0.272 NA
HETATM   25  C   UNL     1       7.732  31.694  62.949  1.00  0.00     0.116 A 
HETATM   26  C   UNL     1       7.957  32.873  63.638  1.00  0.00     0.020 A 
HETATM   27  C   UNL     1       6.855  33.615  64.053  1.00  0.00     0.012 A 
ENDBRANCH   9  22
TORSDOF 3
ENDMDL
MODEL 10
REMARK VINA RESULT:      -7.2      3.408      6.371
REMARK  3 active torsions:
REMARK  status: ('A' for Active; 'I' for Inactive)
REMARK    1  A    between atoms: C_9  and  C_10 
REMARK    2  A    between atoms: C_16  and  C_17 
REMARK       I    between atoms: C_17  and  N_18 
REMARK    3  A    between atoms: N_18  and  C_19 
ROOT
HETATM    1  C   UNL     1       6.202  25.423  51.836  1.00  0.00     0.070 C 
HETATM    2  C   UNL     1       5.452  26.422  50.990  1.00  0.00     0.037 C 
HETATM    3  N   UNL     1       5.392  26.131  49.629  1.00  0.00    -0.191 N 
HETATM    4  C   UNL     1       4.556  26.768  48.783  1.00  0.00     0.735 A 
HETATM    5  N   UNL     1       3.855  27.852  49.229  1.00  0.00    -0.092 N 
HETATM    6  N   UNL     1       3.036  28.304  48.267  1.00  0.00     0.012 NA
HETATM    7  N   UNL     1       3.275  27.510  47.228  1.00  0.00     0.033 NA
HETATM    8  N   UNL     1       4.219  26.549  47.536  1.00  0.00     0.030 NA
HETATM    9  C   UNL     1       3.962  28.415  50.571  1.00  0.00     0.199 C 
HETATM   10  C   UNL     1       4.797  27.508  51.473  1.00  0.00     0.062 C 
HETATM   11  H   UNL     1       5.822  25.263  49.315  1.00  0.00     0.184 HD
ENDROOT
BRANCH  10  12
HETATM   12  C   UNL     1       4.713  27.854  52.915  1.00  0.00     0.256 C 
HETATM   13  N   UNL     1       5.912  28.240  53.468  1.00  0.00    -0.322 N 
HETATM   14  H   UNL     1       6.715  28.302  52.852  1.00  0.00     0.169 HD
HETATM   15  O   UNL     1       3.620  27.828  53.464  1.00  0.00    -0.267 OA
BRANCH  13  16
HETATM   16  C   UNL     1       6.145  28.554  54.824  1.00  0.00     0.052 A 
HETATM   17  C   UNL     1       5.587  29.633  55.507  1.00  0.00     0.145 A 
HETATM   18  N   UNL     1       5.807  29.900  56.819  1.00  0.00    -0.271 NA
HETATM   19  C   UNL     1       6.617  29.055  57.488  1.00  0.00     0.116 A 
HETATM   20  C   UNL     1       7.221  27.955  56.905  1.00  0.00     0.021 A 
HETATM   21  C   UNL     1       6.981  27.706  55.554  1.00  0.00     0.032 A 
ENDBRANCH  13  16
ENDBRANCH  10  12
BRANCH   9  22
HETATM   22  C   UNL     1       4.523  29.827  50.524  1.00  0.00    -0.011 A 
HETATM   23  C   UNL     1       5.759  30.120  49.947  1.00  0.00     0.125 A 
HETATM   24  N   UNL     1       6.316  31.351  49.932  1.00  0.00    -0.272 NA
HETATM   25  C   UNL     1       5.610  32.350  50.500  1.00  0.00     0.116 A 
HETATM   26  C   UNL     1       4.378  32.169  51.106  1.00  0.00     0.020 A 
HETATM   27  C   UNL     1       3.834  30.888  51.123  1.00  0.00     0.012 A 
ENDBRANCH   9  22
TORSDOF 3
ENDMDL
