MODEL 1
REMARK VINA RESULT:      -9.0      0.000      0.000
REMARK  8 active torsions:
REMARK  status: ('A' for Active; 'I' for Inactive)
REMARK    1  A    between atoms: C_7  and  C_8 
REMARK       I    between atoms: C_8  and  N_9 
REMARK    2  A    between atoms: N_9  and  C_10 
REMARK    3  A    between atoms: C_12  and  C_13 
REMARK       I    between atoms: C_13  and  N_14 
REMARK    4  A    between atoms: N_14  and  C_15 
REMARK    5  A    between atoms: C_15  and  C_16 
REMARK    6  A    between atoms: C_16  and  C_17 
REMARK    7  A    between atoms: C_18  and  O_19 
REMARK    8  A    between atoms: C_23  and  O_24 
ROOT
HETATM    1  C   UNL     1       7.219  27.568  56.498  1.00  0.00     0.035 A 
HETATM    2  C   UNL     1       8.080  28.146  57.435  1.00  0.00     0.046 A 
HETATM    3  C   UNL     1       7.765  29.385  58.012  1.00  0.00     0.034 A 
HETATM    4  C   UNL     1       6.599  30.059  57.635  1.00  0.00     0.017 A 
HETATM    5  C   UNL     1       5.733  29.483  56.710  1.00  0.00     0.003 A 
HETATM    6  C   UNL     1       6.041  28.241  56.150  1.00  0.00     0.029 A 
ENDROOT
BRANCH   3   7
HETATM    7  C   UNL     1       8.670  30.034  58.995  1.00  0.00     0.251 C 
HETATM    8  N   UNL     1       8.166  30.208  60.266  1.00  0.00    -0.357 N 
HETATM    9  H   UNL     1       7.230  29.893  60.485  1.00  0.00     0.162 HD
HETATM   10  O   UNL     1       9.786  30.401  58.646  1.00  0.00    -0.268 OA
BRANCH   8  11
HETATM   11  C   UNL     1       8.994  30.708  61.350  1.00  0.00     0.127 C 
BRANCH  11  12
HETATM   12  C   UNL     1       8.819  32.210  61.597  1.00  0.00     0.061 C 
BRANCH  12  13
HETATM   13  C   UNL     1       7.704  32.675  62.521  1.00  0.00    -0.021 A 
HETATM   14  C   UNL     1       6.412  32.869  61.981  1.00  0.00     0.074 A 
HETATM   15  C   UNL     1       5.369  33.293  62.806  1.00  0.00     0.040 A 
HETATM   16  C   UNL     1       5.601  33.548  64.158  1.00  0.00     0.039 A 
HETATM   17  C   UNL     1       6.873  33.392  64.703  1.00  0.00     0.068 A 
HETATM   18  C   UNL     1       7.920  32.965  63.883  1.00  0.00     0.046 A 
BRANCH  14  19
HETATM   19  O   UNL     1       6.280  32.608  60.641  1.00  0.00    -0.355 OA
HETATM   20  C   UNL     1       4.961  32.435  60.135  1.00  0.00     0.210 C 
ENDBRANCH  14  19
BRANCH  17  21
HETATM   21  O   UNL     1       6.961  33.689  66.035  1.00  0.00    -0.356 OA
HETATM   22  C   UNL     1       5.790  34.198  66.662  1.00  0.00     0.210 C 
ENDBRANCH  17  21
ENDBRANCH  12  13
ENDBRANCH  11  12
ENDBRANCH   8  11
ENDBRANCH   3   7
BRANCH   1  23
HETATM   23  N   UNL     1       7.465  26.335  55.861  1.00  0.00    -0.322 N 
HETATM   24  C   UNL     1       6.813  25.131  56.047  1.00  0.00     0.265 C 
HETATM   25  O   UNL     1       5.892  24.941  56.835  1.00  0.00    -0.267 OA
HETATM   26  H   UNL     1       8.251  26.303  55.220  1.00  0.00     0.169 HD
BRANCH  24  27
HETATM   27  C   UNL     1       7.361  24.000  55.186  1.00  0.00     0.097 C 
HETATM   28  C   UNL     1       8.141  23.027  55.720  1.00  0.00     0.064 C 
HETATM   29  C   UNL     1       8.425  22.890  57.194  1.00  0.00     0.078 C 
HETATM   30  O   UNL     1       8.745  22.001  55.009  1.00  0.00    -0.353 OA
HETATM   31  C   UNL     1       8.888  22.197  53.602  1.00  0.00     0.185 C 
HETATM   32  C   UNL     1       7.548  22.447  52.947  1.00  0.00     0.106 C 
HETATM   33  S   UNL     1       6.939  24.063  53.485  1.00  0.00    -0.120 SA
ENDBRANCH  24  27
ENDBRANCH   1  23
TORSDOF 8
ENDMDL
MODEL 2
REMARK VINA RESULT:      -9.0      2.754     10.637
REMARK  8 active torsions:
REMARK  status: ('A' for Active; 'I' for Inactive)
REMARK    1  A    between atoms: C_7  and  C_8 
REMARK       I    between atoms: C_8  and  N_9 
REMARK    2  A    between atoms: N_9  and  C_10 
REMARK    3  A    between atoms: C_12  and  C_13 
REMARK       I    between atoms: C_13  and  N_14 
REMARK    4  A    between atoms: N_14  and  C_15 
REMARK    5  A    between atoms: C_15  and  C_16 
REMARK    6  A    between atoms: C_16  and  C_17 
REMARK    7  A    between atoms: C_18  and  O_19 
REMARK    8  A    between atoms: C_23  and  O_24 
ROOT
HETATM    1  C   UNL     1       7.811  30.222  58.118  1.00  0.00     0.035 A 
HETATM    2  C   UNL     1       7.043  29.597  57.132  1.00  0.00     0.046 A 
HETATM    3  C   UNL     1       7.667  28.986  56.033  1.00  0.00     0.034 A 
HETATM    4  C   UNL     1       9.059  29.020  55.908  1.00  0.00     0.017 A 
HETATM    5  C   UNL     1       9.829  29.633  56.893  1.00  0.00     0.003 A 
HETATM    6  C   UNL     1       9.206  30.225  57.994  1.00  0.00     0.029 A 
ENDROOT
BRANCH   3   7
HETATM    7  C   UNL     1       6.877  28.332  54.959  1.00  0.00     0.251 C 
HETATM    8  N   UNL     1       7.468  27.253  54.337  1.00  0.00    -0.357 N 
HETATM    9  H   UNL     1       8.389  26.947  54.626  1.00  0.00     0.162 HD
HETATM   10  O   UNL     1       5.774  28.773  54.659  1.00  0.00    -0.268 OA
BRANCH   8  11
HETATM   11  C   UNL     1       6.749  26.448  53.365  1.00  0.00     0.127 C 
BRANCH  11  12
HETATM   12  C   UNL     1       6.116  25.193  53.976  1.00  0.00     0.061 C 
BRANCH  12  13
HETATM   13  C   UNL     1       7.024  24.132  54.577  1.00  0.00    -0.021 A 
HETATM   14  C   UNL     1       7.335  24.206  55.954  1.00  0.00     0.074 A 
HETATM   15  C   UNL     1       8.164  23.244  56.533  1.00  0.00     0.040 A 
HETATM   16  C   UNL     1       8.705  22.220  55.754  1.00  0.00     0.039 A 
HETATM   17  C   UNL     1       8.434  22.147  54.390  1.00  0.00     0.068 A 
HETATM   18  C   UNL     1       7.603  23.105  53.805  1.00  0.00     0.046 A 
BRANCH  14  19
HETATM   19  O   UNL     1       6.772  25.254  56.638  1.00  0.00    -0.355 OA
HETATM   20  C   UNL     1       7.540  25.842  57.680  1.00  0.00     0.210 C 
ENDBRANCH  14  19
BRANCH  17  21
HETATM   21  O   UNL     1       9.039  21.102  53.747  1.00  0.00    -0.356 OA
HETATM   22  C   UNL     1       8.274  20.423  52.759  1.00  0.00     0.210 C 
ENDBRANCH  17  21
ENDBRANCH  12  13
ENDBRANCH  11  12
ENDBRANCH   8  11
ENDBRANCH   3   7
BRANCH   1  23
HETATM   23  N   UNL     1       7.266  30.869  59.244  1.00  0.00    -0.322 N 
HETATM   24  C   UNL     1       7.663  32.061  59.823  1.00  0.00     0.265 C 
HETATM   25  O   UNL     1       8.596  32.757  59.435  1.00  0.00    -0.267 OA
HETATM   26  H   UNL     1       6.519  30.385  59.732  1.00  0.00     0.169 HD
BRANCH  24  27
HETATM   27  C   UNL     1       6.842  32.450  61.046  1.00  0.00     0.097 C 
HETATM   28  C   UNL     1       7.266  32.153  62.298  1.00  0.00     0.064 C 
HETATM   29  C   UNL     1       8.611  31.548  62.611  1.00  0.00     0.078 C 
HETATM   30  O   UNL     1       6.559  32.399  63.466  1.00  0.00    -0.353 OA
HETATM   31  C   UNL     1       5.153  32.608  63.329  1.00  0.00     0.185 C 
HETATM   32  C   UNL     1       4.862  33.761  62.395  1.00  0.00     0.106 C 
HETATM   33  S   UNL     1       5.328  33.272  60.717  1.00  0.00    -0.120 SA
ENDBRANCH  24  27
ENDBRANCH   1  23
TORSDOF 8
ENDMDL
MODEL 3
REMARK VINA RESULT:      -9.0      2.830     11.042
REMARK  8 active torsions:
REMARK  status: ('A' for Active; 'I' for Inactive)
REMARK    1  A    between atoms: C_7  and  C_8 
REMARK       I    between atoms: C_8  and  N_9 
REMARK    2  A    between atoms: N_9  and  C_10 
REMARK    3  A    between atoms: C_12  and  C_13 
REMARK       I    between atoms: C_13  and  N_14 
REMARK    4  A    between atoms: N_14  and  C_15 
REMARK    5  A    between atoms: C_15  and  C_16 
REMARK    6  A    between atoms: C_16  and  C_17 
REMARK    7  A    between atoms: C_18  and  O_19 
REMARK    8  A    between atoms: C_23  and  O_24 
ROOT
HETATM    1  C   UNL     1       8.039  30.867  59.164  1.00  0.00     0.035 A 
HETATM    2  C   UNL     1       7.594  29.700  58.537  1.00  0.00     0.046 A 
HETATM    3  C   UNL     1       8.429  29.021  57.636  1.00  0.00     0.034 A 
HETATM    4  C   UNL     1       9.702  29.521  57.344  1.00  0.00     0.017 A 
HETATM    5  C   UNL     1      10.153  30.678  57.974  1.00  0.00     0.003 A 
HETATM    6  C   UNL     1       9.327  31.342  58.884  1.00  0.00     0.029 A 
ENDROOT
BRANCH   3   7
HETATM    7  C   UNL     1       7.977  27.790  56.938  1.00  0.00     0.251 C 
HETATM    8  N   UNL     1       7.670  26.712  57.740  1.00  0.00    -0.357 N 
HETATM    9  H   UNL     1       7.753  26.791  58.746  1.00  0.00     0.162 HD
HETATM   10  O   UNL     1       7.917  27.770  55.714  1.00  0.00    -0.268 OA
BRANCH   8  11
HETATM   11  C   UNL     1       7.092  25.498  57.192  1.00  0.00     0.127 C 
BRANCH  11  12
HETATM   12  C   UNL     1       8.146  24.468  56.769  1.00  0.00     0.061 C 
BRANCH  12  13
HETATM   13  C   UNL     1       8.073  23.876  55.370  1.00  0.00    -0.021 A 
HETATM   14  C   UNL     1       8.280  22.487  55.210  1.00  0.00     0.074 A 
HETATM   15  C   UNL     1       8.216  21.916  53.938  1.00  0.00     0.040 A 
HETATM   16  C   UNL     1       7.970  22.713  52.820  1.00  0.00     0.039 A 
HETATM   17  C   UNL     1       7.793  24.088  52.954  1.00  0.00     0.068 A 
HETATM   18  C   UNL     1       7.852  24.665  54.224  1.00  0.00     0.046 A 
BRANCH  14  19
HETATM   19  O   UNL     1       8.530  21.784  56.361  1.00  0.00    -0.355 OA
HETATM   20  C   UNL     1       9.056  20.469  56.223  1.00  0.00     0.210 C 
ENDBRANCH  14  19
BRANCH  17  21
HETATM   21  O   UNL     1       7.572  24.749  51.777  1.00  0.00    -0.356 OA
HETATM   22  C   UNL     1       6.465  25.641  51.734  1.00  0.00     0.210 C 
ENDBRANCH  17  21
ENDBRANCH  12  13
ENDBRANCH  11  12
ENDBRANCH   8  11
ENDBRANCH   3   7
BRANCH   1  23
HETATM   23  N   UNL     1       7.263  31.616  60.070  1.00  0.00    -0.322 N 
HETATM   24  C   UNL     1       7.252  31.546  61.450  1.00  0.00     0.265 C 
HETATM   25  O   UNL     1       7.935  30.781  62.123  1.00  0.00    -0.267 OA
HETATM   26  H   UNL     1       6.585  32.256  59.668  1.00  0.00     0.169 HD
BRANCH  24  27
HETATM   27  C   UNL     1       6.268  32.509  62.104  1.00  0.00     0.097 C 
HETATM   28  C   UNL     1       6.554  33.108  63.286  1.00  0.00     0.064 C 
HETATM   29  C   UNL     1       7.884  32.996  63.987  1.00  0.00     0.078 C 
HETATM   30  O   UNL     1       5.698  33.939  63.993  1.00  0.00    -0.353 OA
HETATM   31  C   UNL     1       4.309  33.847  63.674  1.00  0.00     0.185 C 
HETATM   32  C   UNL     1       4.068  34.124  62.206  1.00  0.00     0.106 C 
HETATM   33  S   UNL     1       4.761  32.759  61.243  1.00  0.00    -0.120 SA
ENDBRANCH  24  27
ENDBRANCH   1  23
TORSDOF 8
ENDMDL
MODEL 4
REMARK VINA RESULT:      -8.8      3.049     10.666
REMARK  8 active torsions:
REMARK  status: ('A' for Active; 'I' for Inactive)
REMARK    1  A    between atoms: C_7  and  C_8 
REMARK       I    between atoms: C_8  and  N_9 
REMARK    2  A    between atoms: N_9  and  C_10 
REMARK    3  A    between atoms: C_12  and  C_13 
REMARK       I    between atoms: C_13  and  N_14 
REMARK    4  A    between atoms: N_14  and  C_15 
REMARK    5  A    between atoms: C_15  and  C_16 
REMARK    6  A    between atoms: C_16  and  C_17 
REMARK    7  A    between atoms: C_18  and  O_19 
REMARK    8  A    between atoms: C_23  and  O_24 
ROOT
HETATM    1  C   UNL     1       7.984  30.452  58.905  1.00  0.00     0.035 A 
HETATM    2  C   UNL     1       7.421  29.704  57.867  1.00  0.00     0.046 A 
HETATM    3  C   UNL     1       8.235  29.190  56.846  1.00  0.00     0.034 A 
HETATM    4  C   UNL     1       9.611  29.443  56.850  1.00  0.00     0.017 A 
HETATM    5  C   UNL     1      10.177  30.179  57.887  1.00  0.00     0.003 A 
HETATM    6  C   UNL     1       9.367  30.675  58.911  1.00  0.00     0.029 A 
ENDROOT
BRANCH   3   7
HETATM    7  C   UNL     1       7.664  28.409  55.720  1.00  0.00     0.251 C 
HETATM    8  N   UNL     1       6.539  27.665  56.001  1.00  0.00    -0.357 N 
HETATM    9  H   UNL     1       6.146  27.678  56.934  1.00  0.00     0.162 HD
HETATM   10  O   UNL     1       8.209  28.435  54.622  1.00  0.00    -0.268 OA
BRANCH   8  11
HETATM   11  C   UNL     1       5.810  26.965  54.959  1.00  0.00     0.127 C 
BRANCH  11  12
HETATM   12  C   UNL     1       5.547  25.492  55.294  1.00  0.00     0.061 C 
BRANCH  12  13
HETATM   13  C   UNL     1       6.506  24.438  54.763  1.00  0.00    -0.021 A 
HETATM   14  C   UNL     1       6.533  24.184  53.373  1.00  0.00     0.074 A 
HETATM   15  C   UNL     1       7.406  23.223  52.858  1.00  0.00     0.040 A 
HETATM   16  C   UNL     1       8.236  22.496  53.712  1.00  0.00     0.039 A 
HETATM   17  C   UNL     1       8.203  22.711  55.088  1.00  0.00     0.068 A 
HETATM   18  C   UNL     1       7.334  23.673  55.609  1.00  0.00     0.046 A 
BRANCH  14  19
HETATM   19  O   UNL     1       5.673  24.934  52.612  1.00  0.00    -0.355 OA
HETATM   20  C   UNL     1       6.236  25.706  51.558  1.00  0.00     0.210 C 
ENDBRANCH  14  19
BRANCH  17  21
HETATM   21  O   UNL     1       9.058  21.922  55.806  1.00  0.00    -0.356 OA
HETATM   22  C   UNL     1       8.479  21.056  56.774  1.00  0.00     0.210 C 
ENDBRANCH  17  21
ENDBRANCH  12  13
ENDBRANCH  11  12
ENDBRANCH   8  11
ENDBRANCH   3   7
BRANCH   1  23
HETATM   23  N   UNL     1       7.239  31.015  59.960  1.00  0.00    -0.322 N 
HETATM   24  C   UNL     1       6.430  32.136  59.934  1.00  0.00     0.265 C 
HETATM   25  O   UNL     1       6.241  32.847  58.952  1.00  0.00    -0.267 OA
HETATM   26  H   UNL     1       7.340  30.581  60.872  1.00  0.00     0.169 HD
BRANCH  24  27
HETATM   27  C   UNL     1       5.786  32.456  61.277  1.00  0.00     0.097 C 
HETATM   28  C   UNL     1       4.442  32.391  61.442  1.00  0.00     0.064 C 
HETATM   29  C   UNL     1       3.487  31.881  60.392  1.00  0.00     0.078 C 
HETATM   30  O   UNL     1       3.757  32.731  62.600  1.00  0.00    -0.353 OA
HETATM   31  C   UNL     1       4.448  33.568  63.527  1.00  0.00     0.185 C 
HETATM   32  C   UNL     1       5.751  32.937  63.965  1.00  0.00     0.106 C 
HETATM   33  S   UNL     1       6.886  32.930  62.557  1.00  0.00    -0.120 SA
ENDBRANCH  24  27
ENDBRANCH   1  23
TORSDOF 8
ENDMDL
MODEL 5
REMARK VINA RESULT:      -8.5      2.266      2.918
REMARK  8 active torsions:
REMARK  status: ('A' for Active; 'I' for Inactive)
REMARK    1  A    between atoms: C_7  and  C_8 
REMARK       I    between atoms: C_8  and  N_9 
REMARK    2  A    between atoms: N_9  and  C_10 
REMARK    3  A    between atoms: C_12  and  C_13 
REMARK       I    between atoms: C_13  and  N_14 
REMARK    4  A    between atoms: N_14  and  C_15 
REMARK    5  A    between atoms: C_15  and  C_16 
REMARK    6  A    between atoms: C_16  and  C_17 
REMARK    7  A    between atoms: C_18  and  O_19 
REMARK    8  A    between atoms: C_23  and  O_24 
ROOT
HETATM    1  C   UNL     1       8.661  29.281  57.251  1.00  0.00     0.035 A 
HETATM    2  C   UNL     1       8.291  29.553  58.571  1.00  0.00     0.046 A 
HETATM    3  C   UNL     1       9.050  30.441  59.348  1.00  0.00     0.034 A 
HETATM    4  C   UNL     1      10.194  31.041  58.813  1.00  0.00     0.017 A 
HETATM    5  C   UNL     1      10.561  30.782  57.495  1.00  0.00     0.003 A 
HETATM    6  C   UNL     1       9.794  29.911  56.718  1.00  0.00     0.029 A 
ENDROOT
BRANCH   3   7
HETATM    7  C   UNL     1       8.694  30.734  60.760  1.00  0.00     0.251 C 
HETATM    8  N   UNL     1       7.490  31.371  60.966  1.00  0.00    -0.357 N 
HETATM    9  H   UNL     1       6.902  31.607  60.176  1.00  0.00     0.162 HD
HETATM   10  O   UNL     1       9.468  30.429  61.660  1.00  0.00    -0.268 OA
BRANCH   8  11
HETATM   11  C   UNL     1       6.967  31.594  62.303  1.00  0.00     0.127 C 
BRANCH  11  12
HETATM   12  C   UNL     1       7.147  33.037  62.786  1.00  0.00     0.061 C 
BRANCH  12  13
HETATM   13  C   UNL     1       6.391  33.496  64.023  1.00  0.00    -0.021 A 
HETATM   14  C   UNL     1       5.035  33.871  63.888  1.00  0.00     0.074 A 
HETATM   15  C   UNL     1       4.315  34.294  65.008  1.00  0.00     0.040 A 
HETATM   16  C   UNL     1       4.935  34.369  66.255  1.00  0.00     0.039 A 
HETATM   17  C   UNL     1       6.278  34.032  66.403  1.00  0.00     0.068 A 
HETATM   18  C   UNL     1       7.003  33.605  65.287  1.00  0.00     0.046 A 
BRANCH  14  19
HETATM   19  O   UNL     1       4.513  33.780  62.623  1.00  0.00    -0.355 OA
HETATM   20  C   UNL     1       3.122  33.503  62.508  1.00  0.00     0.210 C 
ENDBRANCH  14  19
BRANCH  17  21
HETATM   21  O   UNL     1       6.760  34.164  67.676  1.00  0.00    -0.356 OA
HETATM   22  C   UNL     1       5.859  34.655  68.660  1.00  0.00     0.210 C 
ENDBRANCH  17  21
ENDBRANCH  12  13
ENDBRANCH  11  12
ENDBRANCH   8  11
ENDBRANCH   3   7
BRANCH   1  23
HETATM   23  N   UNL     1       7.965  28.394  56.407  1.00  0.00    -0.322 N 
HETATM   24  C   UNL     1       7.829  27.023  56.530  1.00  0.00     0.265 C 
HETATM   25  O   UNL     1       8.326  26.343  57.422  1.00  0.00    -0.267 OA
HETATM   26  H   UNL     1       7.547  28.792  55.572  1.00  0.00     0.169 HD
BRANCH  24  27
HETATM   27  C   UNL     1       7.008  26.388  55.416  1.00  0.00     0.097 C 
HETATM   28  C   UNL     1       5.939  25.601  55.695  1.00  0.00     0.064 C 
HETATM   29  C   UNL     1       5.388  25.388  57.082  1.00  0.00     0.078 C 
HETATM   30  O   UNL     1       5.175  24.921  54.757  1.00  0.00    -0.353 OA
HETATM   31  C   UNL     1       5.773  24.712  53.477  1.00  0.00     0.185 C 
HETATM   32  C   UNL     1       6.172  26.025  52.841  1.00  0.00     0.106 C 
HETATM   33  S   UNL     1       7.550  26.722  53.783  1.00  0.00    -0.120 SA
ENDBRANCH  24  27
ENDBRANCH   1  23
TORSDOF 8
ENDMDL
MODEL 6
REMARK VINA RESULT:      -8.4      2.878     10.865
REMARK  8 active torsions:
REMARK  status: ('A' for Active; 'I' for Inactive)
REMARK    1  A    between atoms: C_7  and  C_8 
REMARK       I    between atoms: C_8  and  N_9 
REMARK    2  A    between atoms: N_9  and  C_10 
REMARK    3  A    between atoms: C_12  and  C_13 
REMARK       I    between atoms: C_13  and  N_14 
REMARK    4  A    between atoms: N_14  and  C_15 
REMARK    5  A    between atoms: C_15  and  C_16 
REMARK    6  A    between atoms: C_16  and  C_17 
REMARK    7  A    between atoms: C_18  and  O_19 
REMARK    8  A    between atoms: C_23  and  O_24 
ROOT
HETATM    1  C   UNL     1       6.317  31.070  58.519  1.00  0.00     0.035 A 
HETATM    2  C   UNL     1       7.019  29.901  58.212  1.00  0.00     0.046 A 
HETATM    3  C   UNL     1       6.929  29.341  56.928  1.00  0.00     0.034 A 
HETATM    4  C   UNL     1       6.119  29.937  55.957  1.00  0.00     0.017 A 
HETATM    5  C   UNL     1       5.425  31.107  56.255  1.00  0.00     0.003 A 
HETATM    6  C   UNL     1       5.530  31.672  57.528  1.00  0.00     0.029 A 
ENDROOT
BRANCH   3   7
HETATM    7  C   UNL     1       7.647  28.089  56.578  1.00  0.00     0.251 C 
HETATM    8  N   UNL     1       7.729  27.134  57.569  1.00  0.00    -0.357 N 
HETATM    9  H   UNL     1       7.305  27.308  58.472  1.00  0.00     0.162 HD
HETATM   10  O   UNL     1       8.145  27.962  55.465  1.00  0.00    -0.268 OA
BRANCH   8  11
HETATM   11  C   UNL     1       8.287  25.818  57.313  1.00  0.00     0.127 C 
BRANCH  11  12
HETATM   12  C   UNL     1       7.239  24.800  56.851  1.00  0.00     0.061 C 
BRANCH  12  13
HETATM   13  C   UNL     1       7.340  24.230  55.444  1.00  0.00    -0.021 A 
HETATM   14  C   UNL     1       6.489  24.745  54.441  1.00  0.00     0.074 A 
HETATM   15  C   UNL     1       6.562  24.243  53.140  1.00  0.00     0.040 A 
HETATM   16  C   UNL     1       7.458  23.218  52.831  1.00  0.00     0.039 A 
HETATM   17  C   UNL     1       8.285  22.677  53.813  1.00  0.00     0.068 A 
HETATM   18  C   UNL     1       8.218  23.178  55.115  1.00  0.00     0.046 A 
BRANCH  14  19
HETATM   19  O   UNL     1       5.631  25.739  54.838  1.00  0.00    -0.355 OA
HETATM   20  C   UNL     1       5.273  26.719  53.870  1.00  0.00     0.210 C 
ENDBRANCH  14  19
BRANCH  17  21
HETATM   21  O   UNL     1       9.103  21.672  53.376  1.00  0.00    -0.356 OA
HETATM   22  C   UNL     1       8.479  20.454  52.988  1.00  0.00     0.210 C 
ENDBRANCH  17  21
ENDBRANCH  12  13
ENDBRANCH  11  12
ENDBRANCH   8  11
ENDBRANCH   3   7
BRANCH   1  23
HETATM   23  N   UNL     1       6.340  31.690  59.783  1.00  0.00    -0.322 N 
HETATM   24  C   UNL     1       7.319  32.507  60.318  1.00  0.00     0.265 C 
HETATM   25  O   UNL     1       8.363  32.819  59.755  1.00  0.00    -0.267 OA
HETATM   26  H   UNL     1       5.570  31.477  60.410  1.00  0.00     0.169 HD
BRANCH  24  27
HETATM   27  C   UNL     1       7.007  32.992  61.729  1.00  0.00     0.097 C 
HETATM   28  C   UNL     1       5.978  33.843  61.966  1.00  0.00     0.064 C 
HETATM   29  C   UNL     1       4.985  34.277  60.918  1.00  0.00     0.078 C 
HETATM   30  O   UNL     1       5.660  34.395  63.198  1.00  0.00    -0.353 OA
HETATM   31  C   UNL     1       6.693  34.392  64.185  1.00  0.00     0.185 C 
HETATM   32  C   UNL     1       7.185  32.987  64.454  1.00  0.00     0.106 C 
HETATM   33  S   UNL     1       8.070  32.399  62.990  1.00  0.00    -0.120 SA
ENDBRANCH  24  27
ENDBRANCH   1  23
TORSDOF 8
ENDMDL
MODEL 7
REMARK VINA RESULT:      -8.3      2.989     10.949
REMARK  8 active torsions:
REMARK  status: ('A' for Active; 'I' for Inactive)
REMARK    1  A    between atoms: C_7  and  C_8 
REMARK       I    between atoms: C_8  and  N_9 
REMARK    2  A    between atoms: N_9  and  C_10 
REMARK    3  A    between atoms: C_12  and  C_13 
REMARK       I    between atoms: C_13  and  N_14 
REMARK    4  A    between atoms: N_14  and  C_15 
REMARK    5  A    between atoms: C_15  and  C_16 
REMARK    6  A    between atoms: C_16  and  C_17 
REMARK    7  A    between atoms: C_18  and  O_19 
REMARK    8  A    between atoms: C_23  and  O_24 
ROOT
HETATM    1  C   UNL     1       7.773  31.764  59.942  1.00  0.00     0.035 A 
HETATM    2  C   UNL     1       7.332  30.757  59.079  1.00  0.00     0.046 A 
HETATM    3  C   UNL     1       8.215  30.188  58.148  1.00  0.00     0.034 A 
HETATM    4  C   UNL     1       9.535  30.641  58.065  1.00  0.00     0.017 A 
HETATM    5  C   UNL     1       9.983  31.637  58.930  1.00  0.00     0.003 A 
HETATM    6  C   UNL     1       9.106  32.189  59.867  1.00  0.00     0.029 A 
ENDROOT
BRANCH   3   7
HETATM    7  C   UNL     1       7.770  29.131  57.204  1.00  0.00     0.251 C 
HETATM    8  N   UNL     1       7.549  27.883  57.745  1.00  0.00    -0.357 N 
HETATM    9  H   UNL     1       7.687  27.731  58.736  1.00  0.00     0.162 HD
HETATM   10  O   UNL     1       7.641  29.393  56.014  1.00  0.00    -0.268 OA
BRANCH   8  11
HETATM   11  C   UNL     1       6.987  26.802  56.955  1.00  0.00     0.127 C 
BRANCH  11  12
HETATM   12  C   UNL     1       7.979  26.215  55.946  1.00  0.00     0.061 C 
BRANCH  12  13
HETATM   13  C   UNL     1       7.877  24.741  55.588  1.00  0.00    -0.021 A 
HETATM   14  C   UNL     1       7.394  24.385  54.308  1.00  0.00     0.074 A 
HETATM   15  C   UNL     1       7.292  23.039  53.952  1.00  0.00     0.040 A 
HETATM   16  C   UNL     1       7.644  22.042  54.862  1.00  0.00     0.039 A 
HETATM   17  C   UNL     1       8.093  22.371  56.139  1.00  0.00     0.068 A 
HETATM   18  C   UNL     1       8.200  23.716  56.500  1.00  0.00     0.046 A 
BRANCH  14  19
HETATM   19  O   UNL     1       7.058  25.430  53.485  1.00  0.00    -0.355 OA
HETATM   20  C   UNL     1       7.689  25.487  52.211  1.00  0.00     0.210 C 
ENDBRANCH  14  19
BRANCH  17  21
HETATM   21  O   UNL     1       8.390  21.296  56.931  1.00  0.00    -0.356 OA
HETATM   22  C   UNL     1       9.233  20.296  56.373  1.00  0.00     0.210 C 
ENDBRANCH  17  21
ENDBRANCH  12  13
ENDBRANCH  11  12
ENDBRANCH   8  11
ENDBRANCH   3   7
BRANCH   1  23
HETATM   23  N   UNL     1       6.952  32.397  60.895  1.00  0.00    -0.322 N 
HETATM   24  C   UNL     1       6.652  31.982  62.179  1.00  0.00     0.265 C 
HETATM   25  O   UNL     1       7.064  30.950  62.701  1.00  0.00    -0.267 OA
HETATM   26  H   UNL     1       6.472  33.240  60.595  1.00  0.00     0.169 HD
BRANCH  24  27
HETATM   27  C   UNL     1       5.712  32.922  62.923  1.00  0.00     0.097 C 
HETATM   28  C   UNL     1       6.124  33.599  64.023  1.00  0.00     0.064 C 
HETATM   29  C   UNL     1       7.544  33.598  64.531  1.00  0.00     0.078 C 
HETATM   30  O   UNL     1       5.326  34.419  64.807  1.00  0.00    -0.353 OA
HETATM   31  C   UNL     1       3.915  34.233  64.695  1.00  0.00     0.185 C 
HETATM   32  C   UNL     1       3.453  34.417  63.267  1.00  0.00     0.106 C 
HETATM   33  S   UNL     1       4.087  33.042  62.277  1.00  0.00    -0.120 SA
ENDBRANCH  24  27
ENDBRANCH   1  23
TORSDOF 8
ENDMDL
MODEL 8
REMARK VINA RESULT:      -8.2      1.666      2.725
REMARK  8 active torsions:
REMARK  status: ('A' for Active; 'I' for Inactive)
REMARK    1  A    between atoms: C_7  and  C_8 
REMARK       I    between atoms: C_8  and  N_9 
REMARK    2  A    between atoms: N_9  and  C_10 
REMARK    3  A    between atoms: C_12  and  C_13 
REMARK       I    between atoms: C_13  and  N_14 
REMARK    4  A    between atoms: N_14  and  C_15 
REMARK    5  A    between atoms: C_15  and  C_16 
REMARK    6  A    between atoms: C_16  and  C_17 
REMARK    7  A    between atoms: C_18  and  O_19 
REMARK    8  A    between atoms: C_23  and  O_24 
ROOT
HETATM    1  C   UNL     1       8.076  28.344  57.030  1.00  0.00     0.035 A 
HETATM    2  C   UNL     1       6.939  29.049  57.434  1.00  0.00     0.046 A 
HETATM    3  C   UNL     1       7.068  30.296  58.065  1.00  0.00     0.034 A 
HETATM    4  C   UNL     1       8.337  30.828  58.313  1.00  0.00     0.017 A 
HETATM    5  C   UNL     1       9.473  30.134  57.904  1.00  0.00     0.003 A 
HETATM    6  C   UNL     1       9.340  28.902  57.261  1.00  0.00     0.029 A 
ENDROOT
BRANCH   3   7
HETATM    7  C   UNL     1       5.879  31.059  58.523  1.00  0.00     0.251 C 
HETATM    8  N   UNL     1       5.917  31.527  59.818  1.00  0.00    -0.357 N 
HETATM    9  H   UNL     1       6.729  31.348  60.396  1.00  0.00     0.162 HD
HETATM   10  O   UNL     1       4.929  31.219  57.765  1.00  0.00    -0.268 OA
BRANCH   8  11
HETATM   11  C   UNL     1       4.878  32.396  60.343  1.00  0.00     0.127 C 
BRANCH  11  12
HETATM   12  C   UNL     1       5.433  33.641  61.042  1.00  0.00     0.061 C 
BRANCH  12  13
HETATM   13  C   UNL     1       5.935  33.517  62.473  1.00  0.00    -0.021 A 
HETATM   14  C   UNL     1       7.272  33.115  62.690  1.00  0.00     0.074 A 
HETATM   15  C   UNL     1       7.761  32.995  63.992  1.00  0.00     0.040 A 
HETATM   16  C   UNL     1       6.927  33.248  65.082  1.00  0.00     0.039 A 
HETATM   17  C   UNL     1       5.598  33.616  64.890  1.00  0.00     0.068 A 
HETATM   18  C   UNL     1       5.104  33.741  63.589  1.00  0.00     0.046 A 
BRANCH  14  19
HETATM   19  O   UNL     1       8.014  32.873  61.561  1.00  0.00    -0.355 OA
HETATM   20  C   UNL     1       9.019  31.870  61.642  1.00  0.00     0.210 C 
ENDBRANCH  14  19
BRANCH  17  21
HETATM   21  O   UNL     1       4.892  33.821  66.043  1.00  0.00    -0.356 OA
HETATM   22  C   UNL     1       3.966  34.899  66.051  1.00  0.00     0.210 C 
ENDBRANCH  17  21
ENDBRANCH  12  13
ENDBRANCH  11  12
ENDBRANCH   8  11
ENDBRANCH   3   7
BRANCH   1  23
HETATM   23  N   UNL     1       8.037  27.082  56.404  1.00  0.00    -0.322 N 
HETATM   24  C   UNL     1       7.389  25.936  56.827  1.00  0.00     0.265 C 
HETATM   25  O   UNL     1       6.734  25.836  57.859  1.00  0.00    -0.267 OA
HETATM   26  H   UNL     1       8.592  26.975  55.561  1.00  0.00     0.169 HD
BRANCH  24  27
HETATM   27  C   UNL     1       7.578  24.748  55.892  1.00  0.00     0.097 C 
HETATM   28  C   UNL     1       6.720  24.518  54.868  1.00  0.00     0.064 C 
HETATM   29  C   UNL     1       5.606  25.457  54.475  1.00  0.00     0.078 C 
HETATM   30  O   UNL     1       6.764  23.428  54.011  1.00  0.00    -0.353 OA
HETATM   31  C   UNL     1       7.494  22.288  54.466  1.00  0.00     0.185 C 
HETATM   32  C   UNL     1       8.928  22.650  54.782  1.00  0.00     0.106 C 
HETATM   33  S   UNL     1       8.943  23.708  56.249  1.00  0.00    -0.120 SA
ENDBRANCH  24  27
ENDBRANCH   1  23
TORSDOF 8
ENDMDL
MODEL 9
REMARK VINA RESULT:      -8.1      2.479      3.565
REMARK  8 active torsions:
REMARK  status: ('A' for Active; 'I' for Inactive)
REMARK    1  A    between atoms: C_7  and  C_8 
REMARK       I    between atoms: C_8  and  N_9 
REMARK    2  A    between atoms: N_9  and  C_10 
REMARK    3  A    between atoms: C_12  and  C_13 
REMARK       I    between atoms: C_13  and  N_14 
REMARK    4  A    between atoms: N_14  and  C_15 
REMARK    5  A    between atoms: C_15  and  C_16 
REMARK    6  A    between atoms: C_16  and  C_17 
REMARK    7  A    between atoms: C_18  and  O_19 
REMARK    8  A    between atoms: C_23  and  O_24 
ROOT
HETATM    1  C   UNL     1       7.285  29.080  56.782  1.00  0.00     0.035 A 
HETATM    2  C   UNL     1       6.429  30.084  57.244  1.00  0.00     0.046 A 
HETATM    3  C   UNL     1       6.862  30.982  58.232  1.00  0.00     0.034 A 
HETATM    4  C   UNL     1       8.145  30.862  58.776  1.00  0.00     0.017 A 
HETATM    5  C   UNL     1       9.004  29.869  58.312  1.00  0.00     0.003 A 
HETATM    6  C   UNL     1       8.577  28.988  57.317  1.00  0.00     0.029 A 
ENDROOT
BRANCH   3   7
HETATM    7  C   UNL     1       5.969  32.046  58.756  1.00  0.00     0.251 C 
HETATM    8  N   UNL     1       5.449  31.840  60.016  1.00  0.00    -0.357 N 
HETATM    9  H   UNL     1       5.689  31.002  60.530  1.00  0.00     0.162 HD
HETATM   10  O   UNL     1       5.715  33.025  58.064  1.00  0.00    -0.268 OA
BRANCH   8  11
HETATM   11  C   UNL     1       4.671  32.863  60.693  1.00  0.00     0.127 C 
BRANCH  11  12
HETATM   12  C   UNL     1       5.531  34.003  61.249  1.00  0.00     0.061 C 
BRANCH  12  13
HETATM   13  C   UNL     1       6.029  33.914  62.683  1.00  0.00    -0.021 A 
HETATM   14  C   UNL     1       7.208  33.180  62.947  1.00  0.00     0.074 A 
HETATM   15  C   UNL     1       7.691  33.084  64.253  1.00  0.00     0.040 A 
HETATM   16  C   UNL     1       7.002  33.691  65.304  1.00  0.00     0.039 A 
HETATM   17  C   UNL     1       5.822  34.393  65.069  1.00  0.00     0.068 A 
HETATM   18  C   UNL     1       5.336  34.495  63.763  1.00  0.00     0.046 A 
BRANCH  14  19
HETATM   19  O   UNL     1       7.811  32.606  61.856  1.00  0.00    -0.355 OA
HETATM   20  C   UNL     1       8.840  31.656  62.103  1.00  0.00     0.210 C 
ENDBRANCH  14  19
BRANCH  17  21
HETATM   21  O   UNL     1       5.245  34.924  66.189  1.00  0.00    -0.356 OA
HETATM   22  C   UNL     1       4.010  35.608  66.017  1.00  0.00     0.210 C 
ENDBRANCH  17  21
ENDBRANCH  12  13
ENDBRANCH  11  12
ENDBRANCH   8  11
ENDBRANCH   3   7
BRANCH   1  23
HETATM   23  N   UNL     1       6.926  28.131  55.805  1.00  0.00    -0.322 N 
HETATM   24  C   UNL     1       7.490  27.931  54.558  1.00  0.00     0.265 C 
HETATM   25  O   UNL     1       8.417  28.584  54.090  1.00  0.00    -0.267 OA
HETATM   26  H   UNL     1       6.121  27.548  56.009  1.00  0.00     0.169 HD
BRANCH  24  27
HETATM   27  C   UNL     1       6.831  26.812  53.762  1.00  0.00     0.097 C 
HETATM   28  C   UNL     1       5.933  27.083  52.783  1.00  0.00     0.064 C 
HETATM   29  C   UNL     1       5.604  28.474  52.303  1.00  0.00     0.078 C 
HETATM   30  O   UNL     1       5.228  26.136  52.054  1.00  0.00    -0.353 OA
HETATM   31  C   UNL     1       5.137  24.830  52.624  1.00  0.00     0.185 C 
HETATM   32  C   UNL     1       6.511  24.249  52.875  1.00  0.00     0.106 C 
HETATM   33  S   UNL     1       7.293  25.182  54.213  1.00  0.00    -0.120 SA
ENDBRANCH  24  27
ENDBRANCH   1  23
TORSDOF 8
ENDMDL
MODEL 10
REMARK VINA RESULT:      -8.1      3.681     11.180
REMARK  8 active torsions:
REMARK  status: ('A' for Active; 'I' for Inactive)
REMARK    1  A    between atoms: C_7  and  C_8 
REMARK       I    between atoms: C_8  and  N_9 
REMARK    2  A    between atoms: N_9  and  C_10 
REMARK    3  A    between atoms: C_12  and  C_13 
REMARK       I    between atoms: C_13  and  N_14 
REMARK    4  A    between atoms: N_14  and  C_15 
REMARK    5  A    between atoms: C_15  and  C_16 
REMARK    6  A    between atoms: C_16  and  C_17 
REMARK    7  A    between atoms: C_18  and  O_19 
REMARK    8  A    between atoms: C_23  and  O_24 
ROOT
HETATM    1  C   UNL     1       7.349  32.126  61.748  1.00  0.00     0.035 A 
HETATM    2  C   UNL     1       7.012  31.682  60.467  1.00  0.00     0.046 A 
HETATM    3  C   UNL     1       7.899  30.869  59.744  1.00  0.00     0.034 A 
HETATM    4  C   UNL     1       9.136  30.519  60.295  1.00  0.00     0.017 A 
HETATM    5  C   UNL     1       9.473  30.950  61.575  1.00  0.00     0.003 A 
HETATM    6  C   UNL     1       8.580  31.745  62.298  1.00  0.00     0.029 A 
ENDROOT
BRANCH   3   7
HETATM    7  C   UNL     1       7.577  30.399  58.373  1.00  0.00     0.251 C 
HETATM    8  N   UNL     1       8.393  29.415  57.858  1.00  0.00    -0.357 N 
HETATM    9  H   UNL     1       9.157  29.051  58.413  1.00  0.00     0.162 HD
HETATM   10  O   UNL     1       6.642  30.902  57.760  1.00  0.00    -0.268 OA
BRANCH   8  11
HETATM   11  C   UNL     1       8.105  28.779  56.584  1.00  0.00     0.127 C 
BRANCH  11  12
HETATM   12  C   UNL     1       7.968  27.256  56.690  1.00  0.00     0.061 C 
BRANCH  12  13
HETATM   13  C   UNL     1       7.125  26.523  55.659  1.00  0.00    -0.021 A 
HETATM   14  C   UNL     1       7.240  25.117  55.564  1.00  0.00     0.074 A 
HETATM   15  C   UNL     1       6.476  24.417  54.629  1.00  0.00     0.040 A 
HETATM   16  C   UNL     1       5.614  25.101  53.771  1.00  0.00     0.039 A 
HETATM   17  C   UNL     1       5.508  26.489  53.829  1.00  0.00     0.068 A 
HETATM   18  C   UNL     1       6.268  27.194  54.765  1.00  0.00     0.046 A 
BRANCH  14  19
HETATM   19  O   UNL     1       8.122  24.530  56.436  1.00  0.00    -0.355 OA
HETATM   20  C   UNL     1       8.961  23.502  55.924  1.00  0.00     0.210 C 
ENDBRANCH  14  19
BRANCH  17  21
HETATM   21  O   UNL     1       4.637  27.030  52.923  1.00  0.00    -0.356 OA
HETATM   22  C   UNL     1       5.202  27.749  51.834  1.00  0.00     0.210 C 
ENDBRANCH  17  21
ENDBRANCH  12  13
ENDBRANCH  11  12
ENDBRANCH   8  11
ENDBRANCH   3   7
BRANCH   1  23
HETATM   23  N   UNL     1       6.524  32.953  62.535  1.00  0.00    -0.322 N 
HETATM   24  C   UNL     1       5.414  32.598  63.278  1.00  0.00     0.265 C 
HETATM   25  O   UNL     1       4.952  31.464  63.358  1.00  0.00    -0.267 OA
HETATM   26  H   UNL     1       6.731  33.947  62.522  1.00  0.00     0.169 HD
BRANCH  24  27
HETATM   27  C   UNL     1       4.760  33.770  63.999  1.00  0.00     0.097 C 
HETATM   28  C   UNL     1       4.038  34.695  63.320  1.00  0.00     0.064 C 
HETATM   29  C   UNL     1       3.704  34.593  61.853  1.00  0.00     0.078 C 
HETATM   30  O   UNL     1       3.467  35.832  63.873  1.00  0.00    -0.353 OA
HETATM   31  C   UNL     1       3.993  36.266  65.127  1.00  0.00     0.185 C 
HETATM   32  C   UNL     1       3.883  35.175  66.170  1.00  0.00     0.106 C 
HETATM   33  S   UNL     1       5.026  33.844  65.730  1.00  0.00    -0.120 SA
ENDBRANCH  24  27
ENDBRANCH   1  23
TORSDOF 8
ENDMDL
