MODEL 1
REMARK VINA RESULT:      -8.6      0.000      0.000
REMARK  4 active torsions:
REMARK  status: ('A' for Active; 'I' for Inactive)
REMARK    1  A    between atoms: C_5  and  C_6 
REMARK    2  A    between atoms: C_10  and  N_11 
REMARK       I    between atoms: N_11  and  C_12 
REMARK    3  A    between atoms: C_12  and  C_13 
REMARK    4  A    between atoms: C_13  and  O_14 
ROOT
HETATM    1  C   UNL     1       6.665  24.824  53.105  1.00  0.00     0.070 A 
HETATM    2  N   UNL     1       5.406  25.323  53.328  1.00  0.00    -0.275 N 
HETATM    3  H   UNL     1       4.824  25.179  54.148  1.00  0.00     0.189 HD
HETATM    4  N   UNL     1       4.923  26.079  52.328  1.00  0.00    -0.156 NA
HETATM    5  C   UNL     1       5.881  26.037  51.401  1.00  0.00     0.152 A 
HETATM    6  C   UNL     1       6.988  25.282  51.841  1.00  0.00     0.084 A 
ENDROOT
BRANCH   5   7
HETATM    7  N   UNL     1       5.682  26.690  50.214  1.00  0.00    -0.308 N 
HETATM    8  C   UNL     1       4.739  26.370  49.261  1.00  0.00     0.258 C 
HETATM    9  O   UNL     1       3.941  25.440  49.331  1.00  0.00    -0.270 OA
HETATM   10  H   UNL     1       6.205  27.553  50.111  1.00  0.00     0.170 HD
BRANCH   8  11
HETATM   11  C   UNL     1       4.805  27.321  48.036  1.00  0.00     0.140 C 
HETATM   12  C   UNL     1       3.458  27.330  47.298  1.00  0.00     0.058 C 
HETATM   13  C   UNL     1       2.342  28.035  48.056  1.00  0.00     0.077 C 
HETATM   14  S   UNL     1       2.735  29.784  48.312  1.00  0.00    -0.169 SA
HETATM   15  C   UNL     1       4.302  29.580  49.199  1.00  0.00     0.077 C 
HETATM   16  C   UNL     1       5.293  28.727  48.416  1.00  0.00     0.058 C 
BRANCH  11  17
HETATM   17  O   UNL     1       5.766  26.756  47.116  1.00  0.00    -0.380 OA
HETATM   18  H   UNL     1       5.447  26.935  46.212  1.00  0.00     0.211 HD
ENDBRANCH  11  17
ENDBRANCH   8  11
ENDBRANCH   5   7
BRANCH   1  19
HETATM   19  C   UNL     1       7.395  23.990  54.065  1.00  0.00     0.069 A 
HETATM   20  C   UNL     1       7.848  24.505  55.287  1.00  0.00     0.132 A 
HETATM   21  C   UNL     1       8.527  23.716  56.217  1.00  0.00     0.043 A 
HETATM   22  F   UNL     1       7.635  25.795  55.598  1.00  0.00    -0.205 F 
HETATM   23  C   UNL     1       8.780  22.376  55.938  1.00  0.00     0.006 A 
HETATM   24  C   UNL     1       8.350  21.838  54.727  1.00  0.00     0.043 A 
HETATM   25  C   UNL     1       7.666  22.639  53.808  1.00  0.00     0.132 A 
HETATM   26  F   UNL     1       7.289  22.071  52.653  1.00  0.00    -0.205 F 
ENDBRANCH   1  19
TORSDOF 4
ENDMDL
MODEL 2
REMARK VINA RESULT:      -8.6      0.029      1.723
REMARK  4 active torsions:
REMARK  status: ('A' for Active; 'I' for Inactive)
REMARK    1  A    between atoms: C_5  and  C_6 
REMARK    2  A    between atoms: C_10  and  N_11 
REMARK       I    between atoms: N_11  and  C_12 
REMARK    3  A    between atoms: C_12  and  C_13 
REMARK    4  A    between atoms: C_13  and  O_14 
ROOT
HETATM    1  C   UNL     1       6.667  24.837  53.096  1.00  0.00     0.070 A 
HETATM    2  N   UNL     1       5.406  25.333  53.320  1.00  0.00    -0.275 N 
HETATM    3  H   UNL     1       4.825  25.187  54.140  1.00  0.00     0.189 HD
HETATM    4  N   UNL     1       4.923  26.089  52.321  1.00  0.00    -0.156 NA
HETATM    5  C   UNL     1       5.880  26.050  51.393  1.00  0.00     0.152 A 
HETATM    6  C   UNL     1       6.990  25.297  51.832  1.00  0.00     0.084 A 
ENDROOT
BRANCH   5   7
HETATM    7  N   UNL     1       5.680  26.704  50.207  1.00  0.00    -0.308 N 
HETATM    8  C   UNL     1       4.737  26.384  49.255  1.00  0.00     0.258 C 
HETATM    9  O   UNL     1       3.939  25.454  49.325  1.00  0.00    -0.270 OA
HETATM   10  H   UNL     1       6.203  27.566  50.104  1.00  0.00     0.170 HD
BRANCH   8  11
HETATM   11  C   UNL     1       4.801  27.337  48.030  1.00  0.00     0.140 C 
HETATM   12  C   UNL     1       3.457  27.338  47.287  1.00  0.00     0.058 C 
HETATM   13  C   UNL     1       2.335  28.037  48.042  1.00  0.00     0.077 C 
HETATM   14  S   UNL     1       2.717  29.788  48.301  1.00  0.00    -0.169 SA
HETATM   15  C   UNL     1       4.282  29.592  49.192  1.00  0.00     0.077 C 
HETATM   16  C   UNL     1       5.280  28.745  48.412  1.00  0.00     0.058 C 
BRANCH  11  17
HETATM   17  O   UNL     1       5.768  26.776  47.113  1.00  0.00    -0.380 OA
HETATM   18  H   UNL     1       6.648  27.102  47.379  1.00  0.00     0.211 HD
ENDBRANCH  11  17
ENDBRANCH   8  11
ENDBRANCH   5   7
BRANCH   1  19
HETATM   19  C   UNL     1       7.398  24.003  54.055  1.00  0.00     0.069 A 
HETATM   20  C   UNL     1       7.678  22.655  53.790  1.00  0.00     0.132 A 
HETATM   21  C   UNL     1       8.389  21.856  54.687  1.00  0.00     0.043 A 
HETATM   22  F   UNL     1       7.260  22.091  52.644  1.00  0.00    -0.205 F 
HETATM   23  C   UNL     1       8.836  22.393  55.891  1.00  0.00     0.006 A 
HETATM   24  C   UNL     1       8.564  23.726  56.187  1.00  0.00     0.043 A 
HETATM   25  C   UNL     1       7.856  24.515  55.276  1.00  0.00     0.132 A 
HETATM   26  F   UNL     1       7.612  25.789  55.621  1.00  0.00    -0.205 F 
ENDBRANCH   1  19
TORSDOF 4
ENDMDL
MODEL 3
REMARK VINA RESULT:      -8.5      6.027      7.005
REMARK  4 active torsions:
REMARK  status: ('A' for Active; 'I' for Inactive)
REMARK    1  A    between atoms: C_5  and  C_6 
REMARK    2  A    between atoms: C_10  and  N_11 
REMARK       I    between atoms: N_11  and  C_12 
REMARK    3  A    between atoms: C_12  and  C_13 
REMARK    4  A    between atoms: C_13  and  O_14 
ROOT
HETATM    1  C   UNL     1       7.503  23.738  55.182  1.00  0.00     0.070 A 
HETATM    2  N   UNL     1       6.221  24.069  55.547  1.00  0.00    -0.275 N 
HETATM    3  H   UNL     1       5.424  23.445  55.626  1.00  0.00     0.189 HD
HETATM    4  N   UNL     1       6.041  25.372  55.819  1.00  0.00    -0.156 NA
HETATM    5  C   UNL     1       7.234  25.919  55.582  1.00  0.00     0.152 A 
HETATM    6  C   UNL     1       8.178  24.945  55.197  1.00  0.00     0.084 A 
ENDROOT
BRANCH   5   7
HETATM    7  N   UNL     1       7.383  27.272  55.732  1.00  0.00    -0.308 N 
HETATM    8  C   UNL     1       7.696  27.927  56.904  1.00  0.00     0.258 C 
HETATM    9  O   UNL     1       7.878  27.393  57.993  1.00  0.00    -0.270 OA
HETATM   10  H   UNL     1       7.377  27.800  54.866  1.00  0.00     0.170 HD
BRANCH   8  11
HETATM   11  C   UNL     1       7.776  29.466  56.706  1.00  0.00     0.140 C 
HETATM   12  C   UNL     1       7.212  30.189  57.938  1.00  0.00     0.058 C 
HETATM   13  C   UNL     1       8.095  30.087  59.173  1.00  0.00     0.077 C 
HETATM   14  S   UNL     1       9.707  30.861  58.885  1.00  0.00    -0.169 SA
HETATM   15  C   UNL     1      10.221  29.884  57.448  1.00  0.00     0.077 C 
HETATM   16  C   UNL     1       9.189  29.931  56.328  1.00  0.00     0.058 C 
BRANCH  11  17
HETATM   17  O   UNL     1       6.895  29.793  55.608  1.00  0.00    -0.380 OA
HETATM   18  H   UNL     1       6.196  30.378  55.955  1.00  0.00     0.211 HD
ENDBRANCH  11  17
ENDBRANCH   8  11
ENDBRANCH   5   7
BRANCH   1  19
HETATM   19  C   UNL     1       7.932  22.375  54.857  1.00  0.00     0.069 A 
HETATM   20  C   UNL     1       8.286  21.459  55.859  1.00  0.00     0.132 A 
HETATM   21  C   UNL     1       8.678  20.153  55.564  1.00  0.00     0.043 A 
HETATM   22  F   UNL     1       8.252  21.826  57.151  1.00  0.00    -0.205 F 
HETATM   23  C   UNL     1       8.736  19.728  54.239  1.00  0.00     0.006 A 
HETATM   24  C   UNL     1       8.401  20.618  53.222  1.00  0.00     0.043 A 
HETATM   25  C   UNL     1       8.004  21.921  53.533  1.00  0.00     0.132 A 
HETATM   26  F   UNL     1       7.706  22.738  52.512  1.00  0.00    -0.205 F 
ENDBRANCH   1  19
TORSDOF 4
ENDMDL
MODEL 4
REMARK VINA RESULT:      -8.4      2.121      2.918
REMARK  4 active torsions:
REMARK  status: ('A' for Active; 'I' for Inactive)
REMARK    1  A    between atoms: C_5  and  C_6 
REMARK    2  A    between atoms: C_10  and  N_11 
REMARK       I    between atoms: N_11  and  C_12 
REMARK    3  A    between atoms: C_12  and  C_13 
REMARK    4  A    between atoms: C_13  and  O_14 
ROOT
HETATM    1  C   UNL     1       7.262  23.620  53.528  1.00  0.00     0.070 A 
HETATM    2  N   UNL     1       8.035  24.174  52.538  1.00  0.00    -0.275 N 
HETATM    3  H   UNL     1       8.995  23.938  52.302  1.00  0.00     0.189 HD
HETATM    4  N   UNL     1       7.419  25.131  51.824  1.00  0.00    -0.156 NA
HETATM    5  C   UNL     1       6.219  25.237  52.396  1.00  0.00     0.152 A 
HETATM    6  C   UNL     1       6.068  24.311  53.449  1.00  0.00     0.084 A 
ENDROOT
BRANCH   5   7
HETATM    7  N   UNL     1       5.339  26.172  51.919  1.00  0.00    -0.308 N 
HETATM    8  C   UNL     1       5.386  27.528  52.164  1.00  0.00     0.258 C 
HETATM    9  O   UNL     1       6.220  28.099  52.859  1.00  0.00    -0.270 OA
HETATM   10  H   UNL     1       4.681  25.824  51.230  1.00  0.00     0.170 HD
BRANCH   8  11
HETATM   11  C   UNL     1       4.222  28.285  51.469  1.00  0.00     0.140 C 
HETATM   12  C   UNL     1       4.476  29.799  51.504  1.00  0.00     0.058 C 
HETATM   13  C   UNL     1       5.604  30.257  50.592  1.00  0.00     0.077 C 
HETATM   14  S   UNL     1       5.224  29.898  48.858  1.00  0.00    -0.169 SA
HETATM   15  C   UNL     1       4.987  28.107  49.001  1.00  0.00     0.077 C 
HETATM   16  C   UNL     1       3.945  27.753  50.055  1.00  0.00     0.058 C 
BRANCH  11  17
HETATM   17  O   UNL     1       3.037  28.055  52.265  1.00  0.00    -0.380 OA
HETATM   18  H   UNL     1       2.363  27.662  51.681  1.00  0.00     0.211 HD
ENDBRANCH  11  17
ENDBRANCH   8  11
ENDBRANCH   5   7
BRANCH   1  19
HETATM   19  C   UNL     1       7.721  22.548  54.418  1.00  0.00     0.069 A 
HETATM   20  C   UNL     1       7.954  22.777  55.782  1.00  0.00     0.132 A 
HETATM   21  C   UNL     1       8.373  21.761  56.642  1.00  0.00     0.043 A 
HETATM   22  F   UNL     1       7.774  24.003  56.301  1.00  0.00    -0.205 F 
HETATM   23  C   UNL     1       8.580  20.476  56.149  1.00  0.00     0.006 A 
HETATM   24  C   UNL     1       8.367  20.220  54.797  1.00  0.00     0.043 A 
HETATM   25  C   UNL     1       7.942  21.246  53.949  1.00  0.00     0.132 A 
HETATM   26  F   UNL     1       7.767  20.945  52.654  1.00  0.00    -0.205 F 
ENDBRANCH   1  19
TORSDOF 4
ENDMDL
MODEL 5
REMARK VINA RESULT:      -8.4      2.121      3.377
REMARK  4 active torsions:
REMARK  status: ('A' for Active; 'I' for Inactive)
REMARK    1  A    between atoms: C_5  and  C_6 
REMARK    2  A    between atoms: C_10  and  N_11 
REMARK       I    between atoms: N_11  and  C_12 
REMARK    3  A    between atoms: C_12  and  C_13 
REMARK    4  A    between atoms: C_13  and  O_14 
ROOT
HETATM    1  C   UNL     1       7.249  23.632  53.527  1.00  0.00     0.070 A 
HETATM    2  N   UNL     1       8.027  24.195  52.546  1.00  0.00    -0.275 N 
HETATM    3  H   UNL     1       8.989  23.964  52.316  1.00  0.00     0.189 HD
HETATM    4  N   UNL     1       7.413  25.155  51.834  1.00  0.00    -0.156 NA
HETATM    5  C   UNL     1       6.209  25.254  52.397  1.00  0.00     0.152 A 
HETATM    6  C   UNL     1       6.053  24.320  53.443  1.00  0.00     0.084 A 
ENDROOT
BRANCH   5   7
HETATM    7  N   UNL     1       5.329  26.188  51.919  1.00  0.00    -0.308 N 
HETATM    8  C   UNL     1       5.371  27.543  52.171  1.00  0.00     0.258 C 
HETATM    9  O   UNL     1       6.200  28.113  52.874  1.00  0.00    -0.270 OA
HETATM   10  H   UNL     1       4.676  25.842  51.225  1.00  0.00     0.170 HD
BRANCH   8  11
HETATM   11  C   UNL     1       4.209  28.300  51.473  1.00  0.00     0.140 C 
HETATM   12  C   UNL     1       4.468  29.813  51.502  1.00  0.00     0.058 C 
HETATM   13  C   UNL     1       5.597  30.265  50.587  1.00  0.00     0.077 C 
HETATM   14  S   UNL     1       5.216  29.899  48.855  1.00  0.00    -0.169 SA
HETATM   15  C   UNL     1       4.973  28.110  49.006  1.00  0.00     0.077 C 
HETATM   16  C   UNL     1       3.930  27.763  50.061  1.00  0.00     0.058 C 
BRANCH  11  17
HETATM   17  O   UNL     1       3.024  28.078  52.270  1.00  0.00    -0.380 OA
HETATM   18  H   UNL     1       2.270  27.989  51.658  1.00  0.00     0.211 HD
ENDBRANCH  11  17
ENDBRANCH   8  11
ENDBRANCH   5   7
BRANCH   1  19
HETATM   19  C   UNL     1       7.705  22.556  54.413  1.00  0.00     0.069 A 
HETATM   20  C   UNL     1       7.926  21.257  53.934  1.00  0.00     0.132 A 
HETATM   21  C   UNL     1       8.378  20.229  54.764  1.00  0.00     0.043 A 
HETATM   22  F   UNL     1       7.705  20.966  52.641  1.00  0.00    -0.205 F 
HETATM   23  C   UNL     1       8.613  20.479  56.113  1.00  0.00     0.006 A 
HETATM   24  C   UNL     1       8.393  21.757  56.620  1.00  0.00     0.043 A 
HETATM   25  C   UNL     1       7.946  22.778  55.775  1.00  0.00     0.132 A 
HETATM   26  F   UNL     1       7.737  23.985  56.321  1.00  0.00    -0.205 F 
ENDBRANCH   1  19
TORSDOF 4
ENDMDL
MODEL 6
REMARK VINA RESULT:      -8.3      6.008      6.902
REMARK  4 active torsions:
REMARK  status: ('A' for Active; 'I' for Inactive)
REMARK    1  A    between atoms: C_5  and  C_6 
REMARK    2  A    between atoms: C_10  and  N_11 
REMARK       I    between atoms: N_11  and  C_12 
REMARK    3  A    between atoms: C_12  and  C_13 
REMARK    4  A    between atoms: C_13  and  O_14 
ROOT
HETATM    1  C   UNL     1       7.563  23.786  55.237  1.00  0.00     0.070 A 
HETATM    2  N   UNL     1       6.312  24.177  55.645  1.00  0.00    -0.275 N 
HETATM    3  H   UNL     1       5.491  23.590  55.760  1.00  0.00     0.189 HD
HETATM    4  N   UNL     1       6.200  25.489  55.910  1.00  0.00    -0.156 NA
HETATM    5  C   UNL     1       7.406  25.980  55.623  1.00  0.00     0.152 A 
HETATM    6  C   UNL     1       8.292  24.961  55.214  1.00  0.00     0.084 A 
ENDROOT
BRANCH   5   7
HETATM    7  N   UNL     1       7.621  27.327  55.753  1.00  0.00    -0.308 N 
HETATM    8  C   UNL     1       7.942  27.986  56.920  1.00  0.00     0.258 C 
HETATM    9  O   UNL     1       8.073  27.464  58.023  1.00  0.00    -0.270 OA
HETATM   10  H   UNL     1       7.661  27.838  54.878  1.00  0.00     0.170 HD
BRANCH   8  11
HETATM   11  C   UNL     1       8.104  29.515  56.698  1.00  0.00     0.140 C 
HETATM   12  C   UNL     1       6.736  30.162  56.442  1.00  0.00     0.058 C 
HETATM   13  C   UNL     1       5.839  30.219  57.671  1.00  0.00     0.077 C 
HETATM   14  S   UNL     1       6.588  31.230  58.975  1.00  0.00    -0.169 SA
HETATM   15  C   UNL     1       8.144  30.321  59.159  1.00  0.00     0.077 C 
HETATM   16  C   UNL     1       8.887  30.188  57.835  1.00  0.00     0.058 C 
BRANCH  11  17
HETATM   17  O   UNL     1       8.865  29.683  55.480  1.00  0.00    -0.380 OA
HETATM   18  H   UNL     1       9.375  30.510  55.565  1.00  0.00     0.211 HD
ENDBRANCH  11  17
ENDBRANCH   8  11
ENDBRANCH   5   7
BRANCH   1  19
HETATM   19  C   UNL     1       7.919  22.402  54.911  1.00  0.00     0.069 A 
HETATM   20  C   UNL     1       7.925  21.939  53.587  1.00  0.00     0.132 A 
HETATM   21  C   UNL     1       8.281  20.628  53.262  1.00  0.00     0.043 A 
HETATM   22  F   UNL     1       7.583  22.762  52.582  1.00  0.00    -0.205 F 
HETATM   23  C   UNL     1       8.635  19.736  54.270  1.00  0.00     0.006 A 
HETATM   24  C   UNL     1       8.628  20.163  55.595  1.00  0.00     0.043 A 
HETATM   25  C   UNL     1       8.276  21.480  55.904  1.00  0.00     0.132 A 
HETATM   26  F   UNL     1       8.274  21.832  57.198  1.00  0.00    -0.205 F 
ENDBRANCH   1  19
TORSDOF 4
ENDMDL
MODEL 7
REMARK VINA RESULT:      -7.9      5.401      6.451
REMARK  4 active torsions:
REMARK  status: ('A' for Active; 'I' for Inactive)
REMARK    1  A    between atoms: C_5  and  C_6 
REMARK    2  A    between atoms: C_10  and  N_11 
REMARK       I    between atoms: N_11  and  C_12 
REMARK    3  A    between atoms: C_12  and  C_13 
REMARK    4  A    between atoms: C_13  and  O_14 
ROOT
HETATM    1  C   UNL     1       8.208  23.854  56.262  1.00  0.00     0.070 A 
HETATM    2  N   UNL     1       8.606  24.116  57.550  1.00  0.00    -0.275 N 
HETATM    3  H   UNL     1       9.040  23.470  58.202  1.00  0.00     0.189 HD
HETATM    4  N   UNL     1       8.379  25.376  57.954  1.00  0.00    -0.156 NA
HETATM    5  C   UNL     1       7.772  25.946  56.912  1.00  0.00     0.152 A 
HETATM    6  C   UNL     1       7.655  25.046  55.832  1.00  0.00     0.084 A 
ENDROOT
BRANCH   5   7
HETATM    7  N   UNL     1       7.365  27.249  57.014  1.00  0.00    -0.308 N 
HETATM    8  C   UNL     1       6.064  27.683  57.150  1.00  0.00     0.258 C 
HETATM    9  O   UNL     1       5.072  26.962  57.188  1.00  0.00    -0.270 OA
HETATM   10  H   UNL     1       8.116  27.922  57.120  1.00  0.00     0.170 HD
BRANCH   8  11
HETATM   11  C   UNL     1       5.973  29.232  57.228  1.00  0.00     0.140 C 
HETATM   12  C   UNL     1       6.535  29.862  55.945  1.00  0.00     0.058 C 
HETATM   13  C   UNL     1       5.657  29.658  54.719  1.00  0.00     0.077 C 
HETATM   14  S   UNL     1       4.038  30.440  54.943  1.00  0.00    -0.169 SA
HETATM   15  C   UNL     1       3.527  29.574  56.449  1.00  0.00     0.077 C 
HETATM   16  C   UNL     1       4.554  29.715  57.565  1.00  0.00     0.058 C 
BRANCH  11  17
HETATM   17  O   UNL     1       6.847  29.650  58.300  1.00  0.00    -0.380 OA
HETATM   18  H   UNL     1       6.920  30.621  58.258  1.00  0.00     0.211 HD
ENDBRANCH  11  17
ENDBRANCH   8  11
ENDBRANCH   5   7
BRANCH   1  19
HETATM   19  C   UNL     1       8.373  22.553  55.605  1.00  0.00     0.069 A 
HETATM   20  C   UNL     1       8.511  22.447  54.214  1.00  0.00     0.132 A 
HETATM   21  C   UNL     1       8.687  21.216  53.579  1.00  0.00     0.043 A 
HETATM   22  F   UNL     1       8.476  23.548  53.445  1.00  0.00    -0.205 F 
HETATM   23  C   UNL     1       8.722  20.046  54.332  1.00  0.00     0.006 A 
HETATM   24  C   UNL     1       8.578  20.118  55.715  1.00  0.00     0.043 A 
HETATM   25  C   UNL     1       8.408  21.359  56.337  1.00  0.00     0.132 A 
HETATM   26  F   UNL     1       8.260  21.367  57.670  1.00  0.00    -0.205 F 
ENDBRANCH   1  19
TORSDOF 4
ENDMDL
MODEL 8
REMARK VINA RESULT:      -7.8      5.402      6.501
REMARK  4 active torsions:
REMARK  status: ('A' for Active; 'I' for Inactive)
REMARK    1  A    between atoms: C_5  and  C_6 
REMARK    2  A    between atoms: C_10  and  N_11 
REMARK       I    between atoms: N_11  and  C_12 
REMARK    3  A    between atoms: C_12  and  C_13 
REMARK    4  A    between atoms: C_13  and  O_14 
ROOT
HETATM    1  C   UNL     1       6.260  25.167  55.767  1.00  0.00     0.070 A 
HETATM    2  N   UNL     1       5.530  24.825  56.879  1.00  0.00    -0.275 N 
HETATM    3  H   UNL     1       5.465  23.910  57.314  1.00  0.00     0.189 HD
HETATM    4  N   UNL     1       4.838  25.840  57.421  1.00  0.00    -0.156 NA
HETATM    5  C   UNL     1       5.088  26.870  56.611  1.00  0.00     0.152 A 
HETATM    6  C   UNL     1       5.976  26.507  55.578  1.00  0.00     0.084 A 
ENDROOT
BRANCH   5   7
HETATM    7  N   UNL     1       4.489  28.075  56.869  1.00  0.00    -0.308 N 
HETATM    8  C   UNL     1       5.113  29.199  57.366  1.00  0.00     0.258 C 
HETATM    9  O   UNL     1       6.300  29.284  57.664  1.00  0.00    -0.270 OA
HETATM   10  H   UNL     1       3.533  28.153  56.541  1.00  0.00     0.170 HD
BRANCH   8  11
HETATM   11  C   UNL     1       4.123  30.383  57.542  1.00  0.00     0.140 C 
HETATM   12  C   UNL     1       4.888  31.713  57.581  1.00  0.00     0.058 C 
HETATM   13  C   UNL     1       5.480  32.126  56.241  1.00  0.00     0.077 C 
HETATM   14  S   UNL     1       4.177  32.383  55.008  1.00  0.00    -0.169 SA
HETATM   15  C   UNL     1       3.416  30.741  55.077  1.00  0.00     0.077 C 
HETATM   16  C   UNL     1       3.001  30.363  56.493  1.00  0.00     0.058 C 
BRANCH  11  17
HETATM   17  O   UNL     1       3.512  30.230  58.843  1.00  0.00    -0.380 OA
HETATM   18  H   UNL     1       3.152  29.325  58.894  1.00  0.00     0.211 HD
ENDBRANCH  11  17
ENDBRANCH   8  11
ENDBRANCH   5   7
BRANCH   1  19
HETATM   19  C   UNL     1       7.103  24.226  55.024  1.00  0.00     0.069 A 
HETATM   20  C   UNL     1       8.264  23.678  55.588  1.00  0.00     0.132 A 
HETATM   21  C   UNL     1       9.065  22.767  54.897  1.00  0.00     0.043 A 
HETATM   22  F   UNL     1       8.639  24.024  56.831  1.00  0.00    -0.205 F 
HETATM   23  C   UNL     1       8.723  22.384  53.604  1.00  0.00     0.006 A 
HETATM   24  C   UNL     1       7.581  22.919  53.012  1.00  0.00     0.043 A 
HETATM   25  C   UNL     1       6.786  23.826  53.719  1.00  0.00     0.132 A 
HETATM   26  F   UNL     1       5.706  24.318  53.094  1.00  0.00    -0.205 F 
ENDBRANCH   1  19
TORSDOF 4
ENDMDL
MODEL 9
REMARK VINA RESULT:      -7.6      1.924      2.335
REMARK  4 active torsions:
REMARK  status: ('A' for Active; 'I' for Inactive)
REMARK    1  A    between atoms: C_5  and  C_6 
REMARK    2  A    between atoms: C_10  and  N_11 
REMARK       I    between atoms: N_11  and  C_12 
REMARK    3  A    between atoms: C_12  and  C_13 
REMARK    4  A    between atoms: C_13  and  O_14 
ROOT
HETATM    1  C   UNL     1       6.310  25.271  53.588  1.00  0.00     0.070 A 
HETATM    2  N   UNL     1       4.945  25.373  53.697  1.00  0.00    -0.275 N 
HETATM    3  H   UNL     1       4.308  24.691  54.099  1.00  0.00     0.189 HD
HETATM    4  N   UNL     1       4.433  26.513  53.207  1.00  0.00    -0.156 NA
HETATM    5  C   UNL     1       5.493  27.160  52.719  1.00  0.00     0.152 A 
HETATM    6  C   UNL     1       6.683  26.437  52.944  1.00  0.00     0.084 A 
ENDROOT
BRANCH   5   7
HETATM    7  N   UNL     1       5.305  28.368  52.102  1.00  0.00    -0.308 N 
HETATM    8  C   UNL     1       5.254  28.583  50.742  1.00  0.00     0.258 C 
HETATM    9  O   UNL     1       5.381  27.722  49.878  1.00  0.00    -0.270 OA
HETATM   10  H   UNL     1       5.064  29.131  52.725  1.00  0.00     0.170 HD
BRANCH   8  11
HETATM   11  C   UNL     1       5.037  30.082  50.398  1.00  0.00     0.140 C 
HETATM   12  C   UNL     1       4.752  30.248  48.899  1.00  0.00     0.058 C 
HETATM   13  C   UNL     1       3.387  29.730  48.468  1.00  0.00     0.077 C 
HETATM   14  S   UNL     1       2.056  30.643  49.291  1.00  0.00    -0.169 SA
HETATM   15  C   UNL     1       2.531  30.320  51.008  1.00  0.00     0.077 C 
HETATM   16  C   UNL     1       3.970  30.734  51.290  1.00  0.00     0.058 C 
BRANCH  11  17
HETATM   17  O   UNL     1       6.291  30.756  50.648  1.00  0.00    -0.380 OA
HETATM   18  H   UNL     1       6.805  30.737  49.819  1.00  0.00     0.211 HD
ENDBRANCH  11  17
ENDBRANCH   8  11
ENDBRANCH   5   7
BRANCH   1  19
HETATM   19  C   UNL     1       7.084  24.124  54.071  1.00  0.00     0.069 A 
HETATM   20  C   UNL     1       7.071  23.747  55.421  1.00  0.00     0.132 A 
HETATM   21  C   UNL     1       7.789  22.646  55.890  1.00  0.00     0.043 A 
HETATM   22  F   UNL     1       6.353  24.452  56.312  1.00  0.00    -0.205 F 
HETATM   23  C   UNL     1       8.555  21.890  55.007  1.00  0.00     0.006 A 
HETATM   24  C   UNL     1       8.596  22.245  53.661  1.00  0.00     0.043 A 
HETATM   25  C   UNL     1       7.867  23.347  53.206  1.00  0.00     0.132 A 
HETATM   26  F   UNL     1       7.955  23.651  51.902  1.00  0.00    -0.205 F 
ENDBRANCH   1  19
TORSDOF 4
ENDMDL
MODEL 10
REMARK VINA RESULT:      -7.6     15.997     17.654
REMARK  4 active torsions:
REMARK  status: ('A' for Active; 'I' for Inactive)
REMARK    1  A    between atoms: C_5  and  C_6 
REMARK    2  A    between atoms: C_10  and  N_11 
REMARK       I    between atoms: N_11  and  C_12 
REMARK    3  A    between atoms: C_12  and  C_13 
REMARK    4  A    between atoms: C_13  and  O_14 
ROOT
HETATM    1  C   UNL     1       6.297  34.267  68.679  1.00  0.00     0.070 A 
HETATM    2  N   UNL     1       5.044  34.822  68.573  1.00  0.00    -0.275 N 
HETATM    3  H   UNL     1       4.392  35.013  69.327  1.00  0.00     0.189 HD
HETATM    4  N   UNL     1       4.678  35.129  67.318  1.00  0.00    -0.156 NA
HETATM    5  C   UNL     1       5.707  34.722  66.573  1.00  0.00     0.152 A 
HETATM    6  C   UNL     1       6.742  34.192  67.372  1.00  0.00     0.084 A 
ENDROOT
BRANCH   5   7
HETATM    7  N   UNL     1       5.634  34.860  65.212  1.00  0.00    -0.308 N 
HETATM    8  C   UNL     1       5.185  33.907  64.324  1.00  0.00     0.258 C 
HETATM    9  O   UNL     1       4.793  32.783  64.621  1.00  0.00    -0.270 OA
HETATM   10  H   UNL     1       5.816  35.797  64.870  1.00  0.00     0.170 HD
BRANCH   8  11
HETATM   11  C   UNL     1       5.251  34.405  62.854  1.00  0.00     0.140 C 
HETATM   12  C   UNL     1       4.379  33.518  61.954  1.00  0.00     0.058 C 
HETATM   13  C   UNL     1       2.883  33.695  62.173  1.00  0.00     0.077 C 
HETATM   14  S   UNL     1       2.366  35.387  61.787  1.00  0.00    -0.169 SA
HETATM   15  C   UNL     1       3.455  36.269  62.936  1.00  0.00     0.077 C 
HETATM   16  C   UNL     1       4.919  35.899  62.732  1.00  0.00     0.058 C 
BRANCH  11  17
HETATM   17  O   UNL     1       6.613  34.218  62.408  1.00  0.00    -0.380 OA
HETATM   18  H   UNL     1       6.582  33.720  61.571  1.00  0.00     0.211 HD
ENDBRANCH  11  17
ENDBRANCH   8  11
ENDBRANCH   5   7
BRANCH   1  19
HETATM   19  C   UNL     1       6.909  33.870  69.950  1.00  0.00     0.069 A 
HETATM   20  C   UNL     1       6.426  32.779  70.687  1.00  0.00     0.132 A 
HETATM   21  C   UNL     1       7.012  32.380  71.889  1.00  0.00     0.043 A 
HETATM   22  F   UNL     1       5.369  32.079  70.243  1.00  0.00    -0.205 F 
HETATM   23  C   UNL     1       8.105  33.079  72.394  1.00  0.00     0.006 A 
HETATM   24  C   UNL     1       8.600  34.173  71.691  1.00  0.00     0.043 A 
HETATM   25  C   UNL     1       8.007  34.557  70.485  1.00  0.00     0.132 A 
HETATM   26  F   UNL     1       8.518  35.627  69.858  1.00  0.00    -0.205 F 
ENDBRANCH   1  19
TORSDOF 4
ENDMDL
