MODEL 1
REMARK VINA RESULT:     -10.8      0.000      0.000
REMARK  6 active torsions:
REMARK  status: ('A' for Active; 'I' for Inactive)
REMARK    1  A    between atoms: O_2  and  C_3 
REMARK    2  A    between atoms: C_6  and  C_7 
REMARK    3  A    between atoms: C_11  and  C_12 
REMARK       I    between atoms: C_12  and  N_13 
REMARK    4  A    between atoms: N_13  and  N_14 
REMARK       I    between atoms: N_14  and  C_15 
REMARK    5  A    between atoms: C_15  and  C_16 
REMARK    6  A    between atoms: C_17  and  C_18 
ROOT
HETATM    1  C   UNL     1       8.932  29.361  57.544  1.00  0.00     0.288 C 
HETATM    2  N   UNL     1       7.864  28.500  57.409  1.00  0.00    -0.262 N 
HETATM    3  O   UNL     1       9.952  29.245  56.866  1.00  0.00    -0.264 OA
HETATM    4  H   UNL     1       6.980  28.610  57.897  1.00  0.00     0.190 HD
ENDROOT
BRANCH   1   5
HETATM    5  C   UNL     1       8.781  30.389  58.535  1.00  0.00     0.121 A 
HETATM    6  N   UNL     1       9.583  31.496  58.542  1.00  0.00    -0.272 N 
HETATM    7  N   UNL     1       9.350  32.338  59.558  1.00  0.00    -0.174 NA
HETATM    8  H   UNL     1      10.320  31.717  57.879  1.00  0.00     0.189 HD
HETATM    9  C   UNL     1       8.343  31.775  60.245  1.00  0.00     0.089 A 
HETATM   10  C   UNL     1       7.949  30.554  59.625  1.00  0.00     0.071 A 
BRANCH   9  11
HETATM   11  C   UNL     1       7.811  32.386  61.467  1.00  0.00    -0.005 A 
HETATM   12  C   UNL     1       8.430  32.191  62.707  1.00  0.00     0.016 A 
HETATM   13  C   UNL     1       7.924  32.808  63.857  1.00  0.00     0.037 A 
HETATM   14  C   UNL     1       6.798  33.632  63.792  1.00  0.00     0.068 A 
HETATM   15  C   UNL     1       6.166  33.818  62.564  1.00  0.00     0.037 A 
HETATM   16  C   UNL     1       6.669  33.198  61.413  1.00  0.00     0.016 A 
BRANCH  14  17
HETATM   17  O   UNL     1       6.419  34.182  64.984  1.00  0.00    -0.356 OA
HETATM   18  C   UNL     1       5.144  33.801  65.487  1.00  0.00     0.210 C 
ENDBRANCH  14  17
ENDBRANCH   9  11
ENDBRANCH   1   5
BRANCH   2  19
HETATM   19  N   UNL     1       7.937  27.481  56.459  1.00  0.00    -0.267 N 
HETATM   20  C   UNL     1       8.002  26.176  56.883  1.00  0.00     0.240 C 
HETATM   21  O   UNL     1       8.001  25.831  58.059  1.00  0.00    -0.271 OA
HETATM   22  H   UNL     1       7.998  27.755  55.479  1.00  0.00     0.190 HD
BRANCH  20  23
HETATM   23  C   UNL     1       8.105  25.199  55.774  1.00  0.00     0.089 A 
HETATM   24  C   UNL     1       7.138  24.023  55.772  1.00  0.00     0.036 A 
HETATM   25  C   UNL     1       7.057  25.079  54.700  1.00  0.00     0.025 A 
BRANCH  24  26
HETATM   26  C   UNL     1       7.699  22.646  55.516  1.00  0.00    -0.015 A 
HETATM   27  C   UNL     1       8.276  21.902  56.558  1.00  0.00     0.123 A 
HETATM   28  F   UNL     1       8.350  22.443  57.786  1.00  0.00    -0.206 F 
HETATM   29  C   UNL     1       8.782  20.619  56.366  1.00  0.00     0.043 A 
HETATM   30  C   UNL     1       8.726  20.041  55.102  1.00  0.00     0.003 A 
HETATM   31  C   UNL     1       8.158  20.751  54.045  1.00  0.00     0.001 A 
HETATM   32  C   UNL     1       7.646  22.036  54.253  1.00  0.00     0.011 A 
ENDBRANCH  24  26
ENDBRANCH  20  23
ENDBRANCH   2  19
TORSDOF 6
ENDMDL
MODEL 2
REMARK VINA RESULT:     -10.4      1.276      1.728
REMARK  6 active torsions:
REMARK  status: ('A' for Active; 'I' for Inactive)
REMARK    1  A    between atoms: O_2  and  C_3 
REMARK    2  A    between atoms: C_6  and  C_7 
REMARK    3  A    between atoms: C_11  and  C_12 
REMARK       I    between atoms: C_12  and  N_13 
REMARK    4  A    between atoms: N_13  and  N_14 
REMARK       I    between atoms: N_14  and  C_15 
REMARK    5  A    between atoms: C_15  and  C_16 
REMARK    6  A    between atoms: C_17  and  C_18 
ROOT
HETATM    1  C   UNL     1       8.360  29.941  58.441  1.00  0.00     0.288 C 
HETATM    2  N   UNL     1       7.239  29.176  58.197  1.00  0.00    -0.262 N 
HETATM    3  O   UNL     1       9.321  29.951  57.673  1.00  0.00    -0.264 OA
HETATM    4  H   UNL     1       6.399  29.201  58.768  1.00  0.00     0.190 HD
ENDROOT
BRANCH   1   5
HETATM    5  C   UNL     1       8.336  30.711  59.653  1.00  0.00     0.121 A 
HETATM    6  N   UNL     1       9.412  30.750  60.494  1.00  0.00    -0.272 N 
HETATM    7  N   UNL     1       9.216  31.472  61.606  1.00  0.00    -0.174 NA
HETATM    8  H   UNL     1      10.305  30.283  60.362  1.00  0.00     0.189 HD
HETATM    9  C   UNL     1       7.965  31.945  61.490  1.00  0.00     0.089 A 
HETATM   10  C   UNL     1       7.383  31.498  60.269  1.00  0.00     0.071 A 
BRANCH   9  11
HETATM   11  C   UNL     1       7.355  32.768  62.539  1.00  0.00    -0.005 A 
HETATM   12  C   UNL     1       6.225  33.554  62.283  1.00  0.00     0.016 A 
HETATM   13  C   UNL     1       5.640  34.309  63.306  1.00  0.00     0.037 A 
HETATM   14  C   UNL     1       6.165  34.291  64.600  1.00  0.00     0.068 A 
HETATM   15  C   UNL     1       7.299  33.524  64.860  1.00  0.00     0.037 A 
HETATM   16  C   UNL     1       7.888  32.771  63.835  1.00  0.00     0.016 A 
BRANCH  14  17
HETATM   17  O   UNL     1       5.490  35.061  65.505  1.00  0.00    -0.356 OA
HETATM   18  C   UNL     1       4.460  34.420  66.248  1.00  0.00     0.210 C 
ENDBRANCH  14  17
ENDBRANCH   9  11
ENDBRANCH   1   5
BRANCH   2  19
HETATM   19  N   UNL     1       7.188  28.409  57.033  1.00  0.00    -0.267 N 
HETATM   20  C   UNL     1       7.573  27.091  57.085  1.00  0.00     0.240 C 
HETATM   21  O   UNL     1       7.966  26.526  58.099  1.00  0.00    -0.271 OA
HETATM   22  H   UNL     1       6.919  28.879  56.170  1.00  0.00     0.190 HD
BRANCH  20  23
HETATM   23  C   UNL     1       7.498  26.402  55.776  1.00  0.00     0.089 A 
HETATM   24  C   UNL     1       6.835  25.032  55.732  1.00  0.00     0.036 A 
HETATM   25  C   UNL     1       6.202  26.209  55.035  1.00  0.00     0.025 A 
BRANCH  24  26
HETATM   26  C   UNL     1       7.541  23.928  54.985  1.00  0.00    -0.015 A 
HETATM   27  C   UNL     1       8.597  23.221  55.581  1.00  0.00     0.123 A 
HETATM   28  F   UNL     1       8.995  23.558  56.819  1.00  0.00    -0.206 F 
HETATM   29  C   UNL     1       9.257  22.179  54.932  1.00  0.00     0.043 A 
HETATM   30  C   UNL     1       8.870  21.817  53.646  1.00  0.00     0.003 A 
HETATM   31  C   UNL     1       7.822  22.497  53.025  1.00  0.00     0.001 A 
HETATM   32  C   UNL     1       7.164  23.536  53.690  1.00  0.00     0.011 A 
ENDBRANCH  24  26
ENDBRANCH  20  23
ENDBRANCH   2  19
TORSDOF 6
ENDMDL
MODEL 3
REMARK VINA RESULT:     -10.1      3.009     11.051
REMARK  6 active torsions:
REMARK  status: ('A' for Active; 'I' for Inactive)
REMARK    1  A    between atoms: O_2  and  C_3 
REMARK    2  A    between atoms: C_6  and  C_7 
REMARK    3  A    between atoms: C_11  and  C_12 
REMARK       I    between atoms: C_12  and  N_13 
REMARK    4  A    between atoms: N_13  and  N_14 
REMARK       I    between atoms: N_14  and  C_15 
REMARK    5  A    between atoms: C_15  and  C_16 
REMARK    6  A    between atoms: C_17  and  C_18 
ROOT
HETATM    1  C   UNL     1       6.781  29.574  57.377  1.00  0.00     0.288 C 
HETATM    2  N   UNL     1       7.565  29.306  58.478  1.00  0.00    -0.262 N 
HETATM    3  O   UNL     1       6.160  30.630  57.260  1.00  0.00    -0.264 OA
HETATM    4  H   UNL     1       8.149  28.480  58.572  1.00  0.00     0.190 HD
ENDROOT
BRANCH   1   5
HETATM    5  C   UNL     1       6.725  28.537  56.384  1.00  0.00     0.121 A 
HETATM    6  N   UNL     1       5.877  28.617  55.316  1.00  0.00    -0.272 N 
HETATM    7  N   UNL     1       5.907  27.549  54.508  1.00  0.00    -0.174 NA
HETATM    8  H   UNL     1       5.238  29.378  55.102  1.00  0.00     0.189 HD
HETATM    9  C   UNL     1       6.826  26.735  55.053  1.00  0.00     0.089 A 
HETATM   10  C   UNL     1       7.372  27.327  56.227  1.00  0.00     0.071 A 
BRANCH   9  11
HETATM   11  C   UNL     1       7.133  25.424  54.470  1.00  0.00    -0.005 A 
HETATM   12  C   UNL     1       7.597  25.303  53.155  1.00  0.00     0.016 A 
HETATM   13  C   UNL     1       7.913  24.046  52.628  1.00  0.00     0.037 A 
HETATM   14  C   UNL     1       7.778  22.890  53.400  1.00  0.00     0.068 A 
HETATM   15  C   UNL     1       7.301  23.000  54.705  1.00  0.00     0.037 A 
HETATM   16  C   UNL     1       6.979  24.258  55.232  1.00  0.00     0.016 A 
BRANCH  14  17
HETATM   17  O   UNL     1       8.134  21.732  52.769  1.00  0.00    -0.356 OA
HETATM   18  C   UNL     1       8.017  20.531  53.522  1.00  0.00     0.210 C 
ENDBRANCH  14  17
ENDBRANCH   9  11
ENDBRANCH   1   5
BRANCH   2  19
HETATM   19  N   UNL     1       7.674  30.272  59.479  1.00  0.00    -0.267 N 
HETATM   20  C   UNL     1       8.734  31.145  59.452  1.00  0.00     0.240 C 
HETATM   21  O   UNL     1       9.612  31.139  58.596  1.00  0.00    -0.271 OA
HETATM   22  H   UNL     1       6.984  30.252  60.230  1.00  0.00     0.190 HD
BRANCH  20  23
HETATM   23  C   UNL     1       8.744  32.097  60.587  1.00  0.00     0.089 A 
HETATM   24  C   UNL     1       8.541  31.534  61.987  1.00  0.00     0.036 A 
HETATM   25  C   UNL     1       9.862  32.144  61.594  1.00  0.00     0.025 A 
BRANCH  24  26
HETATM   26  C   UNL     1       7.560  32.234  62.895  1.00  0.00    -0.015 A 
HETATM   27  C   UNL     1       6.182  32.197  62.625  1.00  0.00     0.123 A 
HETATM   28  F   UNL     1       5.746  31.554  61.530  1.00  0.00    -0.206 F 
HETATM   29  C   UNL     1       5.244  32.810  63.453  1.00  0.00     0.043 A 
HETATM   30  C   UNL     1       5.672  33.490  64.589  1.00  0.00     0.003 A 
HETATM   31  C   UNL     1       7.033  33.544  64.888  1.00  0.00     0.001 A 
HETATM   32  C   UNL     1       7.964  32.918  64.052  1.00  0.00     0.011 A 
ENDBRANCH  24  26
ENDBRANCH  20  23
ENDBRANCH   2  19
TORSDOF 6
ENDMDL
MODEL 4
REMARK VINA RESULT:      -9.7      8.698     12.213
REMARK  6 active torsions:
REMARK  status: ('A' for Active; 'I' for Inactive)
REMARK    1  A    between atoms: O_2  and  C_3 
REMARK    2  A    between atoms: C_6  and  C_7 
REMARK    3  A    between atoms: C_11  and  C_12 
REMARK       I    between atoms: C_12  and  N_13 
REMARK    4  A    between atoms: N_13  and  N_14 
REMARK       I    between atoms: N_14  and  C_15 
REMARK    5  A    between atoms: C_15  and  C_16 
REMARK    6  A    between atoms: C_17  and  C_18 
ROOT
HETATM    1  C   UNL     1       4.678  27.382  50.386  1.00  0.00     0.288 C 
HETATM    2  N   UNL     1       4.654  26.068  50.801  1.00  0.00    -0.262 N 
HETATM    3  O   UNL     1       5.636  28.120  50.611  1.00  0.00    -0.264 OA
HETATM    4  H   UNL     1       3.915  25.412  50.569  1.00  0.00     0.190 HD
ENDROOT
BRANCH   1   5
HETATM    5  C   UNL     1       3.507  27.835  49.687  1.00  0.00     0.121 A 
HETATM    6  N   UNL     1       2.531  28.552  50.321  1.00  0.00    -0.272 N 
HETATM    7  N   UNL     1       1.482  28.857  49.546  1.00  0.00    -0.174 NA
HETATM    8  H   UNL     1       2.527  28.845  51.293  1.00  0.00     0.189 HD
HETATM    9  C   UNL     1       1.780  28.336  48.345  1.00  0.00     0.089 A 
HETATM   10  C   UNL     1       3.052  27.696  48.391  1.00  0.00     0.071 A 
BRANCH   9  11
HETATM   11  C   UNL     1       0.852  28.431  47.214  1.00  0.00    -0.005 A 
HETATM   12  C   UNL     1       0.320  29.661  46.810  1.00  0.00     0.016 A 
HETATM   13  C   UNL     1      -0.541  29.734  45.709  1.00  0.00     0.037 A 
HETATM   14  C   UNL     1      -0.882  28.587  44.988  1.00  0.00     0.068 A 
HETATM   15  C   UNL     1      -0.369  27.357  45.393  1.00  0.00     0.037 A 
HETATM   16  C   UNL     1       0.489  27.281  46.498  1.00  0.00     0.016 A 
BRANCH  14  17
HETATM   17  O   UNL     1      -1.718  28.802  43.929  1.00  0.00    -0.356 OA
HETATM   18  C   UNL     1      -2.622  29.894  44.039  1.00  0.00     0.210 C 
ENDBRANCH  14  17
ENDBRANCH   9  11
ENDBRANCH   1   5
BRANCH   2  19
HETATM   19  N   UNL     1       5.761  25.556  51.479  1.00  0.00    -0.267 N 
HETATM   20  C   UNL     1       5.572  24.915  52.679  1.00  0.00     0.240 C 
HETATM   21  O   UNL     1       4.479  24.755  53.212  1.00  0.00    -0.271 OA
HETATM   22  H   UNL     1       6.682  25.733  51.078  1.00  0.00     0.190 HD
BRANCH  20  23
HETATM   23  C   UNL     1       6.831  24.449  53.304  1.00  0.00     0.089 A 
HETATM   24  C   UNL     1       7.355  23.076  52.906  1.00  0.00     0.036 A 
HETATM   25  C   UNL     1       8.118  24.321  52.535  1.00  0.00     0.025 A 
BRANCH  24  26
HETATM   26  C   UNL     1       7.803  22.144  54.004  1.00  0.00    -0.015 A 
HETATM   27  C   UNL     1       8.257  20.849  53.704  1.00  0.00     0.123 A 
HETATM   28  F   UNL     1       8.260  20.436  52.427  1.00  0.00    -0.206 F 
HETATM   29  C   UNL     1       8.701  19.968  54.688  1.00  0.00     0.043 A 
HETATM   30  C   UNL     1       8.699  20.370  56.020  1.00  0.00     0.003 A 
HETATM   31  C   UNL     1       8.257  21.650  56.353  1.00  0.00     0.001 A 
HETATM   32  C   UNL     1       7.819  22.527  55.354  1.00  0.00     0.011 A 
ENDBRANCH  24  26
ENDBRANCH  20  23
ENDBRANCH   2  19
TORSDOF 6
ENDMDL
MODEL 5
REMARK VINA RESULT:      -9.5      3.492     11.591
REMARK  6 active torsions:
REMARK  status: ('A' for Active; 'I' for Inactive)
REMARK    1  A    between atoms: O_2  and  C_3 
REMARK    2  A    between atoms: C_6  and  C_7 
REMARK    3  A    between atoms: C_11  and  C_12 
REMARK       I    between atoms: C_12  and  N_13 
REMARK    4  A    between atoms: N_13  and  N_14 
REMARK       I    between atoms: N_14  and  C_15 
REMARK    5  A    between atoms: C_15  and  C_16 
REMARK    6  A    between atoms: C_17  and  C_18 
ROOT
HETATM    1  C   UNL     1       8.558  31.108  59.597  1.00  0.00     0.288 C 
HETATM    2  N   UNL     1       8.037  30.769  60.828  1.00  0.00    -0.262 N 
HETATM    3  O   UNL     1       8.927  32.253  59.339  1.00  0.00    -0.264 OA
HETATM    4  H   UNL     1       7.793  29.821  61.100  1.00  0.00     0.190 HD
ENDROOT
BRANCH   1   5
HETATM    5  C   UNL     1       8.629  30.042  58.637  1.00  0.00     0.121 A 
HETATM    6  N   UNL     1       9.708  29.898  57.811  1.00  0.00    -0.272 N 
HETATM    7  N   UNL     1       9.601  28.887  56.938  1.00  0.00    -0.174 NA
HETATM    8  H   UNL     1      10.541  30.478  57.791  1.00  0.00     0.189 HD
HETATM    9  C   UNL     1       8.410  28.328  57.206  1.00  0.00     0.089 A 
HETATM   10  C   UNL     1       7.774  29.019  58.277  1.00  0.00     0.071 A 
BRANCH   9  11
HETATM   11  C   UNL     1       7.903  27.191  56.431  1.00  0.00    -0.005 A 
HETATM   12  C   UNL     1       7.361  27.365  55.152  1.00  0.00     0.016 A 
HETATM   13  C   UNL     1       6.910  26.263  54.417  1.00  0.00     0.037 A 
HETATM   14  C   UNL     1       6.996  24.970  54.938  1.00  0.00     0.068 A 
HETATM   15  C   UNL     1       7.520  24.789  56.217  1.00  0.00     0.037 A 
HETATM   16  C   UNL     1       7.967  25.892  56.956  1.00  0.00     0.016 A 
BRANCH  14  17
HETATM   17  O   UNL     1       6.535  23.985  54.111  1.00  0.00    -0.356 OA
HETATM   18  C   UNL     1       7.476  22.999  53.703  1.00  0.00     0.210 C 
ENDBRANCH  14  17
ENDBRANCH   9  11
ENDBRANCH   1   5
BRANCH   2  19
HETATM   19  N   UNL     1       7.947  31.751  61.814  1.00  0.00    -0.267 N 
HETATM   20  C   UNL     1       6.731  32.345  62.056  1.00  0.00     0.240 C 
HETATM   21  O   UNL     1       5.698  32.070  61.458  1.00  0.00    -0.271 OA
HETATM   22  H   UNL     1       8.809  32.032  62.280  1.00  0.00     0.190 HD
BRANCH  20  23
HETATM   23  C   UNL     1       6.783  33.389  63.105  1.00  0.00     0.089 A 
HETATM   24  C   UNL     1       6.362  32.999  64.516  1.00  0.00     0.036 A 
HETATM   25  C   UNL     1       7.794  33.368  64.220  1.00  0.00     0.025 A 
BRANCH  24  26
HETATM   26  C   UNL     1       5.421  33.919  65.253  1.00  0.00    -0.015 A 
HETATM   27  C   UNL     1       5.737  34.388  66.539  1.00  0.00     0.123 A 
HETATM   28  F   UNL     1       6.878  33.984  67.121  1.00  0.00    -0.206 F 
HETATM   29  C   UNL     1       4.906  35.258  67.240  1.00  0.00     0.043 A 
HETATM   30  C   UNL     1       3.714  35.684  66.662  1.00  0.00     0.003 A 
HETATM   31  C   UNL     1       3.370  35.240  65.386  1.00  0.00     0.001 A 
HETATM   32  C   UNL     1       4.218  34.372  64.689  1.00  0.00     0.011 A 
ENDBRANCH  24  26
ENDBRANCH  20  23
ENDBRANCH   2  19
TORSDOF 6
ENDMDL
MODEL 6
REMARK VINA RESULT:      -9.4      2.390      2.805
REMARK  6 active torsions:
REMARK  status: ('A' for Active; 'I' for Inactive)
REMARK    1  A    between atoms: O_2  and  C_3 
REMARK    2  A    between atoms: C_6  and  C_7 
REMARK    3  A    between atoms: C_11  and  C_12 
REMARK       I    between atoms: C_12  and  N_13 
REMARK    4  A    between atoms: N_13  and  N_14 
REMARK       I    between atoms: N_14  and  C_15 
REMARK    5  A    between atoms: C_15  and  C_16 
REMARK    6  A    between atoms: C_17  and  C_18 
ROOT
HETATM    1  C   UNL     1       7.595  28.867  56.155  1.00  0.00     0.288 C 
HETATM    2  N   UNL     1       6.893  27.693  55.981  1.00  0.00    -0.262 N 
HETATM    3  O   UNL     1       8.758  28.993  55.774  1.00  0.00    -0.264 OA
HETATM    4  H   UNL     1       5.911  27.578  56.215  1.00  0.00     0.190 HD
ENDROOT
BRANCH   1   5
HETATM    5  C   UNL     1       6.886  29.923  56.821  1.00  0.00     0.121 A 
HETATM    6  N   UNL     1       5.982  30.704  56.157  1.00  0.00    -0.272 N 
HETATM    7  N   UNL     1       5.442  31.677  56.904  1.00  0.00    -0.174 NA
HETATM    8  H   UNL     1       5.709  30.623  55.182  1.00  0.00     0.189 HD
HETATM    9  C   UNL     1       5.998  31.525  58.117  1.00  0.00     0.089 A 
HETATM   10  C   UNL     1       6.902  30.425  58.108  1.00  0.00     0.071 A 
BRANCH   9  11
HETATM   11  C   UNL     1       5.684  32.434  59.224  1.00  0.00    -0.005 A 
HETATM   12  C   UNL     1       6.413  32.406  60.418  1.00  0.00     0.016 A 
HETATM   13  C   UNL     1       6.117  33.302  61.452  1.00  0.00     0.037 A 
HETATM   14  C   UNL     1       5.095  34.244  61.312  1.00  0.00     0.068 A 
HETATM   15  C   UNL     1       4.354  34.268  60.133  1.00  0.00     0.037 A 
HETATM   16  C   UNL     1       4.646  33.368  59.100  1.00  0.00     0.016 A 
BRANCH  14  17
HETATM   17  O   UNL     1       4.921  35.066  62.390  1.00  0.00    -0.356 OA
HETATM   18  C   UNL     1       5.564  36.334  62.337  1.00  0.00     0.210 C 
ENDBRANCH  14  17
ENDBRANCH   9  11
ENDBRANCH   1   5
BRANCH   2  19
HETATM   19  N   UNL     1       7.516  26.626  55.333  1.00  0.00    -0.267 N 
HETATM   20  C   UNL     1       7.132  26.306  54.054  1.00  0.00     0.240 C 
HETATM   21  O   UNL     1       6.265  26.901  53.424  1.00  0.00    -0.271 OA
HETATM   22  H   UNL     1       8.197  26.085  55.865  1.00  0.00     0.190 HD
BRANCH  20  23
HETATM   23  C   UNL     1       7.850  25.137  53.496  1.00  0.00     0.089 A 
HETATM   24  C   UNL     1       7.042  23.878  53.210  1.00  0.00     0.036 A 
HETATM   25  C   UNL     1       7.655  24.666  52.080  1.00  0.00     0.025 A 
BRANCH  24  26
HETATM   26  C   UNL     1       7.601  22.557  53.677  1.00  0.00    -0.015 A 
HETATM   27  C   UNL     1       7.575  22.208  55.037  1.00  0.00     0.123 A 
HETATM   28  F   UNL     1       7.070  23.079  55.927  1.00  0.00    -0.206 F 
HETATM   29  C   UNL     1       8.059  20.988  55.503  1.00  0.00     0.043 A 
HETATM   30  C   UNL     1       8.595  20.073  54.602  1.00  0.00     0.003 A 
HETATM   31  C   UNL     1       8.634  20.386  53.244  1.00  0.00     0.001 A 
HETATM   32  C   UNL     1       8.138  21.612  52.788  1.00  0.00     0.011 A 
ENDBRANCH  24  26
ENDBRANCH  20  23
ENDBRANCH   2  19
TORSDOF 6
ENDMDL
MODEL 7
REMARK VINA RESULT:      -9.3      3.045     11.253
REMARK  6 active torsions:
REMARK  status: ('A' for Active; 'I' for Inactive)
REMARK    1  A    between atoms: O_2  and  C_3 
REMARK    2  A    between atoms: C_6  and  C_7 
REMARK    3  A    between atoms: C_11  and  C_12 
REMARK       I    between atoms: C_12  and  N_13 
REMARK    4  A    between atoms: N_13  and  N_14 
REMARK       I    between atoms: N_14  and  C_15 
REMARK    5  A    between atoms: C_15  and  C_16 
REMARK    6  A    between atoms: C_17  and  C_18 
ROOT
HETATM    1  C   UNL     1       7.278  30.142  58.297  1.00  0.00     0.288 C 
HETATM    2  N   UNL     1       7.954  30.188  59.498  1.00  0.00    -0.262 N 
HETATM    3  O   UNL     1       6.542  31.057  57.928  1.00  0.00    -0.264 OA
HETATM    4  H   UNL     1       8.626  29.487  59.799  1.00  0.00     0.190 HD
ENDROOT
BRANCH   1   5
HETATM    5  C   UNL     1       7.479  28.955  57.514  1.00  0.00     0.121 A 
HETATM    6  N   UNL     1       7.752  29.021  56.177  1.00  0.00    -0.272 N 
HETATM    7  N   UNL     1       7.863  27.827  55.579  1.00  0.00    -0.174 NA
HETATM    8  H   UNL     1       7.856  29.862  55.618  1.00  0.00     0.189 HD
HETATM    9  C   UNL     1       7.672  26.933  56.562  1.00  0.00     0.089 A 
HETATM   10  C   UNL     1       7.441  27.604  57.797  1.00  0.00     0.071 A 
BRANCH   9  11
HETATM   11  C   UNL     1       7.685  25.489  56.301  1.00  0.00    -0.005 A 
HETATM   12  C   UNL     1       7.011  24.942  55.204  1.00  0.00     0.016 A 
HETATM   13  C   UNL     1       7.060  23.565  54.956  1.00  0.00     0.037 A 
HETATM   14  C   UNL     1       7.786  22.713  55.791  1.00  0.00     0.068 A 
HETATM   15  C   UNL     1       8.448  23.248  56.894  1.00  0.00     0.037 A 
HETATM   16  C   UNL     1       8.395  24.625  57.147  1.00  0.00     0.016 A 
BRANCH  14  17
HETATM   17  O   UNL     1       7.763  21.396  55.427  1.00  0.00    -0.356 OA
HETATM   18  C   UNL     1       8.060  21.103  54.067  1.00  0.00     0.210 C 
ENDBRANCH  14  17
ENDBRANCH   9  11
ENDBRANCH   1   5
BRANCH   2  19
HETATM   19  N   UNL     1       7.814  31.315  60.307  1.00  0.00    -0.267 N 
HETATM   20  C   UNL     1       8.330  31.291  61.580  1.00  0.00     0.240 C 
HETATM   21  O   UNL     1       8.917  30.333  62.070  1.00  0.00    -0.271 OA
HETATM   22  H   UNL     1       7.277  32.098  59.936  1.00  0.00     0.190 HD
BRANCH  20  23
HETATM   23  C   UNL     1       8.085  32.539  62.340  1.00  0.00     0.089 A 
HETATM   24  C   UNL     1       6.710  32.733  62.964  1.00  0.00     0.036 A 
HETATM   25  C   UNL     1       7.926  32.559  63.837  1.00  0.00     0.025 A 
BRANCH  24  26
HETATM   26  C   UNL     1       6.029  34.065  62.775  1.00  0.00    -0.015 A 
HETATM   27  C   UNL     1       5.300  34.339  61.606  1.00  0.00     0.123 A 
HETATM   28  F   UNL     1       5.239  33.408  60.640  1.00  0.00    -0.206 F 
HETATM   29  C   UNL     1       4.637  35.548  61.406  1.00  0.00     0.043 A 
HETATM   30  C   UNL     1       4.693  36.531  62.389  1.00  0.00     0.003 A 
HETATM   31  C   UNL     1       5.406  36.292  63.563  1.00  0.00     0.001 A 
HETATM   32  C   UNL     1       6.061  35.071  63.754  1.00  0.00     0.011 A 
ENDBRANCH  24  26
ENDBRANCH  20  23
ENDBRANCH   2  19
TORSDOF 6
ENDMDL
MODEL 8
REMARK VINA RESULT:      -8.9      3.387     11.268
REMARK  6 active torsions:
REMARK  status: ('A' for Active; 'I' for Inactive)
REMARK    1  A    between atoms: O_2  and  C_3 
REMARK    2  A    between atoms: C_6  and  C_7 
REMARK    3  A    between atoms: C_11  and  C_12 
REMARK       I    between atoms: C_12  and  N_13 
REMARK    4  A    between atoms: N_13  and  N_14 
REMARK       I    between atoms: N_14  and  C_15 
REMARK    5  A    between atoms: C_15  and  C_16 
REMARK    6  A    between atoms: C_17  and  C_18 
ROOT
HETATM    1  C   UNL     1       6.185  29.027  57.345  1.00  0.00     0.288 C 
HETATM    2  N   UNL     1       4.907  29.383  57.718  1.00  0.00    -0.262 N 
HETATM    3  O   UNL     1       7.179  29.581  57.814  1.00  0.00    -0.264 OA
HETATM    4  H   UNL     1       4.069  28.898  57.409  1.00  0.00     0.190 HD
ENDROOT
BRANCH   1   5
HETATM    5  C   UNL     1       6.279  27.980  56.366  1.00  0.00     0.121 A 
HETATM    6  N   UNL     1       5.477  27.964  55.260  1.00  0.00    -0.272 N 
HETATM    7  N   UNL     1       5.651  26.897  54.469  1.00  0.00    -0.174 NA
HETATM    8  H   UNL     1       4.776  28.655  55.007  1.00  0.00     0.189 HD
HETATM    9  C   UNL     1       6.620  26.184  55.066  1.00  0.00     0.089 A 
HETATM   10  C   UNL     1       7.050  26.840  56.255  1.00  0.00     0.071 A 
BRANCH   9  11
HETATM   11  C   UNL     1       7.082  24.905  54.516  1.00  0.00    -0.005 A 
HETATM   12  C   UNL     1       7.120  23.747  55.300  1.00  0.00     0.016 A 
HETATM   13  C   UNL     1       7.536  22.530  54.747  1.00  0.00     0.037 A 
HETATM   14  C   UNL     1       7.915  22.444  53.405  1.00  0.00     0.068 A 
HETATM   15  C   UNL     1       7.895  23.596  52.622  1.00  0.00     0.037 A 
HETATM   16  C   UNL     1       7.484  24.816  53.175  1.00  0.00     0.016 A 
BRANCH  14  17
HETATM   17  O   UNL     1       8.284  21.196  52.991  1.00  0.00    -0.356 OA
HETATM   18  C   UNL     1       8.595  20.251  54.008  1.00  0.00     0.210 C 
ENDBRANCH  14  17
ENDBRANCH   9  11
ENDBRANCH   1   5
BRANCH   2  19
HETATM   19  N   UNL     1       4.738  30.387  58.672  1.00  0.00    -0.267 N 
HETATM   20  C   UNL     1       3.826  31.387  58.435  1.00  0.00     0.240 C 
HETATM   21  O   UNL     1       3.133  31.465  57.427  1.00  0.00    -0.271 OA
HETATM   22  H   UNL     1       5.349  30.368  59.488  1.00  0.00     0.190 HD
BRANCH  20  23
HETATM   23  C   UNL     1       3.770  32.402  59.512  1.00  0.00     0.089 A 
HETATM   24  C   UNL     1       4.960  33.339  59.668  1.00  0.00     0.036 A 
HETATM   25  C   UNL     1       3.620  33.873  59.232  1.00  0.00     0.025 A 
BRANCH  24  26
HETATM   26  C   UNL     1       5.511  33.558  61.055  1.00  0.00    -0.015 A 
HETATM   27  C   UNL     1       6.461  32.677  61.597  1.00  0.00     0.123 A 
HETATM   28  F   UNL     1       6.854  31.614  60.876  1.00  0.00    -0.206 F 
HETATM   29  C   UNL     1       7.010  32.860  62.864  1.00  0.00     0.043 A 
HETATM   30  C   UNL     1       6.612  33.949  63.633  1.00  0.00     0.003 A 
HETATM   31  C   UNL     1       5.672  34.845  63.125  1.00  0.00     0.001 A 
HETATM   32  C   UNL     1       5.133  34.653  61.848  1.00  0.00     0.011 A 
ENDBRANCH  24  26
ENDBRANCH  20  23
ENDBRANCH   2  19
TORSDOF 6
ENDMDL
MODEL 9
REMARK VINA RESULT:      -8.8      7.365     10.772
REMARK  6 active torsions:
REMARK  status: ('A' for Active; 'I' for Inactive)
REMARK    1  A    between atoms: O_2  and  C_3 
REMARK    2  A    between atoms: C_6  and  C_7 
REMARK    3  A    between atoms: C_11  and  C_12 
REMARK       I    between atoms: C_12  and  N_13 
REMARK    4  A    between atoms: N_13  and  N_14 
REMARK       I    between atoms: N_14  and  C_15 
REMARK    5  A    between atoms: C_15  and  C_16 
REMARK    6  A    between atoms: C_17  and  C_18 
ROOT
HETATM    1  C   UNL     1       4.785  26.797  50.969  1.00  0.00     0.288 C 
HETATM    2  N   UNL     1       4.208  26.712  52.218  1.00  0.00    -0.262 N 
HETATM    3  O   UNL     1       5.655  26.010  50.598  1.00  0.00    -0.264 OA
HETATM    4  H   UNL     1       3.437  27.296  52.529  1.00  0.00     0.190 HD
ENDROOT
BRANCH   1   5
HETATM    5  C   UNL     1       4.313  27.869  50.137  1.00  0.00     0.121 A 
HETATM    6  N   UNL     1       2.988  28.004  49.831  1.00  0.00    -0.272 N 
HETATM    7  N   UNL     1       2.715  29.023  49.006  1.00  0.00    -0.174 NA
HETATM    8  H   UNL     1       2.227  27.411  50.149  1.00  0.00     0.189 HD
HETATM    9  C   UNL     1       3.905  29.599  48.768  1.00  0.00     0.089 A 
HETATM   10  C   UNL     1       4.933  28.909  49.472  1.00  0.00     0.071 A 
BRANCH   9  11
HETATM   11  C   UNL     1       4.036  30.750  47.869  1.00  0.00    -0.005 A 
HETATM   12  C   UNL     1       3.669  32.038  48.276  1.00  0.00     0.016 A 
HETATM   13  C   UNL     1       3.830  33.127  47.413  1.00  0.00     0.037 A 
HETATM   14  C   UNL     1       4.363  32.956  46.133  1.00  0.00     0.068 A 
HETATM   15  C   UNL     1       4.716  31.675  45.714  1.00  0.00     0.037 A 
HETATM   16  C   UNL     1       4.551  30.582  46.575  1.00  0.00     0.016 A 
BRANCH  14  17
HETATM   17  O   UNL     1       4.480  34.103  45.401  1.00  0.00    -0.356 OA
HETATM   18  C   UNL     1       5.425  34.090  44.338  1.00  0.00     0.210 C 
ENDBRANCH  14  17
ENDBRANCH   9  11
ENDBRANCH   1   5
BRANCH   2  19
HETATM   19  N   UNL     1       4.610  25.689  53.077  1.00  0.00    -0.267 N 
HETATM   20  C   UNL     1       5.465  25.984  54.112  1.00  0.00     0.240 C 
HETATM   21  O   UNL     1       5.910  27.102  54.343  1.00  0.00    -0.271 OA
HETATM   22  H   UNL     1       4.296  24.743  52.863  1.00  0.00     0.190 HD
BRANCH  20  23
HETATM   23  C   UNL     1       5.834  24.804  54.927  1.00  0.00     0.089 A 
HETATM   24  C   UNL     1       7.296  24.376  54.935  1.00  0.00     0.036 A 
HETATM   25  C   UNL     1       6.651  24.913  56.187  1.00  0.00     0.025 A 
BRANCH  24  26
HETATM   26  C   UNL     1       7.605  22.912  54.743  1.00  0.00    -0.015 A 
HETATM   27  C   UNL     1       7.885  22.400  53.465  1.00  0.00     0.123 A 
HETATM   28  F   UNL     1       7.846  23.225  52.406  1.00  0.00    -0.206 F 
HETATM   29  C   UNL     1       8.199  21.059  53.252  1.00  0.00     0.043 A 
HETATM   30  C   UNL     1       8.237  20.183  54.332  1.00  0.00     0.003 A 
HETATM   31  C   UNL     1       7.966  20.658  55.615  1.00  0.00     0.001 A 
HETATM   32  C   UNL     1       7.659  22.009  55.816  1.00  0.00     0.011 A 
ENDBRANCH  24  26
ENDBRANCH  20  23
ENDBRANCH   2  19
TORSDOF 6
ENDMDL
MODEL 10
REMARK VINA RESULT:      -8.4      3.837      4.253
REMARK  6 active torsions:
REMARK  status: ('A' for Active; 'I' for Inactive)
REMARK    1  A    between atoms: O_2  and  C_3 
REMARK    2  A    between atoms: C_6  and  C_7 
REMARK    3  A    between atoms: C_11  and  C_12 
REMARK       I    between atoms: C_12  and  N_13 
REMARK    4  A    between atoms: N_13  and  N_14 
REMARK       I    between atoms: N_14  and  C_15 
REMARK    5  A    between atoms: C_15  and  C_16 
REMARK    6  A    between atoms: C_17  and  C_18 
ROOT
HETATM    1  C   UNL     1       6.721  28.684  56.704  1.00  0.00     0.288 C 
HETATM    2  N   UNL     1       6.135  27.451  56.517  1.00  0.00    -0.262 N 
HETATM    3  O   UNL     1       7.909  28.885  56.456  1.00  0.00    -0.264 OA
HETATM    4  H   UNL     1       5.143  27.269  56.639  1.00  0.00     0.190 HD
ENDROOT
BRANCH   1   5
HETATM    5  C   UNL     1       5.859  29.712  57.219  1.00  0.00     0.121 A 
HETATM    6  N   UNL     1       4.602  29.426  57.671  1.00  0.00    -0.272 N 
HETATM    7  N   UNL     1       3.905  30.498  58.072  1.00  0.00    -0.174 NA
HETATM    8  H   UNL     1       4.162  28.511  57.710  1.00  0.00     0.189 HD
HETATM    9  C   UNL     1       4.740  31.535  57.895  1.00  0.00     0.089 A 
HETATM   10  C   UNL     1       5.984  31.078  57.372  1.00  0.00     0.071 A 
BRANCH   9  11
HETATM   11  C   UNL     1       4.330  32.911  58.193  1.00  0.00    -0.005 A 
HETATM   12  C   UNL     1       4.719  33.979  57.377  1.00  0.00     0.016 A 
HETATM   13  C   UNL     1       4.292  35.281  57.662  1.00  0.00     0.037 A 
HETATM   14  C   UNL     1       3.468  35.541  58.760  1.00  0.00     0.068 A 
HETATM   15  C   UNL     1       3.089  34.485  59.586  1.00  0.00     0.037 A 
HETATM   16  C   UNL     1       3.520  33.182  59.305  1.00  0.00     0.016 A 
BRANCH  14  17
HETATM   17  O   UNL     1       3.113  36.851  58.915  1.00  0.00    -0.356 OA
HETATM   18  C   UNL     1       1.810  37.105  59.424  1.00  0.00     0.210 C 
ENDBRANCH  14  17
ENDBRANCH   9  11
ENDBRANCH   1   5
BRANCH   2  19
HETATM   19  N   UNL     1       6.910  26.407  56.010  1.00  0.00    -0.267 N 
HETATM   20  C   UNL     1       6.806  26.083  54.679  1.00  0.00     0.240 C 
HETATM   21  O   UNL     1       6.068  26.656  53.885  1.00  0.00    -0.271 OA
HETATM   22  H   UNL     1       7.484  25.884  56.670  1.00  0.00     0.190 HD
BRANCH  20  23
HETATM   23  C   UNL     1       7.658  24.940  54.281  1.00  0.00     0.089 A 
HETATM   24  C   UNL     1       6.982  23.595  54.055  1.00  0.00     0.036 A 
HETATM   25  C   UNL     1       7.611  24.335  52.903  1.00  0.00     0.025 A 
BRANCH  24  26
HETATM   26  C   UNL     1       7.611  22.373  54.678  1.00  0.00    -0.015 A 
HETATM   27  C   UNL     1       7.931  21.253  53.893  1.00  0.00     0.123 A 
HETATM   28  F   UNL     1       7.643  21.268  52.581  1.00  0.00    -0.206 F 
HETATM   29  C   UNL     1       8.534  20.116  54.427  1.00  0.00     0.043 A 
HETATM   30  C   UNL     1       8.834  20.073  55.785  1.00  0.00     0.003 A 
HETATM   31  C   UNL     1       8.532  21.168  56.593  1.00  0.00     0.001 A 
HETATM   32  C   UNL     1       7.932  22.306  56.042  1.00  0.00     0.011 A 
ENDBRANCH  24  26
ENDBRANCH  20  23
ENDBRANCH   2  19
TORSDOF 6
ENDMDL
