MODEL 1
REMARK VINA RESULT:      -9.5      0.000      0.000
REMARK  10 active torsions:
REMARK  status: ('A' for Active; 'I' for Inactive)
REMARK    1  A    between atoms: C_4  and  C_5 
REMARK    2  A    between atoms: C_5  and  C_6 
REMARK    3  A    between atoms: C_6  and  N_7 
REMARK    4  A    between atoms: C_6  and  C_15 
REMARK       I    between atoms: N_7  and  C_8 
REMARK    5  A    between atoms: C_8  and  C_9 
REMARK       I    between atoms: C_15  and  N_16 
REMARK    6  A    between atoms: N_16  and  C_17 
REMARK    7  A    between atoms: C_17  and  C_18 
REMARK    8  A    between atoms: C_18  and  C_19 
REMARK    9  A    between atoms: C_21  and  O_22 
REMARK   10  A    between atoms: C_23  and  O_24 
ROOT
HETATM    1  C   UNL     1       6.816  25.442  54.509  1.00  0.00     0.181 C 
ENDROOT
BRANCH   1   2
HETATM    2  C   UNL     1       7.808  24.615  53.664  1.00  0.00     0.073 C 
BRANCH   2   3
HETATM    3  C   UNL     1       7.916  23.142  53.999  1.00  0.00    -0.056 A 
HETATM    4  C   UNL     1       7.829  22.676  55.319  1.00  0.00     0.007 A 
HETATM    5  C   UNL     1       7.836  21.307  55.595  1.00  0.00     0.001 A 
HETATM    6  C   UNL     1       7.910  20.384  54.555  1.00  0.00     0.000 A 
HETATM    7  C   UNL     1       7.979  20.830  53.238  1.00  0.00     0.001 A 
HETATM    8  C   UNL     1       7.982  22.199  52.962  1.00  0.00     0.007 A 
ENDBRANCH   2   3
ENDBRANCH   1   2
BRANCH   1   9
HETATM    9  N   UNL     1       7.426  26.534  55.274  1.00  0.00    -0.342 N 
HETATM   10  C   UNL     1       7.579  26.580  56.639  1.00  0.00     0.276 C 
HETATM   11  O   UNL     1       7.316  25.614  57.354  1.00  0.00    -0.265 OA
HETATM   12  H   UNL     1       7.632  27.396  54.780  1.00  0.00     0.163 HD
BRANCH  10  13
HETATM   13  C   UNL     1       8.133  27.823  57.131  1.00  0.00     0.142 A 
HETATM   14  O   UNL     1       7.662  28.348  58.309  1.00  0.00    -0.317 OA
HETATM   15  C   UNL     1       8.331  29.511  58.524  1.00  0.00     0.143 A 
HETATM   16  C   UNL     1       9.222  29.751  57.506  1.00  0.00     0.027 A 
HETATM   17  C   UNL     1       9.098  28.663  56.608  1.00  0.00     0.045 A 
ENDBRANCH  10  13
ENDBRANCH   1   9
BRANCH   1  18
HETATM   18  C   UNL     1       5.622  25.831  53.607  1.00  0.00     0.240 C 
HETATM   19  N   UNL     1       5.584  27.128  53.147  1.00  0.00    -0.359 N 
HETATM   20  H   UNL     1       6.419  27.685  53.302  1.00  0.00     0.162 HD
HETATM   21  O   UNL     1       4.831  24.974  53.209  1.00  0.00    -0.271 OA
BRANCH  19  22
HETATM   22  C   UNL     1       4.714  27.497  52.042  1.00  0.00     0.127 C 
BRANCH  22  23
HETATM   23  C   UNL     1       5.378  27.372  50.666  1.00  0.00     0.058 C 
BRANCH  23  24
HETATM   24  C   UNL     1       4.562  26.839  49.505  1.00  0.00    -0.054 A 
HETATM   25  C   UNL     1       3.974  25.567  49.478  1.00  0.00     0.046 A 
HETATM   26  C   UNL     1       3.290  25.140  48.342  1.00  0.00     0.099 A 
HETATM   27  C   UNL     1       3.142  25.982  47.246  1.00  0.00     0.098 A 
HETATM   28  C   UNL     1       3.691  27.252  47.256  1.00  0.00     0.040 A 
HETATM   29  C   UNL     1       4.406  27.674  48.379  1.00  0.00     0.010 A 
BRANCH  26  30
HETATM   30  O   UNL     1       2.760  23.881  48.259  1.00  0.00    -0.358 OA
HETATM   31  H   UNL     1       3.411  23.265  48.643  1.00  0.00     0.218 HD
ENDBRANCH  26  30
BRANCH  27  32
HETATM   32  O   UNL     1       2.459  25.555  46.144  1.00  0.00    -0.358 OA
HETATM   33  H   UNL     1       2.150  26.379  45.718  1.00  0.00     0.218 HD
ENDBRANCH  27  32
ENDBRANCH  23  24
ENDBRANCH  22  23
ENDBRANCH  19  22
ENDBRANCH   1  18
TORSDOF 10
ENDMDL
MODEL 2
REMARK VINA RESULT:      -9.4      2.092      8.258
REMARK  10 active torsions:
REMARK  status: ('A' for Active; 'I' for Inactive)
REMARK    1  A    between atoms: C_4  and  C_5 
REMARK    2  A    between atoms: C_5  and  C_6 
REMARK    3  A    between atoms: C_6  and  N_7 
REMARK    4  A    between atoms: C_6  and  C_15 
REMARK       I    between atoms: N_7  and  C_8 
REMARK    5  A    between atoms: C_8  and  C_9 
REMARK       I    between atoms: C_15  and  N_16 
REMARK    6  A    between atoms: N_16  and  C_17 
REMARK    7  A    between atoms: C_17  and  C_18 
REMARK    8  A    between atoms: C_18  and  C_19 
REMARK    9  A    between atoms: C_21  and  O_22 
REMARK   10  A    between atoms: C_23  and  O_24 
ROOT
HETATM    1  C   UNL     1       6.940  25.866  52.779  1.00  0.00     0.181 C 
ENDROOT
BRANCH   1   2
HETATM    2  C   UNL     1       6.320  24.632  53.468  1.00  0.00     0.073 C 
BRANCH   2   3
HETATM    3  C   UNL     1       7.289  23.578  53.961  1.00  0.00    -0.056 A 
HETATM    4  C   UNL     1       7.875  22.646  53.090  1.00  0.00     0.007 A 
HETATM    5  C   UNL     1       8.837  21.744  53.551  1.00  0.00     0.001 A 
HETATM    6  C   UNL     1       9.242  21.774  54.883  1.00  0.00     0.000 A 
HETATM    7  C   UNL     1       8.683  22.704  55.756  1.00  0.00     0.001 A 
HETATM    8  C   UNL     1       7.714  23.599  55.298  1.00  0.00     0.007 A 
ENDBRANCH   2   3
ENDBRANCH   1   2
BRANCH   1   9
HETATM    9  N   UNL     1       6.395  26.164  51.450  1.00  0.00    -0.342 N 
HETATM   10  C   UNL     1       5.229  26.840  51.185  1.00  0.00     0.276 C 
HETATM   11  O   UNL     1       4.577  27.382  52.076  1.00  0.00    -0.265 OA
HETATM   12  H   UNL     1       6.835  25.718  50.652  1.00  0.00     0.163 HD
BRANCH  10  13
HETATM   13  C   UNL     1       4.890  26.909  49.780  1.00  0.00     0.142 A 
HETATM   14  O   UNL     1       5.341  27.967  49.030  1.00  0.00    -0.317 OA
HETATM   15  C   UNL     1       4.868  27.794  47.769  1.00  0.00     0.143 A 
HETATM   16  C   UNL     1       4.116  26.646  47.688  1.00  0.00     0.027 A 
HETATM   17  C   UNL     1       4.130  26.073  48.983  1.00  0.00     0.045 A 
ENDBRANCH  10  13
ENDBRANCH   1   9
BRANCH   1  18
HETATM   18  C   UNL     1       6.936  27.036  53.790  1.00  0.00     0.240 C 
HETATM   19  N   UNL     1       6.142  26.895  54.905  1.00  0.00    -0.359 N 
HETATM   20  H   UNL     1       5.743  25.974  55.060  1.00  0.00     0.162 HD
HETATM   21  O   UNL     1       7.724  27.976  53.664  1.00  0.00    -0.271 OA
BRANCH  19  22
HETATM   22  C   UNL     1       6.324  27.760  56.059  1.00  0.00     0.127 C 
BRANCH  22  23
HETATM   23  C   UNL     1       7.618  27.491  56.835  1.00  0.00     0.058 C 
BRANCH  23  24
HETATM   24  C   UNL     1       8.496  28.664  57.225  1.00  0.00    -0.054 A 
HETATM   25  C   UNL     1       9.852  28.775  56.888  1.00  0.00     0.046 A 
HETATM   26  C   UNL     1      10.595  29.864  57.341  1.00  0.00     0.099 A 
HETATM   27  C   UNL     1       9.993  30.871  58.087  1.00  0.00     0.098 A 
HETATM   28  C   UNL     1       8.650  30.799  58.411  1.00  0.00     0.040 A 
HETATM   29  C   UNL     1       7.907  29.693  57.988  1.00  0.00     0.010 A 
BRANCH  26  30
HETATM   30  O   UNL     1      11.935  29.969  57.085  1.00  0.00    -0.358 OA
HETATM   31  H   UNL     1      12.161  30.917  57.109  1.00  0.00     0.218 HD
ENDBRANCH  26  30
BRANCH  27  32
HETATM   32  O   UNL     1      10.730  31.937  58.513  1.00  0.00    -0.358 OA
HETATM   33  H   UNL     1      10.084  32.670  58.567  1.00  0.00     0.218 HD
ENDBRANCH  27  32
ENDBRANCH  23  24
ENDBRANCH  22  23
ENDBRANCH  19  22
ENDBRANCH   1  18
TORSDOF 10
ENDMDL
MODEL 3
REMARK VINA RESULT:      -9.1      1.507      1.661
REMARK  10 active torsions:
REMARK  status: ('A' for Active; 'I' for Inactive)
REMARK    1  A    between atoms: C_4  and  C_5 
REMARK    2  A    between atoms: C_5  and  C_6 
REMARK    3  A    between atoms: C_6  and  N_7 
REMARK    4  A    between atoms: C_6  and  C_15 
REMARK       I    between atoms: N_7  and  C_8 
REMARK    5  A    between atoms: C_8  and  C_9 
REMARK       I    between atoms: C_15  and  N_16 
REMARK    6  A    between atoms: N_16  and  C_17 
REMARK    7  A    between atoms: C_17  and  C_18 
REMARK    8  A    between atoms: C_18  and  C_19 
REMARK    9  A    between atoms: C_21  and  O_22 
REMARK   10  A    between atoms: C_23  and  O_24 
ROOT
HETATM    1  C   UNL     1       6.377  25.262  54.391  1.00  0.00     0.181 C 
ENDROOT
BRANCH   1   2
HETATM    2  C   UNL     1       7.732  24.664  53.957  1.00  0.00     0.073 C 
BRANCH   2   3
HETATM    3  C   UNL     1       7.902  23.171  54.142  1.00  0.00    -0.056 A 
HETATM    4  C   UNL     1       7.884  22.577  55.413  1.00  0.00     0.007 A 
HETATM    5  C   UNL     1       7.948  21.189  55.554  1.00  0.00     0.001 A 
HETATM    6  C   UNL     1       8.008  20.373  54.426  1.00  0.00     0.000 A 
HETATM    7  C   UNL     1       8.008  20.947  53.157  1.00  0.00     0.001 A 
HETATM    8  C   UNL     1       7.955  22.335  53.016  1.00  0.00     0.007 A 
ENDBRANCH   2   3
ENDBRANCH   1   2
BRANCH   1   9
HETATM    9  N   UNL     1       6.477  26.442  55.256  1.00  0.00    -0.342 N 
HETATM   10  C   UNL     1       7.210  27.576  54.998  1.00  0.00     0.276 C 
HETATM   11  O   UNL     1       7.771  27.754  53.918  1.00  0.00    -0.265 OA
HETATM   12  H   UNL     1       6.088  26.374  56.191  1.00  0.00     0.163 HD
BRANCH  10  13
HETATM   13  C   UNL     1       7.198  28.546  56.072  1.00  0.00     0.142 A 
HETATM   14  O   UNL     1       6.295  29.579  56.034  1.00  0.00    -0.317 OA
HETATM   15  C   UNL     1       6.511  30.341  57.138  1.00  0.00     0.143 A 
HETATM   16  C   UNL     1       7.539  29.822  57.888  1.00  0.00     0.027 A 
HETATM   17  C   UNL     1       7.982  28.664  57.204  1.00  0.00     0.045 A 
ENDBRANCH  10  13
ENDBRANCH   1   9
BRANCH   1  18
HETATM   18  C   UNL     1       5.493  25.417  53.133  1.00  0.00     0.240 C 
HETATM   19  N   UNL     1       6.062  26.032  52.041  1.00  0.00    -0.359 N 
HETATM   20  H   UNL     1       7.064  26.194  52.088  1.00  0.00     0.162 HD
HETATM   21  O   UNL     1       4.385  24.880  53.075  1.00  0.00    -0.271 OA
BRANCH  19  22
HETATM   22  C   UNL     1       5.451  25.923  50.726  1.00  0.00     0.127 C 
BRANCH  22  23
HETATM   23  C   UNL     1       4.666  27.170  50.305  1.00  0.00     0.058 C 
BRANCH  23  24
HETATM   24  C   UNL     1       3.657  27.055  49.180  1.00  0.00    -0.054 A 
HETATM   25  C   UNL     1       3.668  26.037  48.216  1.00  0.00     0.046 A 
HETATM   26  C   UNL     1       2.734  26.047  47.183  1.00  0.00     0.099 A 
HETATM   27  C   UNL     1       1.754  27.031  47.122  1.00  0.00     0.098 A 
HETATM   28  C   UNL     1       1.704  28.032  48.075  1.00  0.00     0.040 A 
HETATM   29  C   UNL     1       2.659  28.048  49.095  1.00  0.00     0.010 A 
BRANCH  26  30
HETATM   30  O   UNL     1       2.758  25.105  46.190  1.00  0.00    -0.358 OA
HETATM   31  H   UNL     1       2.116  25.382  45.510  1.00  0.00     0.218 HD
ENDBRANCH  26  30
BRANCH  27  32
HETATM   32  O   UNL     1       0.837  27.020  46.111  1.00  0.00    -0.358 OA
HETATM   33  H   UNL     1      -0.003  26.780  46.551  1.00  0.00     0.218 HD
ENDBRANCH  27  32
ENDBRANCH  23  24
ENDBRANCH  22  23
ENDBRANCH  19  22
ENDBRANCH   1  18
TORSDOF 10
ENDMDL
MODEL 4
REMARK VINA RESULT:      -9.1      2.005      8.137
REMARK  10 active torsions:
REMARK  status: ('A' for Active; 'I' for Inactive)
REMARK    1  A    between atoms: C_4  and  C_5 
REMARK    2  A    between atoms: C_5  and  C_6 
REMARK    3  A    between atoms: C_6  and  N_7 
REMARK    4  A    between atoms: C_6  and  C_15 
REMARK       I    between atoms: N_7  and  C_8 
REMARK    5  A    between atoms: C_8  and  C_9 
REMARK       I    between atoms: C_15  and  N_16 
REMARK    6  A    between atoms: N_16  and  C_17 
REMARK    7  A    between atoms: C_17  and  C_18 
REMARK    8  A    between atoms: C_18  and  C_19 
REMARK    9  A    between atoms: C_21  and  O_22 
REMARK   10  A    between atoms: C_23  and  O_24 
ROOT
HETATM    1  C   UNL     1       5.361  26.020  51.784  1.00  0.00     0.181 C 
ENDROOT
BRANCH   1   2
HETATM    2  C   UNL     1       5.154  24.799  52.705  1.00  0.00     0.073 C 
BRANCH   2   3
HETATM    3  C   UNL     1       6.362  24.336  53.492  1.00  0.00    -0.056 A 
HETATM    4  C   UNL     1       6.512  24.629  54.856  1.00  0.00     0.007 A 
HETATM    5  C   UNL     1       7.587  24.112  55.584  1.00  0.00     0.001 A 
HETATM    6  C   UNL     1       8.514  23.278  54.964  1.00  0.00     0.000 A 
HETATM    7  C   UNL     1       8.369  22.963  53.615  1.00  0.00     0.001 A 
HETATM    8  C   UNL     1       7.301  23.488  52.885  1.00  0.00     0.007 A 
ENDBRANCH   2   3
ENDBRANCH   1   2
BRANCH   1   9
HETATM    9  N   UNL     1       4.565  26.000  50.552  1.00  0.00    -0.342 N 
HETATM   10  C   UNL     1       4.662  26.889  49.510  1.00  0.00     0.276 C 
HETATM   11  O   UNL     1       5.547  27.742  49.465  1.00  0.00    -0.265 OA
HETATM   12  H   UNL     1       3.775  25.363  50.514  1.00  0.00     0.163 HD
BRANCH  10  13
HETATM   13  C   UNL     1       3.686  26.682  48.461  1.00  0.00     0.142 A 
HETATM   14  O   UNL     1       2.903  27.734  48.055  1.00  0.00    -0.317 OA
HETATM   15  C   UNL     1       2.073  27.264  47.087  1.00  0.00     0.143 A 
HETATM   16  C   UNL     1       2.301  25.928  46.862  1.00  0.00     0.027 A 
HETATM   17  C   UNL     1       3.342  25.550  47.745  1.00  0.00     0.045 A 
ENDBRANCH  10  13
ENDBRANCH   1   9
BRANCH   1  18
HETATM   18  C   UNL     1       5.246  27.299  52.644  1.00  0.00     0.240 C 
HETATM   19  N   UNL     1       4.329  27.281  53.671  1.00  0.00    -0.359 N 
HETATM   20  H   UNL     1       3.912  26.380  53.885  1.00  0.00     0.162 HD
HETATM   21  O   UNL     1       6.045  28.226  52.500  1.00  0.00    -0.271 OA
BRANCH  19  22
HETATM   22  C   UNL     1       4.380  28.276  54.729  1.00  0.00     0.127 C 
BRANCH  22  23
HETATM   23  C   UNL     1       4.986  27.756  56.037  1.00  0.00     0.058 C 
BRANCH  23  24
HETATM   24  C   UNL     1       6.352  28.258  56.463  1.00  0.00    -0.054 A 
HETATM   25  C   UNL     1       6.682  28.616  57.777  1.00  0.00     0.046 A 
HETATM   26  C   UNL     1       7.947  29.124  58.063  1.00  0.00     0.099 A 
HETATM   27  C   UNL     1       8.909  29.236  57.066  1.00  0.00     0.098 A 
HETATM   28  C   UNL     1       8.617  28.865  55.765  1.00  0.00     0.040 A 
HETATM   29  C   UNL     1       7.340  28.386  55.464  1.00  0.00     0.010 A 
BRANCH  26  30
HETATM   30  O   UNL     1       8.280  29.544  59.323  1.00  0.00    -0.358 OA
HETATM   31  H   UNL     1       9.048  30.138  59.238  1.00  0.00     0.218 HD
ENDBRANCH  26  30
BRANCH  27  32
HETATM   32  O   UNL     1      10.148  29.723  57.363  1.00  0.00    -0.358 OA
HETATM   33  H   UNL     1      10.003  30.681  57.500  1.00  0.00     0.218 HD
ENDBRANCH  27  32
ENDBRANCH  23  24
ENDBRANCH  22  23
ENDBRANCH  19  22
ENDBRANCH   1  18
TORSDOF 10
ENDMDL
MODEL 5
REMARK VINA RESULT:      -8.7      4.017      6.999
REMARK  10 active torsions:
REMARK  status: ('A' for Active; 'I' for Inactive)
REMARK    1  A    between atoms: C_4  and  C_5 
REMARK    2  A    between atoms: C_5  and  C_6 
REMARK    3  A    between atoms: C_6  and  N_7 
REMARK    4  A    between atoms: C_6  and  C_15 
REMARK       I    between atoms: N_7  and  C_8 
REMARK    5  A    between atoms: C_8  and  C_9 
REMARK       I    between atoms: C_15  and  N_16 
REMARK    6  A    between atoms: N_16  and  C_17 
REMARK    7  A    between atoms: C_17  and  C_18 
REMARK    8  A    between atoms: C_18  and  C_19 
REMARK    9  A    between atoms: C_21  and  O_22 
REMARK   10  A    between atoms: C_23  and  O_24 
ROOT
HETATM    1  C   UNL     1       7.089  28.655  57.423  1.00  0.00     0.181 C 
ENDROOT
BRANCH   1   2
HETATM    2  C   UNL     1       5.628  28.582  56.932  1.00  0.00     0.073 C 
BRANCH   2   3
HETATM    3  C   UNL     1       5.422  28.518  55.433  1.00  0.00    -0.056 A 
HETATM    4  C   UNL     1       6.492  28.322  54.547  1.00  0.00     0.007 A 
HETATM    5  C   UNL     1       6.267  28.172  53.177  1.00  0.00     0.001 A 
HETATM    6  C   UNL     1       4.968  28.195  52.675  1.00  0.00     0.000 A 
HETATM    7  C   UNL     1       3.894  28.371  53.543  1.00  0.00     0.001 A 
HETATM    8  C   UNL     1       4.119  28.531  54.912  1.00  0.00     0.007 A 
ENDBRANCH   2   3
ENDBRANCH   1   2
BRANCH   1   9
HETATM    9  N   UNL     1       7.285  29.436  58.648  1.00  0.00    -0.342 N 
HETATM   10  C   UNL     1       8.411  30.149  58.984  1.00  0.00     0.276 C 
HETATM   11  O   UNL     1       9.344  30.296  58.196  1.00  0.00    -0.265 OA
HETATM   12  H   UNL     1       6.592  29.339  59.383  1.00  0.00     0.163 HD
BRANCH  10  13
HETATM   13  C   UNL     1       8.361  30.751  60.299  1.00  0.00     0.142 A 
HETATM   14  O   UNL     1       7.364  31.649  60.589  1.00  0.00    -0.317 OA
HETATM   15  C   UNL     1       7.562  32.068  61.866  1.00  0.00     0.143 A 
HETATM   16  C   UNL     1       8.671  31.462  62.407  1.00  0.00     0.027 A 
HETATM   17  C   UNL     1       9.187  30.611  61.399  1.00  0.00     0.045 A 
ENDBRANCH  10  13
ENDBRANCH   1   9
BRANCH   1  18
HETATM   18  C   UNL     1       7.667  27.221  57.434  1.00  0.00     0.240 C 
HETATM   19  N   UNL     1       6.764  26.183  57.380  1.00  0.00    -0.359 N 
HETATM   20  H   UNL     1       5.801  26.436  57.177  1.00  0.00     0.162 HD
HETATM   21  O   UNL     1       8.882  27.033  57.348  1.00  0.00    -0.271 OA
BRANCH  19  22
HETATM   22  C   UNL     1       7.200  24.838  57.045  1.00  0.00     0.127 C 
BRANCH  22  23
HETATM   23  C   UNL     1       7.036  24.486  55.562  1.00  0.00     0.058 C 
BRANCH  23  24
HETATM   24  C   UNL     1       7.561  23.155  55.063  1.00  0.00    -0.054 A 
HETATM   25  C   UNL     1       8.157  22.187  55.884  1.00  0.00     0.046 A 
HETATM   26  C   UNL     1       8.664  21.016  55.325  1.00  0.00     0.099 A 
HETATM   27  C   UNL     1       8.543  20.771  53.962  1.00  0.00     0.098 A 
HETATM   28  C   UNL     1       7.936  21.698  53.133  1.00  0.00     0.040 A 
HETATM   29  C   UNL     1       7.456  22.889  53.682  1.00  0.00     0.010 A 
BRANCH  26  30
HETATM   30  O   UNL     1       9.308  20.081  56.089  1.00  0.00    -0.358 OA
HETATM   31  H   UNL     1       9.085  20.264  57.021  1.00  0.00     0.218 HD
ENDBRANCH  26  30
BRANCH  27  32
HETATM   32  O   UNL     1       9.032  19.614  53.431  1.00  0.00    -0.358 OA
HETATM   33  H   UNL     1       8.729  18.918  54.048  1.00  0.00     0.218 HD
ENDBRANCH  27  32
ENDBRANCH  23  24
ENDBRANCH  22  23
ENDBRANCH  19  22
ENDBRANCH   1  18
TORSDOF 10
ENDMDL
MODEL 6
REMARK VINA RESULT:      -8.5      1.981      2.839
REMARK  10 active torsions:
REMARK  status: ('A' for Active; 'I' for Inactive)
REMARK    1  A    between atoms: C_4  and  C_5 
REMARK    2  A    between atoms: C_5  and  C_6 
REMARK    3  A    between atoms: C_6  and  N_7 
REMARK    4  A    between atoms: C_6  and  C_15 
REMARK       I    between atoms: N_7  and  C_8 
REMARK    5  A    between atoms: C_8  and  C_9 
REMARK       I    between atoms: C_15  and  N_16 
REMARK    6  A    between atoms: N_16  and  C_17 
REMARK    7  A    between atoms: C_17  and  C_18 
REMARK    8  A    between atoms: C_18  and  C_19 
REMARK    9  A    between atoms: C_21  and  O_22 
REMARK   10  A    between atoms: C_23  and  O_24 
ROOT
HETATM    1  C   UNL     1       6.184  28.073  54.842  1.00  0.00     0.181 C 
ENDROOT
BRANCH   1   2
HETATM    2  C   UNL     1       7.254  27.567  53.851  1.00  0.00     0.073 C 
BRANCH   2   3
HETATM    3  C   UNL     1       7.356  26.067  53.676  1.00  0.00    -0.056 A 
HETATM    4  C   UNL     1       7.719  25.488  52.450  1.00  0.00     0.007 A 
HETATM    5  C   UNL     1       7.898  24.108  52.337  1.00  0.00     0.001 A 
HETATM    6  C   UNL     1       7.737  23.288  53.451  1.00  0.00     0.000 A 
HETATM    7  C   UNL     1       7.393  23.849  54.679  1.00  0.00     0.001 A 
HETATM    8  C   UNL     1       7.204  25.228  54.791  1.00  0.00     0.007 A 
ENDBRANCH   2   3
ENDBRANCH   1   2
BRANCH   1   9
HETATM    9  N   UNL     1       6.700  28.928  55.916  1.00  0.00    -0.342 N 
HETATM   10  C   UNL     1       6.949  28.543  57.211  1.00  0.00     0.276 C 
HETATM   11  O   UNL     1       6.872  27.367  57.563  1.00  0.00    -0.265 OA
HETATM   12  H   UNL     1       6.751  29.926  55.737  1.00  0.00     0.163 HD
BRANCH  10  13
HETATM   13  C   UNL     1       7.368  29.622  58.080  1.00  0.00     0.142 A 
HETATM   14  O   UNL     1       8.355  29.394  59.006  1.00  0.00    -0.317 OA
HETATM   15  C   UNL     1       8.537  30.552  59.691  1.00  0.00     0.143 A 
HETATM   16  C   UNL     1       7.683  31.526  59.230  1.00  0.00     0.027 A 
HETATM   17  C   UNL     1       6.930  30.929  58.189  1.00  0.00     0.045 A 
ENDBRANCH  10  13
ENDBRANCH   1   9
BRANCH   1  18
HETATM   18  C   UNL     1       5.003  28.646  54.027  1.00  0.00     0.240 C 
HETATM   19  N   UNL     1       5.307  29.570  53.052  1.00  0.00    -0.359 N 
HETATM   20  H   UNL     1       6.292  29.686  52.835  1.00  0.00     0.162 HD
HETATM   21  O   UNL     1       3.869  28.181  54.154  1.00  0.00    -0.271 OA
BRANCH  19  22
HETATM   22  C   UNL     1       4.339  29.907  52.022  1.00  0.00     0.127 C 
BRANCH  22  23
HETATM   23  C   UNL     1       4.942  30.010  50.617  1.00  0.00     0.058 C 
BRANCH  23  24
HETATM   24  C   UNL     1       4.604  28.945  49.594  1.00  0.00    -0.054 A 
HETATM   25  C   UNL     1       5.540  28.362  48.727  1.00  0.00     0.046 A 
HETATM   26  C   UNL     1       5.124  27.431  47.778  1.00  0.00     0.099 A 
HETATM   27  C   UNL     1       3.795  27.033  47.710  1.00  0.00     0.098 A 
HETATM   28  C   UNL     1       2.855  27.573  48.570  1.00  0.00     0.040 A 
HETATM   29  C   UNL     1       3.258  28.532  49.503  1.00  0.00     0.010 A 
BRANCH  26  30
HETATM   30  O   UNL     1       6.001  26.893  46.875  1.00  0.00    -0.358 OA
HETATM   31  H   UNL     1       6.792  27.463  46.863  1.00  0.00     0.218 HD
ENDBRANCH  26  30
BRANCH  27  32
HETATM   32  O   UNL     1       3.405  26.110  46.783  1.00  0.00    -0.358 OA
HETATM   33  H   UNL     1       4.203  25.966  46.237  1.00  0.00     0.218 HD
ENDBRANCH  27  32
ENDBRANCH  23  24
ENDBRANCH  22  23
ENDBRANCH  19  22
ENDBRANCH   1  18
TORSDOF 10
ENDMDL
MODEL 7
REMARK VINA RESULT:      -8.5      1.302      2.053
REMARK  10 active torsions:
REMARK  status: ('A' for Active; 'I' for Inactive)
REMARK    1  A    between atoms: C_4  and  C_5 
REMARK    2  A    between atoms: C_5  and  C_6 
REMARK    3  A    between atoms: C_6  and  N_7 
REMARK    4  A    between atoms: C_6  and  C_15 
REMARK       I    between atoms: N_7  and  C_8 
REMARK    5  A    between atoms: C_8  and  C_9 
REMARK       I    between atoms: C_15  and  N_16 
REMARK    6  A    between atoms: N_16  and  C_17 
REMARK    7  A    between atoms: C_17  and  C_18 
REMARK    8  A    between atoms: C_18  and  C_19 
REMARK    9  A    between atoms: C_21  and  O_22 
REMARK   10  A    between atoms: C_23  and  O_24 
ROOT
HETATM    1  C   UNL     1       6.917  26.432  54.611  1.00  0.00     0.181 C 
ENDROOT
BRANCH   1   2
HETATM    2  C   UNL     1       7.819  25.562  53.711  1.00  0.00     0.073 C 
BRANCH   2   3
HETATM    3  C   UNL     1       7.745  24.065  53.927  1.00  0.00    -0.056 A 
HETATM    4  C   UNL     1       7.907  23.156  52.871  1.00  0.00     0.007 A 
HETATM    5  C   UNL     1       7.929  21.780  53.109  1.00  0.00     0.001 A 
HETATM    6  C   UNL     1       7.810  21.293  54.408  1.00  0.00     0.000 A 
HETATM    7  C   UNL     1       7.666  22.183  55.470  1.00  0.00     0.001 A 
HETATM    8  C   UNL     1       7.634  23.559  55.231  1.00  0.00     0.007 A 
ENDBRANCH   2   3
ENDBRANCH   1   2
BRANCH   1   9
HETATM    9  N   UNL     1       7.636  27.399  55.447  1.00  0.00    -0.342 N 
HETATM   10  C   UNL     1       7.726  27.378  56.817  1.00  0.00     0.276 C 
HETATM   11  O   UNL     1       7.294  26.436  57.481  1.00  0.00    -0.265 OA
HETATM   12  H   UNL     1       7.986  28.239  54.997  1.00  0.00     0.163 HD
BRANCH  10  13
HETATM   13  C   UNL     1       8.425  28.512  57.383  1.00  0.00     0.142 A 
HETATM   14  O   UNL     1       9.686  28.816  56.935  1.00  0.00    -0.317 OA
HETATM   15  C   UNL     1      10.111  29.898  57.638  1.00  0.00     0.143 A 
HETATM   16  C   UNL     1       9.150  30.298  58.536  1.00  0.00     0.027 A 
HETATM   17  C   UNL     1       8.061  29.407  58.372  1.00  0.00     0.045 A 
ENDBRANCH  10  13
ENDBRANCH   1   9
BRANCH   1  18
HETATM   18  C   UNL     1       5.775  27.005  53.741  1.00  0.00     0.240 C 
HETATM   19  N   UNL     1       5.927  26.919  52.376  1.00  0.00    -0.359 N 
HETATM   20  H   UNL     1       6.697  26.347  52.044  1.00  0.00     0.162 HD
HETATM   21  O   UNL     1       4.722  27.383  54.258  1.00  0.00    -0.271 OA
BRANCH  19  22
HETATM   22  C   UNL     1       4.790  27.108  51.490  1.00  0.00     0.127 C 
BRANCH  22  23
HETATM   23  C   UNL     1       5.181  27.403  50.038  1.00  0.00     0.058 C 
BRANCH  23  24
HETATM   24  C   UNL     1       4.133  27.255  48.952  1.00  0.00    -0.054 A 
HETATM   25  C   UNL     1       3.581  28.329  48.241  1.00  0.00     0.046 A 
HETATM   26  C   UNL     1       2.579  28.100  47.300  1.00  0.00     0.099 A 
HETATM   27  C   UNL     1       2.151  26.807  47.021  1.00  0.00     0.098 A 
HETATM   28  C   UNL     1       2.697  25.727  47.690  1.00  0.00     0.040 A 
HETATM   29  C   UNL     1       3.678  25.952  48.659  1.00  0.00     0.010 A 
BRANCH  26  30
HETATM   30  O   UNL     1       1.975  29.132  46.635  1.00  0.00    -0.358 OA
HETATM   31  H   UNL     1       1.614  29.739  47.308  1.00  0.00     0.218 HD
ENDBRANCH  26  30
BRANCH  27  32
HETATM   32  O   UNL     1       1.178  26.597  46.088  1.00  0.00    -0.358 OA
HETATM   33  H   UNL     1       1.253  25.646  45.872  1.00  0.00     0.218 HD
ENDBRANCH  27  32
ENDBRANCH  23  24
ENDBRANCH  22  23
ENDBRANCH  19  22
ENDBRANCH   1  18
TORSDOF 10
ENDMDL
MODEL 8
REMARK VINA RESULT:      -8.4      2.028      5.370
REMARK  10 active torsions:
REMARK  status: ('A' for Active; 'I' for Inactive)
REMARK    1  A    between atoms: C_4  and  C_5 
REMARK    2  A    between atoms: C_5  and  C_6 
REMARK    3  A    between atoms: C_6  and  N_7 
REMARK    4  A    between atoms: C_6  and  C_15 
REMARK       I    between atoms: N_7  and  C_8 
REMARK    5  A    between atoms: C_8  and  C_9 
REMARK       I    between atoms: C_15  and  N_16 
REMARK    6  A    between atoms: N_16  and  C_17 
REMARK    7  A    between atoms: C_17  and  C_18 
REMARK    8  A    between atoms: C_18  and  C_19 
REMARK    9  A    between atoms: C_21  and  O_22 
REMARK   10  A    between atoms: C_23  and  O_24 
ROOT
HETATM    1  C   UNL     1       6.619  25.973  54.473  1.00  0.00     0.181 C 
ENDROOT
BRANCH   1   2
HETATM    2  C   UNL     1       5.537  26.202  55.550  1.00  0.00     0.073 C 
BRANCH   2   3
HETATM    3  C   UNL     1       5.620  27.502  56.323  1.00  0.00    -0.056 A 
HETATM    4  C   UNL     1       6.774  27.868  57.033  1.00  0.00     0.007 A 
HETATM    5  C   UNL     1       6.861  29.113  57.660  1.00  0.00     0.001 A 
HETATM    6  C   UNL     1       5.806  30.018  57.569  1.00  0.00     0.000 A 
HETATM    7  C   UNL     1       4.661  29.676  56.854  1.00  0.00     0.001 A 
HETATM    8  C   UNL     1       4.569  28.427  56.235  1.00  0.00     0.007 A 
ENDBRANCH   2   3
ENDBRANCH   1   2
BRANCH   1   9
HETATM    9  N   UNL     1       6.911  24.564  54.189  1.00  0.00    -0.342 N 
HETATM   10  C   UNL     1       7.849  23.787  54.824  1.00  0.00     0.276 C 
HETATM   11  O   UNL     1       8.466  24.190  55.809  1.00  0.00    -0.265 OA
HETATM   12  H   UNL     1       6.488  24.154  53.362  1.00  0.00     0.163 HD
BRANCH  10  13
HETATM   13  C   UNL     1       7.985  22.455  54.274  1.00  0.00     0.142 A 
HETATM   14  O   UNL     1       8.262  21.406  55.115  1.00  0.00    -0.317 OA
HETATM   15  C   UNL     1       8.355  20.290  54.346  1.00  0.00     0.143 A 
HETATM   16  C   UNL     1       8.148  20.597  53.023  1.00  0.00     0.027 A 
HETATM   17  C   UNL     1       7.908  21.992  52.974  1.00  0.00     0.045 A 
ENDBRANCH  10  13
ENDBRANCH   1   9
BRANCH   1  18
HETATM   18  C   UNL     1       6.276  26.854  53.250  1.00  0.00     0.240 C 
HETATM   19  N   UNL     1       5.278  26.403  52.416  1.00  0.00    -0.359 N 
HETATM   20  H   UNL     1       4.735  25.613  52.750  1.00  0.00     0.162 HD
HETATM   21  O   UNL     1       6.778  27.972  53.122  1.00  0.00    -0.271 OA
BRANCH  19  22
HETATM   22  C   UNL     1       4.655  27.298  51.455  1.00  0.00     0.127 C 
BRANCH  22  23
HETATM   23  C   UNL     1       5.007  26.981  49.997  1.00  0.00     0.058 C 
BRANCH  23  24
HETATM   24  C   UNL     1       3.891  26.911  48.973  1.00  0.00    -0.054 A 
HETATM   25  C   UNL     1       3.780  25.907  48.001  1.00  0.00     0.046 A 
HETATM   26  C   UNL     1       2.752  25.958  47.062  1.00  0.00     0.099 A 
HETATM   27  C   UNL     1       1.800  26.969  47.107  1.00  0.00     0.098 A 
HETATM   28  C   UNL     1       1.871  27.958  48.073  1.00  0.00     0.040 A 
HETATM   29  C   UNL     1       2.919  27.932  48.996  1.00  0.00     0.010 A 
BRANCH  26  30
HETATM   30  O   UNL     1       2.653  25.030  46.061  1.00  0.00    -0.358 OA
HETATM   31  H   UNL     1       2.004  25.367  45.416  1.00  0.00     0.218 HD
ENDBRANCH  26  30
BRANCH  27  32
HETATM   32  O   UNL     1       0.791  26.999  46.190  1.00  0.00    -0.358 OA
HETATM   33  H   UNL     1       0.698  26.068  45.904  1.00  0.00     0.218 HD
ENDBRANCH  27  32
ENDBRANCH  23  24
ENDBRANCH  22  23
ENDBRANCH  19  22
ENDBRANCH   1  18
TORSDOF 10
ENDMDL
MODEL 9
REMARK VINA RESULT:      -8.4      3.809      6.702
REMARK  10 active torsions:
REMARK  status: ('A' for Active; 'I' for Inactive)
REMARK    1  A    between atoms: C_4  and  C_5 
REMARK    2  A    between atoms: C_5  and  C_6 
REMARK    3  A    between atoms: C_6  and  N_7 
REMARK    4  A    between atoms: C_6  and  C_15 
REMARK       I    between atoms: N_7  and  C_8 
REMARK    5  A    between atoms: C_8  and  C_9 
REMARK       I    between atoms: C_15  and  N_16 
REMARK    6  A    between atoms: N_16  and  C_17 
REMARK    7  A    between atoms: C_17  and  C_18 
REMARK    8  A    between atoms: C_18  and  C_19 
REMARK    9  A    between atoms: C_21  and  O_22 
REMARK   10  A    between atoms: C_23  and  O_24 
ROOT
HETATM    1  C   UNL     1       6.974  27.017  54.934  1.00  0.00     0.181 C 
ENDROOT
BRANCH   1   2
HETATM    2  C   UNL     1       7.531  26.228  53.731  1.00  0.00     0.073 C 
BRANCH   2   3
HETATM    3  C   UNL     1       7.553  24.720  53.865  1.00  0.00    -0.056 A 
HETATM    4  C   UNL     1       7.822  23.884  52.771  1.00  0.00     0.007 A 
HETATM    5  C   UNL     1       7.930  22.501  52.938  1.00  0.00     0.001 A 
HETATM    6  C   UNL     1       7.792  21.937  54.203  1.00  0.00     0.000 A 
HETATM    7  C   UNL     1       7.543  22.755  55.302  1.00  0.00     0.001 A 
HETATM    8  C   UNL     1       7.424  24.136  55.135  1.00  0.00     0.007 A 
ENDBRANCH   2   3
ENDBRANCH   1   2
BRANCH   1   9
HETATM    9  N   UNL     1       7.922  27.955  55.543  1.00  0.00    -0.342 N 
HETATM   10  C   UNL     1       8.388  27.914  56.835  1.00  0.00     0.276 C 
HETATM   11  O   UNL     1       8.130  26.975  57.587  1.00  0.00    -0.265 OA
HETATM   12  H   UNL     1       8.157  28.792  55.019  1.00  0.00     0.163 HD
BRANCH  10  13
HETATM   13  C   UNL     1       9.246  29.023  57.192  1.00  0.00     0.142 A 
HETATM   14  O   UNL     1       8.818  29.929  58.130  1.00  0.00    -0.317 OA
HETATM   15  C   UNL     1       9.796  30.864  58.259  1.00  0.00     0.143 A 
HETATM   16  C   UNL     1      10.847  30.582  57.419  1.00  0.00     0.027 A 
HETATM   17  C   UNL     1      10.496  29.394  56.732  1.00  0.00     0.045 A 
ENDBRANCH  10  13
ENDBRANCH   1   9
BRANCH   1  18
HETATM   18  C   UNL     1       5.602  27.606  54.533  1.00  0.00     0.240 C 
HETATM   19  N   UNL     1       5.331  28.892  54.941  1.00  0.00    -0.359 N 
HETATM   20  H   UNL     1       6.109  29.412  55.337  1.00  0.00     0.162 HD
HETATM   21  O   UNL     1       4.860  26.997  53.759  1.00  0.00    -0.271 OA
BRANCH  19  22
HETATM   22  C   UNL     1       4.243  29.647  54.341  1.00  0.00     0.127 C 
BRANCH  22  23
HETATM   23  C   UNL     1       4.109  31.074  54.883  1.00  0.00     0.058 C 
BRANCH  23  24
HETATM   24  C   UNL     1       4.372  31.327  56.354  1.00  0.00    -0.054 A 
HETATM   25  C   UNL     1       5.580  31.825  56.862  1.00  0.00     0.046 A 
HETATM   26  C   UNL     1       5.750  31.970  58.237  1.00  0.00     0.099 A 
HETATM   27  C   UNL     1       4.714  31.671  59.115  1.00  0.00     0.098 A 
HETATM   28  C   UNL     1       3.503  31.203  58.639  1.00  0.00     0.040 A 
HETATM   29  C   UNL     1       3.337  31.024  57.263  1.00  0.00     0.010 A 
BRANCH  26  30
HETATM   30  O   UNL     1       6.939  32.391  58.769  1.00  0.00    -0.358 OA
HETATM   31  H   UNL     1       7.043  33.333  58.537  1.00  0.00     0.218 HD
ENDBRANCH  26  30
BRANCH  27  32
HETATM   32  O   UNL     1       4.891  31.830  60.458  1.00  0.00    -0.358 OA
HETATM   33  H   UNL     1       3.983  31.837  60.822  1.00  0.00     0.218 HD
ENDBRANCH  27  32
ENDBRANCH  23  24
ENDBRANCH  22  23
ENDBRANCH  19  22
ENDBRANCH   1  18
TORSDOF 10
ENDMDL
MODEL 10
REMARK VINA RESULT:      -8.3      7.576     13.086
REMARK  10 active torsions:
REMARK  status: ('A' for Active; 'I' for Inactive)
REMARK    1  A    between atoms: C_4  and  C_5 
REMARK    2  A    between atoms: C_5  and  C_6 
REMARK    3  A    between atoms: C_6  and  N_7 
REMARK    4  A    between atoms: C_6  and  C_15 
REMARK       I    between atoms: N_7  and  C_8 
REMARK    5  A    between atoms: C_8  and  C_9 
REMARK       I    between atoms: C_15  and  N_16 
REMARK    6  A    between atoms: N_16  and  C_17 
REMARK    7  A    between atoms: C_17  and  C_18 
REMARK    8  A    between atoms: C_18  and  C_19 
REMARK    9  A    between atoms: C_21  and  O_22 
REMARK   10  A    between atoms: C_23  and  O_24 
ROOT
HETATM    1  C   UNL     1       5.895  32.668  60.021  1.00  0.00     0.181 C 
ENDROOT
BRANCH   1   2
HETATM    2  C   UNL     1       5.187  32.310  61.344  1.00  0.00     0.073 C 
BRANCH   2   3
HETATM    3  C   UNL     1       5.870  32.761  62.618  1.00  0.00    -0.056 A 
HETATM    4  C   UNL     1       5.143  33.072  63.777  1.00  0.00     0.007 A 
HETATM    5  C   UNL     1       5.800  33.394  64.967  1.00  0.00     0.001 A 
HETATM    6  C   UNL     1       7.192  33.390  65.022  1.00  0.00     0.000 A 
HETATM    7  C   UNL     1       7.927  33.067  63.884  1.00  0.00     0.001 A 
HETATM    8  C   UNL     1       7.272  32.754  62.691  1.00  0.00     0.007 A 
ENDBRANCH   2   3
ENDBRANCH   1   2
BRANCH   1   9
HETATM    9  N   UNL     1       6.596  31.552  59.379  1.00  0.00    -0.342 N 
HETATM   10  C   UNL     1       7.913  31.539  58.988  1.00  0.00     0.276 C 
HETATM   11  O   UNL     1       8.680  32.460  59.264  1.00  0.00    -0.265 OA
HETATM   12  H   UNL     1       6.038  30.764  59.066  1.00  0.00     0.163 HD
BRANCH  10  13
HETATM   13  C   UNL     1       8.314  30.333  58.295  1.00  0.00     0.142 A 
HETATM   14  O   UNL     1       7.457  29.262  58.261  1.00  0.00    -0.317 OA
HETATM   15  C   UNL     1       8.082  28.271  57.573  1.00  0.00     0.143 A 
HETATM   16  C   UNL     1       9.330  28.678  57.166  1.00  0.00     0.027 A 
HETATM   17  C   UNL     1       9.481  30.009  57.629  1.00  0.00     0.045 A 
ENDBRANCH  10  13
ENDBRANCH   1   9
BRANCH   1  18
HETATM   18  C   UNL     1       4.893  33.440  59.131  1.00  0.00     0.240 C 
HETATM   19  N   UNL     1       3.712  33.834  59.718  1.00  0.00    -0.359 N 
HETATM   20  H   UNL     1       3.654  33.729  60.727  1.00  0.00     0.162 HD
HETATM   21  O   UNL     1       5.212  33.805  57.998  1.00  0.00    -0.271 OA
BRANCH  19  22
HETATM   22  C   UNL     1       2.870  34.838  59.089  1.00  0.00     0.127 C 
BRANCH  22  23
HETATM   23  C   UNL     1       2.614  36.068  59.967  1.00  0.00     0.058 C 
BRANCH  23  24
HETATM   24  C   UNL     1       3.445  36.258  61.221  1.00  0.00    -0.054 A 
HETATM   25  C   UNL     1       2.991  35.967  62.515  1.00  0.00     0.046 A 
HETATM   26  C   UNL     1       3.806  36.230  63.614  1.00  0.00     0.099 A 
HETATM   27  C   UNL     1       5.089  36.735  63.440  1.00  0.00     0.098 A 
HETATM   28  C   UNL     1       5.571  37.007  62.172  1.00  0.00     0.040 A 
HETATM   29  C   UNL     1       4.747  36.777  61.068  1.00  0.00     0.010 A 
BRANCH  26  30
HETATM   30  O   UNL     1       3.369  36.018  64.893  1.00  0.00    -0.358 OA
HETATM   31  H   UNL     1       2.677  36.680  65.078  1.00  0.00     0.218 HD
ENDBRANCH  26  30
BRANCH  27  32
HETATM   32  O   UNL     1       5.881  36.976  64.525  1.00  0.00    -0.358 OA
HETATM   33  H   UNL     1       6.383  37.780  64.283  1.00  0.00     0.218 HD
ENDBRANCH  27  32
ENDBRANCH  23  24
ENDBRANCH  22  23
ENDBRANCH  19  22
ENDBRANCH   1  18
TORSDOF 10
ENDMDL
