MODEL 1
REMARK VINA RESULT:      -8.7      0.000      0.000
REMARK  11 active torsions:
REMARK  status: ('A' for Active; 'I' for Inactive)
REMARK    1  A    between atoms: O_2  and  C_3 
REMARK    2  A    between atoms: C_6  and  C_7 
REMARK    3  A    between atoms: C_7  and  N_8 
REMARK    4  A    between atoms: C_7  and  C_29 
REMARK       I    between atoms: N_8  and  C_9 
REMARK    5  A    between atoms: N_8  and  C_20 
REMARK    6  A    between atoms: C_9  and  C_10 
REMARK    7  A    between atoms: C_13  and  C_14 
REMARK       I    between atoms: C_14  and  N_15 
REMARK    8  A    between atoms: C_17  and  N_18 
REMARK    9  A    between atoms: C_20  and  C_21 
REMARK   10  A    between atoms: C_21  and  N_22 
REMARK       I    between atoms: C_29  and  N_30 
REMARK   11  A    between atoms: N_30  and  C_31 
ROOT
HETATM    1  N   UNL     1       5.693  27.510  53.740  1.00  0.00    -0.328 N 
HETATM    2  C   UNL     1       4.424  28.095  53.998  1.00  0.00     0.265 C 
HETATM    3  O   UNL     1       3.430  27.676  53.400  1.00  0.00    -0.267 OA
ENDROOT
BRANCH   1   4
HETATM    4  C   UNL     1       5.734  26.478  52.672  1.00  0.00     0.213 C 
BRANCH   4   5
HETATM    5  C   UNL     1       5.487  26.968  51.247  1.00  0.00    -0.026 A 
HETATM    6  C   UNL     1       4.884  26.122  50.300  1.00  0.00     0.012 A 
HETATM    7  C   UNL     1       4.576  26.577  49.011  1.00  0.00     0.037 A 
HETATM    8  C   UNL     1       4.849  27.892  48.647  1.00  0.00     0.068 A 
HETATM    9  C   UNL     1       5.427  28.748  49.584  1.00  0.00     0.037 A 
HETATM   10  C   UNL     1       5.737  28.298  50.870  1.00  0.00     0.012 A 
BRANCH   8  11
HETATM   11  O   UNL     1       4.594  28.465  47.434  1.00  0.00    -0.356 OA
HETATM   12  C   UNL     1       3.298  29.019  47.242  1.00  0.00     0.210 C 
ENDBRANCH   8  11
ENDBRANCH   4   5
BRANCH   4  13
HETATM   13  C   UNL     1       6.887  25.467  52.871  1.00  0.00     0.245 C 
HETATM   14  N   UNL     1       6.642  24.418  53.721  1.00  0.00    -0.354 N 
HETATM   15  H   UNL     1       5.779  24.448  54.269  1.00  0.00     0.162 HD
HETATM   16  O   UNL     1       7.940  25.607  52.246  1.00  0.00    -0.271 OA
BRANCH  14  17
HETATM   17  C   UNL     1       7.655  23.452  54.082  1.00  0.00     0.084 C 
HETATM   18  C   UNL     1       7.365  22.795  55.430  1.00  0.00     0.025 C 
HETATM   19  C   UNL     1       8.155  21.501  55.353  1.00  0.00     0.002 C 
HETATM   20  C   UNL     1       7.919  21.023  53.927  1.00  0.00     0.002 C 
HETATM   21  C   UNL     1       7.744  22.289  53.088  1.00  0.00     0.025 C 
ENDBRANCH  14  17
ENDBRANCH   4  13
ENDBRANCH   1   4
BRANCH   1  22
HETATM   22  C   UNL     1       6.969  28.208  54.022  1.00  0.00     0.155 C 
BRANCH  22  23
HETATM   23  C   UNL     1       7.679  27.757  55.322  1.00  0.00     0.255 C 
BRANCH  23  24
HETATM   24  N   UNL     1       8.204  28.910  56.156  1.00  0.00    -0.066 N 
HETATM   25  H   UNL     1       7.744  29.772  55.838  1.00  0.00     0.280 HD
HETATM   26  C   UNL     1       7.950  28.743  57.659  1.00  0.00     0.261 C 
HETATM   27  C   UNL     1       8.490  29.969  58.405  1.00  0.00     0.195 C 
HETATM   28  O   UNL     1       9.888  30.141  58.152  1.00  0.00    -0.388 OA
HETATM   29  C   UNL     1      10.158  30.351  56.762  1.00  0.00     0.195 C 
HETATM   30  C   UNL     1       9.701  29.147  55.928  1.00  0.00     0.261 C 
ENDBRANCH  23  24
ENDBRANCH  22  23
ENDBRANCH   1  22
BRANCH   2  31
HETATM   31  C   UNL     1       4.302  29.196  54.923  1.00  0.00     0.120 A 
HETATM   32  S   UNL     1       4.243  30.816  54.411  1.00  0.00     0.020 SA
HETATM   33  N   UNL     1       4.127  31.491  55.913  1.00  0.00    -0.203 NA
HETATM   34  C   UNL     1       4.281  30.528  56.839  1.00  0.00     0.160 A 
HETATM   35  C   UNL     1       4.395  29.189  56.301  1.00  0.00     0.085 A 
BRANCH  34  36
HETATM   36  C   UNL     1       4.344  30.875  58.270  1.00  0.00     0.271 C 
HETATM   37  N   UNL     1       3.267  30.481  59.017  1.00  0.00    -0.365 N 
HETATM   38  H   UNL     1       2.471  30.042  58.572  1.00  0.00     0.159 HD
HETATM   39  H   UNL     1       3.224  30.748  59.990  1.00  0.00     0.159 HD
HETATM   40  O   UNL     1       5.277  31.489  58.780  1.00  0.00    -0.266 OA
ENDBRANCH  34  36
BRANCH  35  41
HETATM   41  N   UNL     1       4.562  28.065  57.043  1.00  0.00    -0.396 N 
HETATM   42  H   UNL     1       4.458  27.153  56.581  1.00  0.00     0.156 HD
HETATM   43  H   UNL     1       4.237  28.027  58.010  1.00  0.00     0.156 HD
ENDBRANCH  35  41
ENDBRANCH   2  31
TORSDOF 11
ENDMDL
MODEL 2
REMARK VINA RESULT:      -8.6      2.055      6.443
REMARK  11 active torsions:
REMARK  status: ('A' for Active; 'I' for Inactive)
REMARK    1  A    between atoms: O_2  and  C_3 
REMARK    2  A    between atoms: C_6  and  C_7 
REMARK    3  A    between atoms: C_7  and  N_8 
REMARK    4  A    between atoms: C_7  and  C_29 
REMARK       I    between atoms: N_8  and  C_9 
REMARK    5  A    between atoms: N_8  and  C_20 
REMARK    6  A    between atoms: C_9  and  C_10 
REMARK    7  A    between atoms: C_13  and  C_14 
REMARK       I    between atoms: C_14  and  N_15 
REMARK    8  A    between atoms: C_17  and  N_18 
REMARK    9  A    between atoms: C_20  and  C_21 
REMARK   10  A    between atoms: C_21  and  N_22 
REMARK       I    between atoms: C_29  and  N_30 
REMARK   11  A    between atoms: N_30  and  C_31 
ROOT
HETATM    1  N   UNL     1       6.093  27.376  53.488  1.00  0.00    -0.328 N 
HETATM    2  C   UNL     1       6.162  26.950  52.134  1.00  0.00     0.265 C 
HETATM    3  O   UNL     1       6.956  26.062  51.817  1.00  0.00    -0.267 OA
ENDROOT
BRANCH   1   4
HETATM    4  C   UNL     1       7.077  26.765  54.418  1.00  0.00     0.213 C 
BRANCH   4   5
HETATM    5  C   UNL     1       7.623  27.673  55.518  1.00  0.00    -0.026 A 
HETATM    6  C   UNL     1       7.307  27.426  56.865  1.00  0.00     0.012 A 
HETATM    7  C   UNL     1       7.861  28.197  57.894  1.00  0.00     0.037 A 
HETATM    8  C   UNL     1       8.755  29.222  57.601  1.00  0.00     0.068 A 
HETATM    9  C   UNL     1       9.094  29.465  56.270  1.00  0.00     0.037 A 
HETATM   10  C   UNL     1       8.543  28.698  55.240  1.00  0.00     0.012 A 
BRANCH   8  11
HETATM   11  O   UNL     1       9.371  30.041  58.503  1.00  0.00    -0.356 OA
HETATM   12  C   UNL     1       8.589  30.490  59.604  1.00  0.00     0.210 C 
ENDBRANCH   8  11
ENDBRANCH   4   5
BRANCH   4  13
HETATM   13  C   UNL     1       6.686  25.327  54.832  1.00  0.00     0.245 C 
HETATM   14  N   UNL     1       7.591  24.339  54.542  1.00  0.00    -0.354 N 
HETATM   15  H   UNL     1       8.390  24.589  53.955  1.00  0.00     0.162 HD
HETATM   16  O   UNL     1       5.626  25.128  55.429  1.00  0.00    -0.271 OA
BRANCH  14  17
HETATM   17  C   UNL     1       7.322  22.938  54.778  1.00  0.00     0.084 C 
HETATM   18  C   UNL     1       7.813  22.060  53.630  1.00  0.00     0.025 C 
HETATM   19  C   UNL     1       7.958  20.697  54.284  1.00  0.00     0.002 C 
HETATM   20  C   UNL     1       8.570  21.016  55.641  1.00  0.00     0.002 C 
HETATM   21  C   UNL     1       8.038  22.399  56.021  1.00  0.00     0.025 C 
ENDBRANCH  14  17
ENDBRANCH   4  13
ENDBRANCH   1   4
BRANCH   1  22
HETATM   22  C   UNL     1       5.551  28.696  53.887  1.00  0.00     0.155 C 
BRANCH  22  23
HETATM   23  C   UNL     1       4.346  28.634  54.857  1.00  0.00     0.255 C 
BRANCH  23  24
HETATM   24  N   UNL     1       4.533  29.469  56.110  1.00  0.00    -0.066 N 
HETATM   25  H   UNL     1       4.881  28.854  56.855  1.00  0.00     0.280 HD
HETATM   26  C   UNL     1       5.518  30.630  55.929  1.00  0.00     0.261 C 
HETATM   27  C   UNL     1       5.658  31.389  57.254  1.00  0.00     0.195 C 
HETATM   28  O   UNL     1       4.387  31.877  57.695  1.00  0.00    -0.388 OA
HETATM   29  C   UNL     1       3.456  30.814  57.924  1.00  0.00     0.195 C 
HETATM   30  C   UNL     1       3.204  30.021  56.635  1.00  0.00     0.261 C 
ENDBRANCH  23  24
ENDBRANCH  22  23
ENDBRANCH   1  22
BRANCH   2  31
HETATM   31  C   UNL     1       5.338  27.578  51.129  1.00  0.00     0.120 A 
HETATM   32  S   UNL     1       5.153  29.265  51.022  1.00  0.00     0.020 SA
HETATM   33  N   UNL     1       4.121  29.266  49.734  1.00  0.00    -0.203 NA
HETATM   34  C   UNL     1       3.772  27.998  49.450  1.00  0.00     0.160 A 
HETATM   35  C   UNL     1       4.449  26.996  50.245  1.00  0.00     0.085 A 
BRANCH  34  36
HETATM   36  C   UNL     1       2.759  27.719  48.417  1.00  0.00     0.271 C 
HETATM   37  N   UNL     1       1.499  27.464  48.884  1.00  0.00    -0.365 N 
HETATM   38  H   UNL     1       1.324  27.412  49.880  1.00  0.00     0.159 HD
HETATM   39  H   UNL     1       0.778  27.202  48.227  1.00  0.00     0.159 HD
HETATM   40  O   UNL     1       3.005  27.696  47.214  1.00  0.00    -0.266 OA
ENDBRANCH  34  36
BRANCH  35  41
HETATM   41  N   UNL     1       4.254  25.658  50.138  1.00  0.00    -0.396 N 
HETATM   42  H   UNL     1       4.209  25.099  51.000  1.00  0.00     0.156 HD
HETATM   43  H   UNL     1       4.684  25.128  49.379  1.00  0.00     0.156 HD
ENDBRANCH  35  41
ENDBRANCH   2  31
TORSDOF 11
ENDMDL
MODEL 3
REMARK VINA RESULT:      -8.4      2.560      6.538
REMARK  11 active torsions:
REMARK  status: ('A' for Active; 'I' for Inactive)
REMARK    1  A    between atoms: O_2  and  C_3 
REMARK    2  A    between atoms: C_6  and  C_7 
REMARK    3  A    between atoms: C_7  and  N_8 
REMARK    4  A    between atoms: C_7  and  C_29 
REMARK       I    between atoms: N_8  and  C_9 
REMARK    5  A    between atoms: N_8  and  C_20 
REMARK    6  A    between atoms: C_9  and  C_10 
REMARK    7  A    between atoms: C_13  and  C_14 
REMARK       I    between atoms: C_14  and  N_15 
REMARK    8  A    between atoms: C_17  and  N_18 
REMARK    9  A    between atoms: C_20  and  C_21 
REMARK   10  A    between atoms: C_21  and  N_22 
REMARK       I    between atoms: C_29  and  N_30 
REMARK   11  A    between atoms: N_30  and  C_31 
ROOT
HETATM    1  N   UNL     1       5.902  26.863  53.755  1.00  0.00    -0.328 N 
HETATM    2  C   UNL     1       5.745  25.474  53.498  1.00  0.00     0.265 C 
HETATM    3  O   UNL     1       4.744  25.078  52.899  1.00  0.00    -0.267 OA
ENDROOT
BRANCH   1   4
HETATM    4  C   UNL     1       4.770  27.736  53.352  1.00  0.00     0.213 C 
BRANCH   4   5
HETATM    5  C   UNL     1       4.381  28.837  54.335  1.00  0.00    -0.026 A 
HETATM    6  C   UNL     1       4.163  30.150  53.882  1.00  0.00     0.012 A 
HETATM    7  C   UNL     1       3.729  31.157  54.753  1.00  0.00     0.037 A 
HETATM    8  C   UNL     1       3.487  30.870  56.093  1.00  0.00     0.068 A 
HETATM    9  C   UNL     1       3.678  29.567  56.552  1.00  0.00     0.037 A 
HETATM   10  C   UNL     1       4.113  28.559  55.686  1.00  0.00     0.012 A 
BRANCH   8  11
HETATM   11  O   UNL     1       3.056  31.750  57.044  1.00  0.00    -0.356 OA
HETATM   12  C   UNL     1       3.425  33.114  56.873  1.00  0.00     0.210 C 
ENDBRANCH   8  11
ENDBRANCH   4   5
BRANCH   4  13
HETATM   13  C   UNL     1       4.828  28.126  51.856  1.00  0.00     0.245 C 
HETATM   14  N   UNL     1       3.822  27.643  51.058  1.00  0.00    -0.354 N 
HETATM   15  H   UNL     1       3.188  26.952  51.466  1.00  0.00     0.162 HD
HETATM   16  O   UNL     1       5.723  28.869  51.451  1.00  0.00    -0.271 OA
BRANCH  14  17
HETATM   17  C   UNL     1       3.797  27.840  49.626  1.00  0.00     0.084 C 
HETATM   18  C   UNL     1       4.256  26.596  48.870  1.00  0.00     0.025 C 
HETATM   19  C   UNL     1       3.644  26.792  47.494  1.00  0.00     0.002 C 
HETATM   20  C   UNL     1       2.253  27.331  47.796  1.00  0.00     0.002 C 
HETATM   21  C   UNL     1       2.390  28.129  49.093  1.00  0.00     0.025 C 
ENDBRANCH  14  17
ENDBRANCH   4  13
ENDBRANCH   1   4
BRANCH   1  22
HETATM   22  C   UNL     1       6.778  27.385  54.830  1.00  0.00     0.155 C 
BRANCH  22  23
HETATM   23  C   UNL     1       7.854  28.393  54.354  1.00  0.00     0.255 C 
BRANCH  23  24
HETATM   24  N   UNL     1       8.377  29.287  55.462  1.00  0.00    -0.066 N 
HETATM   25  H   UNL     1       8.125  30.257  55.237  1.00  0.00     0.280 HD
HETATM   26  C   UNL     1       7.815  28.940  56.845  1.00  0.00     0.261 C 
HETATM   27  C   UNL     1       8.381  29.917  57.884  1.00  0.00     0.195 C 
HETATM   28  O   UNL     1       9.811  29.866  57.900  1.00  0.00    -0.388 OA
HETATM   29  C   UNL     1      10.373  30.235  56.637  1.00  0.00     0.195 C 
HETATM   30  C   UNL     1       9.908  29.279  55.531  1.00  0.00     0.261 C 
ENDBRANCH  23  24
ENDBRANCH  22  23
ENDBRANCH   1  22
BRANCH   2  31
HETATM   31  C   UNL     1       6.730  24.529  53.968  1.00  0.00     0.120 A 
HETATM   32  S   UNL     1       7.755  23.678  52.912  1.00  0.00     0.020 SA
HETATM   33  N   UNL     1       8.555  22.816  54.071  1.00  0.00    -0.203 NA
HETATM   34  C   UNL     1       7.970  23.034  55.262  1.00  0.00     0.160 A 
HETATM   35  C   UNL     1       6.903  24.012  55.238  1.00  0.00     0.085 A 
BRANCH  34  36
HETATM   36  C   UNL     1       8.411  22.289  56.454  1.00  0.00     0.271 C 
HETATM   37  N   UNL     1       8.755  20.983  56.236  1.00  0.00    -0.365 N 
HETATM   38  H   UNL     1       8.638  20.570  55.319  1.00  0.00     0.159 HD
HETATM   39  H   UNL     1       9.002  20.405  57.026  1.00  0.00     0.159 HD
HETATM   40  O   UNL     1       8.462  22.777  57.580  1.00  0.00    -0.266 OA
ENDBRANCH  34  36
BRANCH  35  41
HETATM   41  N   UNL     1       6.169  24.388  56.315  1.00  0.00    -0.396 N 
HETATM   42  H   UNL     1       5.163  24.175  56.321  1.00  0.00     0.156 HD
HETATM   43  H   UNL     1       6.362  25.268  56.794  1.00  0.00     0.156 HD
ENDBRANCH  35  41
ENDBRANCH   2  31
TORSDOF 11
ENDMDL
MODEL 4
REMARK VINA RESULT:      -8.2      2.113      6.315
REMARK  11 active torsions:
REMARK  status: ('A' for Active; 'I' for Inactive)
REMARK    1  A    between atoms: O_2  and  C_3 
REMARK    2  A    between atoms: C_6  and  C_7 
REMARK    3  A    between atoms: C_7  and  N_8 
REMARK    4  A    between atoms: C_7  and  C_29 
REMARK       I    between atoms: N_8  and  C_9 
REMARK    5  A    between atoms: N_8  and  C_20 
REMARK    6  A    between atoms: C_9  and  C_10 
REMARK    7  A    between atoms: C_13  and  C_14 
REMARK       I    between atoms: C_14  and  N_15 
REMARK    8  A    between atoms: C_17  and  N_18 
REMARK    9  A    between atoms: C_20  and  C_21 
REMARK   10  A    between atoms: C_21  and  N_22 
REMARK       I    between atoms: C_29  and  N_30 
REMARK   11  A    between atoms: N_30  and  C_31 
ROOT
HETATM    1  N   UNL     1       5.760  27.636  53.553  1.00  0.00    -0.328 N 
HETATM    2  C   UNL     1       5.589  27.394  52.163  1.00  0.00     0.265 C 
HETATM    3  O   UNL     1       6.279  26.537  51.607  1.00  0.00    -0.267 OA
ENDROOT
BRANCH   1   4
HETATM    4  C   UNL     1       6.853  26.882  54.220  1.00  0.00     0.213 C 
BRANCH   4   5
HETATM    5  C   UNL     1       7.584  27.606  55.348  1.00  0.00    -0.026 A 
HETATM    6  C   UNL     1       8.448  28.678  55.062  1.00  0.00     0.012 A 
HETATM    7  C   UNL     1       9.066  29.406  56.086  1.00  0.00     0.037 A 
HETATM    8  C   UNL     1       8.820  29.090  57.419  1.00  0.00     0.068 A 
HETATM    9  C   UNL     1       7.949  28.043  57.717  1.00  0.00     0.037 A 
HETATM   10  C   UNL     1       7.331  27.313  56.699  1.00  0.00     0.012 A 
BRANCH   8  11
HETATM   11  O   UNL     1       9.348  29.721  58.509  1.00  0.00    -0.356 OA
HETATM   12  C   UNL     1       8.429  30.196  59.486  1.00  0.00     0.210 C 
ENDBRANCH   8  11
ENDBRANCH   4   5
BRANCH   4  13
HETATM   13  C   UNL     1       6.484  25.401  54.466  1.00  0.00     0.245 C 
HETATM   14  N   UNL     1       7.398  24.465  54.051  1.00  0.00    -0.354 N 
HETATM   15  H   UNL     1       8.186  24.794  53.488  1.00  0.00     0.162 HD
HETATM   16  O   UNL     1       5.435  25.119  55.047  1.00  0.00    -0.271 OA
BRANCH  14  17
HETATM   17  C   UNL     1       7.148  23.043  54.124  1.00  0.00     0.084 C 
HETATM   18  C   UNL     1       7.835  22.283  52.992  1.00  0.00     0.025 C 
HETATM   19  C   UNL     1       7.932  20.871  53.541  1.00  0.00     0.002 C 
HETATM   20  C   UNL     1       8.326  21.082  54.997  1.00  0.00     0.002 C 
HETATM   21  C   UNL     1       7.695  22.412  55.410  1.00  0.00     0.025 C 
ENDBRANCH  14  17
ENDBRANCH   4  13
ENDBRANCH   1   4
BRANCH   1  22
HETATM   22  C   UNL     1       5.352  28.904  54.201  1.00  0.00     0.155 C 
BRANCH  22  23
HETATM   23  C   UNL     1       4.281  28.747  55.310  1.00  0.00     0.255 C 
BRANCH  23  24
HETATM   24  N   UNL     1       4.515  29.646  56.509  1.00  0.00    -0.066 N 
HETATM   25  H   UNL     1       4.839  29.062  57.289  1.00  0.00     0.280 HD
HETATM   26  C   UNL     1       5.552  30.747  56.255  1.00  0.00     0.261 C 
HETATM   27  C   UNL     1       5.735  31.577  57.531  1.00  0.00     0.195 C 
HETATM   28  O   UNL     1       4.492  32.149  57.946  1.00  0.00    -0.388 OA
HETATM   29  C   UNL     1       3.514  31.147  58.243  1.00  0.00     0.195 C 
HETATM   30  C   UNL     1       3.217  30.291  57.005  1.00  0.00     0.261 C 
ENDBRANCH  23  24
ENDBRANCH  22  23
ENDBRANCH   1  22
BRANCH   2  31
HETATM   31  C   UNL     1       4.642  28.169  51.398  1.00  0.00     0.120 A 
HETATM   32  S   UNL     1       3.120  28.617  52.012  1.00  0.00     0.020 SA
HETATM   33  N   UNL     1       2.598  29.421  50.669  1.00  0.00    -0.203 NA
HETATM   34  C   UNL     1       3.489  29.244  49.677  1.00  0.00     0.160 A 
HETATM   35  C   UNL     1       4.679  28.515  50.061  1.00  0.00     0.085 A 
BRANCH  34  36
HETATM   36  C   UNL     1       3.207  29.756  48.325  1.00  0.00     0.271 C 
HETATM   37  N   UNL     1       1.892  29.728  47.948  1.00  0.00    -0.365 N 
HETATM   38  H   UNL     1       1.196  29.314  48.555  1.00  0.00     0.159 HD
HETATM   39  H   UNL     1       1.647  30.005  47.009  1.00  0.00     0.159 HD
HETATM   40  O   UNL     1       4.075  30.172  47.561  1.00  0.00    -0.266 OA
ENDBRANCH  34  36
BRANCH  35  41
HETATM   41  N   UNL     1       5.708  28.214  49.229  1.00  0.00    -0.396 N 
HETATM   42  H   UNL     1       5.510  28.098  48.227  1.00  0.00     0.156 HD
HETATM   43  H   UNL     1       6.455  27.588  49.532  1.00  0.00     0.156 HD
ENDBRANCH  35  41
ENDBRANCH   2  31
TORSDOF 11
ENDMDL
MODEL 5
REMARK VINA RESULT:      -7.7      2.341      7.417
REMARK  11 active torsions:
REMARK  status: ('A' for Active; 'I' for Inactive)
REMARK    1  A    between atoms: O_2  and  C_3 
REMARK    2  A    between atoms: C_6  and  C_7 
REMARK    3  A    between atoms: C_7  and  N_8 
REMARK    4  A    between atoms: C_7  and  C_29 
REMARK       I    between atoms: N_8  and  C_9 
REMARK    5  A    between atoms: N_8  and  C_20 
REMARK    6  A    between atoms: C_9  and  C_10 
REMARK    7  A    between atoms: C_13  and  C_14 
REMARK       I    between atoms: C_14  and  N_15 
REMARK    8  A    between atoms: C_17  and  N_18 
REMARK    9  A    between atoms: C_20  and  C_21 
REMARK   10  A    between atoms: C_21  and  N_22 
REMARK       I    between atoms: C_29  and  N_30 
REMARK   11  A    between atoms: N_30  and  C_31 
ROOT
HETATM    1  N   UNL     1       5.693  27.300  54.388  1.00  0.00    -0.328 N 
HETATM    2  C   UNL     1       6.405  27.151  53.167  1.00  0.00     0.265 C 
HETATM    3  O   UNL     1       7.591  26.815  53.194  1.00  0.00    -0.267 OA
ENDROOT
BRANCH   1   4
HETATM    4  C   UNL     1       6.483  27.124  55.633  1.00  0.00     0.213 C 
BRANCH   4   5
HETATM    5  C   UNL     1       7.115  25.751  55.845  1.00  0.00    -0.026 A 
HETATM    6  C   UNL     1       8.225  25.603  56.696  1.00  0.00     0.012 A 
HETATM    7  C   UNL     1       8.770  24.342  56.967  1.00  0.00     0.037 A 
HETATM    8  C   UNL     1       8.208  23.199  56.406  1.00  0.00     0.068 A 
HETATM    9  C   UNL     1       7.094  23.329  55.577  1.00  0.00     0.037 A 
HETATM   10  C   UNL     1       6.547  24.585  55.303  1.00  0.00     0.012 A 
BRANCH   8  11
HETATM   11  O   UNL     1       8.633  21.914  56.592  1.00  0.00    -0.356 OA
HETATM   12  C   UNL     1       7.852  20.885  55.995  1.00  0.00     0.210 C 
ENDBRANCH   8  11
ENDBRANCH   4   5
BRANCH   4  13
HETATM   13  C   UNL     1       7.365  28.354  55.952  1.00  0.00     0.245 C 
HETATM   14  N   UNL     1       7.186  28.934  57.182  1.00  0.00    -0.354 N 
HETATM   15  H   UNL     1       6.396  28.611  57.744  1.00  0.00     0.162 HD
HETATM   16  O   UNL     1       8.204  28.735  55.133  1.00  0.00    -0.271 OA
BRANCH  14  17
HETATM   17  C   UNL     1       7.866  30.147  57.581  1.00  0.00     0.084 C 
HETATM   18  C   UNL     1       7.100  30.901  58.665  1.00  0.00     0.025 C 
HETATM   19  C   UNL     1       8.178  31.755  59.309  1.00  0.00     0.002 C 
HETATM   20  C   UNL     1       9.374  30.817  59.389  1.00  0.00     0.002 C 
HETATM   21  C   UNL     1       9.246  29.878  58.189  1.00  0.00     0.025 C 
ENDBRANCH  14  17
ENDBRANCH   4  13
ENDBRANCH   1   4
BRANCH   1  22
HETATM   22  C   UNL     1       4.465  28.121  54.504  1.00  0.00     0.155 C 
BRANCH  22  23
HETATM   23  C   UNL     1       4.677  29.637  54.271  1.00  0.00     0.255 C 
BRANCH  23  24
HETATM   24  N   UNL     1       4.542  30.469  55.532  1.00  0.00    -0.066 N 
HETATM   25  H   UNL     1       5.454  30.483  56.005  1.00  0.00     0.280 HD
HETATM   26  C   UNL     1       4.101  31.913  55.268  1.00  0.00     0.261 C 
HETATM   27  C   UNL     1       4.025  32.672  56.598  1.00  0.00     0.195 C 
HETATM   28  O   UNL     1       3.115  32.030  57.497  1.00  0.00    -0.388 OA
HETATM   29  C   UNL     1       3.524  30.694  57.807  1.00  0.00     0.195 C 
HETATM   30  C   UNL     1       3.579  29.831  56.540  1.00  0.00     0.261 C 
ENDBRANCH  23  24
ENDBRANCH  22  23
ENDBRANCH   1  22
BRANCH   2  31
HETATM   31  C   UNL     1       5.759  27.429  51.906  1.00  0.00     0.120 A 
HETATM   32  S   UNL     1       5.732  28.983  51.217  1.00  0.00     0.020 SA
HETATM   33  N   UNL     1       4.859  28.584  49.874  1.00  0.00    -0.203 NA
HETATM   34  C   UNL     1       4.440  27.312  49.985  1.00  0.00     0.160 A 
HETATM   35  C   UNL     1       4.933  26.616  51.154  1.00  0.00     0.085 A 
BRANCH  34  36
HETATM   36  C   UNL     1       3.534  26.736  48.975  1.00  0.00     0.271 C 
HETATM   37  N   UNL     1       2.336  27.381  48.825  1.00  0.00    -0.365 N 
HETATM   38  H   UNL     1       2.095  28.156  49.430  1.00  0.00     0.159 HD
HETATM   39  H   UNL     1       1.649  26.995  48.195  1.00  0.00     0.159 HD
HETATM   40  O   UNL     1       3.802  25.739  48.310  1.00  0.00    -0.266 OA
ENDBRANCH  34  36
BRANCH  35  41
HETATM   41  N   UNL     1       4.639  25.331  51.475  1.00  0.00    -0.396 N 
HETATM   42  H   UNL     1       4.790  24.602  50.767  1.00  0.00     0.156 HD
HETATM   43  H   UNL     1       3.832  25.113  52.061  1.00  0.00     0.156 HD
ENDBRANCH  35  41
ENDBRANCH   2  31
TORSDOF 11
ENDMDL
MODEL 6
REMARK VINA RESULT:      -7.4      4.200      6.571
REMARK  11 active torsions:
REMARK  status: ('A' for Active; 'I' for Inactive)
REMARK    1  A    between atoms: O_2  and  C_3 
REMARK    2  A    between atoms: C_6  and  C_7 
REMARK    3  A    between atoms: C_7  and  N_8 
REMARK    4  A    between atoms: C_7  and  C_29 
REMARK       I    between atoms: N_8  and  C_9 
REMARK    5  A    between atoms: N_8  and  C_20 
REMARK    6  A    between atoms: C_9  and  C_10 
REMARK    7  A    between atoms: C_13  and  C_14 
REMARK       I    between atoms: C_14  and  N_15 
REMARK    8  A    between atoms: C_17  and  N_18 
REMARK    9  A    between atoms: C_20  and  C_21 
REMARK   10  A    between atoms: C_21  and  N_22 
REMARK       I    between atoms: C_29  and  N_30 
REMARK   11  A    between atoms: N_30  and  C_31 
ROOT
HETATM    1  N   UNL     1       4.713  31.708  58.835  1.00  0.00    -0.328 N 
HETATM    2  C   UNL     1       3.787  32.122  59.831  1.00  0.00     0.265 C 
HETATM    3  O   UNL     1       2.586  31.890  59.676  1.00  0.00    -0.267 OA
ENDROOT
BRANCH   1   4
HETATM    4  C   UNL     1       4.130  31.098  57.612  1.00  0.00     0.213 C 
BRANCH   4   5
HETATM    5  C   UNL     1       3.429  32.052  56.648  1.00  0.00    -0.026 A 
HETATM    6  C   UNL     1       2.507  31.561  55.708  1.00  0.00     0.012 A 
HETATM    7  C   UNL     1       1.793  32.425  54.869  1.00  0.00     0.037 A 
HETATM    8  C   UNL     1       1.974  33.802  54.963  1.00  0.00     0.068 A 
HETATM    9  C   UNL     1       2.870  34.305  55.906  1.00  0.00     0.037 A 
HETATM   10  C   UNL     1       3.585  33.445  56.744  1.00  0.00     0.012 A 
BRANCH   8  11
HETATM   11  O   UNL     1       1.341  34.753  54.215  1.00  0.00    -0.356 OA
HETATM   12  C   UNL     1       0.917  34.372  52.912  1.00  0.00     0.210 C 
ENDBRANCH   8  11
ENDBRANCH   4   5
BRANCH   4  13
HETATM   13  C   UNL     1       5.058  30.031  56.985  1.00  0.00     0.245 C 
HETATM   14  N   UNL     1       4.739  28.720  57.233  1.00  0.00    -0.354 N 
HETATM   15  H   UNL     1       4.004  28.536  57.920  1.00  0.00     0.162 HD
HETATM   16  O   UNL     1       5.999  30.381  56.270  1.00  0.00    -0.271 OA
BRANCH  14  17
HETATM   17  C   UNL     1       5.567  27.618  56.798  1.00  0.00     0.084 C 
HETATM   18  C   UNL     1       5.005  26.270  57.243  1.00  0.00     0.025 C 
HETATM   19  C   UNL     1       5.642  25.298  56.265  1.00  0.00     0.002 C 
HETATM   20  C   UNL     1       5.565  26.031  54.933  1.00  0.00     0.002 C 
HETATM   21  C   UNL     1       5.666  27.519  55.271  1.00  0.00     0.025 C 
ENDBRANCH  14  17
ENDBRANCH   4  13
ENDBRANCH   1   4
BRANCH   1  22
HETATM   22  C   UNL     1       6.053  32.320  58.685  1.00  0.00     0.155 C 
BRANCH  22  23
HETATM   23  C   UNL     1       7.200  31.541  59.375  1.00  0.00     0.255 C 
BRANCH  23  24
HETATM   24  N   UNL     1       8.245  31.018  58.408  1.00  0.00    -0.066 N 
HETATM   25  H   UNL     1       7.964  31.286  57.457  1.00  0.00     0.280 HD
HETATM   26  C   UNL     1       9.653  31.561  58.677  1.00  0.00     0.261 C 
HETATM   27  C   UNL     1      10.623  30.997  57.631  1.00  0.00     0.195 C 
HETATM   28  O   UNL     1      10.626  29.566  57.662  1.00  0.00    -0.388 OA
HETATM   29  C   UNL     1       9.336  29.022  57.365  1.00  0.00     0.195 C 
HETATM   30  C   UNL     1       8.297  29.486  58.393  1.00  0.00     0.261 C 
ENDBRANCH  23  24
ENDBRANCH  22  23
ENDBRANCH   1  22
BRANCH   2  31
HETATM   31  C   UNL     1       4.241  32.841  60.997  1.00  0.00     0.120 A 
HETATM   32  S   UNL     1       4.636  34.495  60.952  1.00  0.00     0.020 SA
HETATM   33  N   UNL     1       5.069  34.634  62.539  1.00  0.00    -0.203 NA
HETATM   34  C   UNL     1       5.071  33.413  63.102  1.00  0.00     0.160 A 
HETATM   35  C   UNL     1       4.608  32.350  62.235  1.00  0.00     0.085 A 
BRANCH  34  36
HETATM   36  C   UNL     1       5.540  33.233  64.487  1.00  0.00     0.271 C 
HETATM   37  N   UNL     1       6.898  33.149  64.641  1.00  0.00    -0.365 N 
HETATM   38  H   UNL     1       7.504  33.146  63.830  1.00  0.00     0.159 HD
HETATM   39  H   UNL     1       7.274  32.960  65.558  1.00  0.00     0.159 HD
HETATM   40  O   UNL     1       4.788  33.146  65.454  1.00  0.00    -0.266 OA
ENDBRANCH  34  36
BRANCH  35  41
HETATM   41  N   UNL     1       4.529  31.042  62.583  1.00  0.00    -0.396 N 
HETATM   42  H   UNL     1       3.665  30.704  63.027  1.00  0.00     0.156 HD
HETATM   43  H   UNL     1       5.346  30.550  62.948  1.00  0.00     0.156 HD
ENDBRANCH  35  41
ENDBRANCH   2  31
TORSDOF 11
ENDMDL
MODEL 7
REMARK VINA RESULT:      -7.3      3.913      6.108
REMARK  11 active torsions:
REMARK  status: ('A' for Active; 'I' for Inactive)
REMARK    1  A    between atoms: O_2  and  C_3 
REMARK    2  A    between atoms: C_6  and  C_7 
REMARK    3  A    between atoms: C_7  and  N_8 
REMARK    4  A    between atoms: C_7  and  C_29 
REMARK       I    between atoms: N_8  and  C_9 
REMARK    5  A    between atoms: N_8  and  C_20 
REMARK    6  A    between atoms: C_9  and  C_10 
REMARK    7  A    between atoms: C_13  and  C_14 
REMARK       I    between atoms: C_14  and  N_15 
REMARK    8  A    between atoms: C_17  and  N_18 
REMARK    9  A    between atoms: C_20  and  C_21 
REMARK   10  A    between atoms: C_21  and  N_22 
REMARK       I    between atoms: C_29  and  N_30 
REMARK   11  A    between atoms: N_30  and  C_31 
ROOT
HETATM    1  N   UNL     1       4.601  31.325  58.716  1.00  0.00    -0.328 N 
HETATM    2  C   UNL     1       3.561  31.446  59.676  1.00  0.00     0.265 C 
HETATM    3  O   UNL     1       2.579  30.705  59.605  1.00  0.00    -0.267 OA
ENDROOT
BRANCH   1   4
HETATM    4  C   UNL     1       4.369  30.350  57.618  1.00  0.00     0.213 C 
BRANCH   4   5
HETATM    5  C   UNL     1       3.904  30.931  56.285  1.00  0.00    -0.026 A 
HETATM    6  C   UNL     1       4.625  30.671  55.107  1.00  0.00     0.012 A 
HETATM    7  C   UNL     1       4.173  31.126  53.862  1.00  0.00     0.037 A 
HETATM    8  C   UNL     1       2.982  31.839  53.766  1.00  0.00     0.068 A 
HETATM    9  C   UNL     1       2.245  32.087  54.924  1.00  0.00     0.037 A 
HETATM   10  C   UNL     1       2.693  31.635  56.168  1.00  0.00     0.012 A 
BRANCH   8  11
HETATM   11  O   UNL     1       2.425  32.333  52.621  1.00  0.00    -0.356 OA
HETATM   12  C   UNL     1       3.071  32.003  51.397  1.00  0.00     0.210 C 
ENDBRANCH   8  11
ENDBRANCH   4   5
BRANCH   4  13
HETATM   13  C   UNL     1       5.459  29.255  57.559  1.00  0.00     0.245 C 
HETATM   14  N   UNL     1       5.077  28.037  57.058  1.00  0.00    -0.354 N 
HETATM   15  H   UNL     1       4.079  27.889  56.890  1.00  0.00     0.162 HD
HETATM   16  O   UNL     1       6.610  29.517  57.913  1.00  0.00    -0.271 OA
BRANCH  14  17
HETATM   17  C   UNL     1       5.958  26.890  57.034  1.00  0.00     0.084 C 
HETATM   18  C   UNL     1       5.184  25.577  56.950  1.00  0.00     0.025 C 
HETATM   19  C   UNL     1       6.213  24.613  56.385  1.00  0.00     0.002 C 
HETATM   20  C   UNL     1       6.921  25.434  55.317  1.00  0.00     0.002 C 
HETATM   21  C   UNL     1       6.883  26.881  55.812  1.00  0.00     0.025 C 
ENDBRANCH  14  17
ENDBRANCH   4  13
ENDBRANCH   1   4
BRANCH   1  22
HETATM   22  C   UNL     1       5.556  32.420  58.424  1.00  0.00     0.155 C 
BRANCH  22  23
HETATM   23  C   UNL     1       7.033  32.096  58.761  1.00  0.00     0.255 C 
BRANCH  23  24
HETATM   24  N   UNL     1       7.266  31.784  60.226  1.00  0.00    -0.066 N 
HETATM   25  H   UNL     1       6.418  31.337  60.597  1.00  0.00     0.280 HD
HETATM   26  C   UNL     1       8.459  30.853  60.471  1.00  0.00     0.261 C 
HETATM   27  C   UNL     1       8.589  30.577  61.974  1.00  0.00     0.195 C 
HETATM   28  O   UNL     1       8.753  31.798  62.700  1.00  0.00    -0.388 OA
HETATM   29  C   UNL     1       7.631  32.673  62.537  1.00  0.00     0.195 C 
HETATM   30  C   UNL     1       7.447  33.055  61.063  1.00  0.00     0.261 C 
ENDBRANCH  23  24
ENDBRANCH  22  23
ENDBRANCH   1  22
BRANCH   2  31
HETATM   31  C   UNL     1       3.633  32.455  60.706  1.00  0.00     0.120 A 
HETATM   32  S   UNL     1       3.388  34.107  60.384  1.00  0.00     0.020 SA
HETATM   33  N   UNL     1       3.626  34.643  61.927  1.00  0.00    -0.203 NA
HETATM   34  C   UNL     1       4.043  33.616  62.689  1.00  0.00     0.160 A 
HETATM   35  C   UNL     1       4.069  32.337  62.012  1.00  0.00     0.085 A 
BRANCH  34  36
HETATM   36  C   UNL     1       4.447  33.844  64.087  1.00  0.00     0.271 C 
HETATM   37  N   UNL     1       4.722  35.144  64.415  1.00  0.00    -0.365 N 
HETATM   38  H   UNL     1       4.703  35.864  63.704  1.00  0.00     0.159 HD
HETATM   39  H   UNL     1       5.066  35.351  65.341  1.00  0.00     0.159 HD
HETATM   40  O   UNL     1       4.554  32.946  64.919  1.00  0.00    -0.266 OA
ENDBRANCH  34  36
BRANCH  35  41
HETATM   41  N   UNL     1       4.458  31.167  62.577  1.00  0.00    -0.396 N 
HETATM   42  H   UNL     1       4.024  30.295  62.247  1.00  0.00     0.156 HD
HETATM   43  H   UNL     1       4.672  31.116  63.574  1.00  0.00     0.156 HD
ENDBRANCH  35  41
ENDBRANCH   2  31
TORSDOF 11
ENDMDL
MODEL 8
REMARK VINA RESULT:      -7.2      2.075      3.638
REMARK  11 active torsions:
REMARK  status: ('A' for Active; 'I' for Inactive)
REMARK    1  A    between atoms: O_2  and  C_3 
REMARK    2  A    between atoms: C_6  and  C_7 
REMARK    3  A    between atoms: C_7  and  N_8 
REMARK    4  A    between atoms: C_7  and  C_29 
REMARK       I    between atoms: N_8  and  C_9 
REMARK    5  A    between atoms: N_8  and  C_20 
REMARK    6  A    between atoms: C_9  and  C_10 
REMARK    7  A    between atoms: C_13  and  C_14 
REMARK       I    between atoms: C_14  and  N_15 
REMARK    8  A    between atoms: C_17  and  N_18 
REMARK    9  A    between atoms: C_20  and  C_21 
REMARK   10  A    between atoms: C_21  and  N_22 
REMARK       I    between atoms: C_29  and  N_30 
REMARK   11  A    between atoms: N_30  and  C_31 
ROOT
HETATM    1  N   UNL     1       5.823  27.479  53.314  1.00  0.00    -0.328 N 
HETATM    2  C   UNL     1       6.072  27.346  54.707  1.00  0.00     0.265 C 
HETATM    3  O   UNL     1       6.293  26.229  55.180  1.00  0.00    -0.267 OA
ENDROOT
BRANCH   1   4
HETATM    4  C   UNL     1       5.754  26.215  52.537  1.00  0.00     0.213 C 
BRANCH   4   5
HETATM    5  C   UNL     1       5.293  26.336  51.087  1.00  0.00    -0.026 A 
HETATM    6  C   UNL     1       4.442  25.366  50.529  1.00  0.00     0.012 A 
HETATM    7  C   UNL     1       3.943  25.499  49.227  1.00  0.00     0.037 A 
HETATM    8  C   UNL     1       4.270  26.614  48.460  1.00  0.00     0.068 A 
HETATM    9  C   UNL     1       5.096  27.594  49.009  1.00  0.00     0.037 A 
HETATM   10  C   UNL     1       5.597  27.464  50.307  1.00  0.00     0.012 A 
BRANCH   8  11
HETATM   11  O   UNL     1       3.849  26.871  47.187  1.00  0.00    -0.356 OA
HETATM   12  C   UNL     1       2.463  26.692  46.918  1.00  0.00     0.210 C 
ENDBRANCH   8  11
ENDBRANCH   4   5
BRANCH   4  13
HETATM   13  C   UNL     1       6.962  25.288  52.809  1.00  0.00     0.245 C 
HETATM   14  N   UNL     1       6.682  24.062  53.358  1.00  0.00    -0.354 N 
HETATM   15  H   UNL     1       5.725  23.898  53.679  1.00  0.00     0.162 HD
HETATM   16  O   UNL     1       8.096  25.651  52.493  1.00  0.00    -0.271 OA
BRANCH  14  17
HETATM   17  C   UNL     1       7.713  23.131  53.759  1.00  0.00     0.084 C 
HETATM   18  C   UNL     1       7.441  22.536  55.138  1.00  0.00     0.025 C 
HETATM   19  C   UNL     1       8.253  21.253  55.120  1.00  0.00     0.002 C 
HETATM   20  C   UNL     1       8.016  20.702  53.721  1.00  0.00     0.002 C 
HETATM   21  C   UNL     1       7.815  21.923  52.822  1.00  0.00     0.025 C 
ENDBRANCH  14  17
ENDBRANCH   4  13
ENDBRANCH   1   4
BRANCH   1  22
HETATM   22  C   UNL     1       5.109  28.640  52.735  1.00  0.00     0.155 C 
BRANCH  22  23
HETATM   23  C   UNL     1       3.579  28.645  52.976  1.00  0.00     0.255 C 
BRANCH  23  24
HETATM   24  N   UNL     1       2.939  30.006  52.782  1.00  0.00    -0.066 N 
HETATM   25  H   UNL     1       1.921  29.897  52.874  1.00  0.00     0.280 HD
HETATM   26  C   UNL     1       3.415  31.055  53.794  1.00  0.00     0.261 C 
HETATM   27  C   UNL     1       2.689  32.380  53.531  1.00  0.00     0.195 C 
HETATM   28  O   UNL     1       2.927  32.832  52.194  1.00  0.00    -0.388 OA
HETATM   29  C   UNL     1       2.448  31.899  51.221  1.00  0.00     0.195 C 
HETATM   30  C   UNL     1       3.157  30.546  51.365  1.00  0.00     0.261 C 
ENDBRANCH  23  24
ENDBRANCH  22  23
ENDBRANCH   1  22
BRANCH   2  31
HETATM   31  C   UNL     1       6.029  28.503  55.569  1.00  0.00     0.120 A 
HETATM   32  S   UNL     1       7.423  29.383  55.985  1.00  0.00     0.020 SA
HETATM   33  N   UNL     1       6.672  30.489  56.954  1.00  0.00    -0.203 NA
HETATM   34  C   UNL     1       5.385  30.134  57.109  1.00  0.00     0.160 A 
HETATM   35  C   UNL     1       4.981  28.983  56.330  1.00  0.00     0.085 A 
BRANCH  34  36
HETATM   36  C   UNL     1       4.512  30.884  58.029  1.00  0.00     0.271 C 
HETATM   37  N   UNL     1       3.556  30.141  58.667  1.00  0.00    -0.365 N 
HETATM   38  H   UNL     1       3.440  29.160  58.447  1.00  0.00     0.159 HD
HETATM   39  H   UNL     1       2.887  30.612  59.260  1.00  0.00     0.159 HD
HETATM   40  O   UNL     1       4.604  32.094  58.219  1.00  0.00    -0.266 OA
ENDBRANCH  34  36
BRANCH  35  41
HETATM   41  N   UNL     1       3.736  28.443  56.330  1.00  0.00    -0.396 N 
HETATM   42  H   UNL     1       3.518  27.715  55.638  1.00  0.00     0.156 HD
HETATM   43  H   UNL     1       2.918  29.021  56.527  1.00  0.00     0.156 HD
ENDBRANCH  35  41
ENDBRANCH   2  31
TORSDOF 11
ENDMDL
MODEL 9
REMARK VINA RESULT:      -7.1      2.318      3.751
REMARK  11 active torsions:
REMARK  status: ('A' for Active; 'I' for Inactive)
REMARK    1  A    between atoms: O_2  and  C_3 
REMARK    2  A    between atoms: C_6  and  C_7 
REMARK    3  A    between atoms: C_7  and  N_8 
REMARK    4  A    between atoms: C_7  and  C_29 
REMARK       I    between atoms: N_8  and  C_9 
REMARK    5  A    between atoms: N_8  and  C_20 
REMARK    6  A    between atoms: C_9  and  C_10 
REMARK    7  A    between atoms: C_13  and  C_14 
REMARK       I    between atoms: C_14  and  N_15 
REMARK    8  A    between atoms: C_17  and  N_18 
REMARK    9  A    between atoms: C_20  and  C_21 
REMARK   10  A    between atoms: C_21  and  N_22 
REMARK       I    between atoms: C_29  and  N_30 
REMARK   11  A    between atoms: N_30  and  C_31 
ROOT
HETATM    1  N   UNL     1       6.971  27.746  54.674  1.00  0.00    -0.328 N 
HETATM    2  C   UNL     1       7.438  27.463  55.986  1.00  0.00     0.265 C 
HETATM    3  O   UNL     1       7.365  26.311  56.421  1.00  0.00    -0.267 OA
ENDROOT
BRANCH   1   4
HETATM    4  C   UNL     1       6.328  26.618  53.950  1.00  0.00     0.213 C 
BRANCH   4   5
HETATM    5  C   UNL     1       5.392  26.996  52.805  1.00  0.00    -0.026 A 
HETATM    6  C   UNL     1       4.153  27.603  53.071  1.00  0.00     0.012 A 
HETATM    7  C   UNL     1       3.314  28.029  52.033  1.00  0.00     0.037 A 
HETATM    8  C   UNL     1       3.705  27.873  50.706  1.00  0.00     0.068 A 
HETATM    9  C   UNL     1       4.941  27.292  50.428  1.00  0.00     0.037 A 
HETATM   10  C   UNL     1       5.780  26.864  51.460  1.00  0.00     0.012 A 
BRANCH   8  11
HETATM   11  O   UNL     1       2.991  28.250  49.604  1.00  0.00    -0.356 OA
HETATM   12  C   UNL     1       2.932  27.322  48.527  1.00  0.00     0.210 C 
ENDBRANCH   8  11
ENDBRANCH   4   5
BRANCH   4  13
HETATM   13  C   UNL     1       7.305  25.447  53.695  1.00  0.00     0.245 C 
HETATM   14  N   UNL     1       7.015  24.261  54.320  1.00  0.00    -0.354 N 
HETATM   15  H   UNL     1       6.265  24.266  55.015  1.00  0.00     0.162 HD
HETATM   16  O   UNL     1       8.257  25.599  52.928  1.00  0.00    -0.271 OA
BRANCH  14  17
HETATM   17  C   UNL     1       7.888  23.110  54.256  1.00  0.00     0.084 C 
HETATM   18  C   UNL     1       7.560  22.083  55.338  1.00  0.00     0.025 C 
HETATM   19  C   UNL     1       8.146  20.800  54.775  1.00  0.00     0.002 C 
HETATM   20  C   UNL     1       7.781  20.859  53.299  1.00  0.00     0.002 C 
HETATM   21  C   UNL     1       7.760  22.344  52.935  1.00  0.00     0.025 C 
ENDBRANCH  14  17
ENDBRANCH   4  13
ENDBRANCH   1   4
BRANCH   1  22
HETATM   22  C   UNL     1       6.583  29.107  54.238  1.00  0.00     0.155 C 
BRANCH  22  23
HETATM   23  C   UNL     1       5.303  29.661  54.911  1.00  0.00     0.255 C 
BRANCH  23  24
HETATM   24  N   UNL     1       5.081  31.141  54.664  1.00  0.00    -0.066 N 
HETATM   25  H   UNL     1       5.931  31.525  54.232  1.00  0.00     0.280 HD
HETATM   26  C   UNL     1       3.887  31.437  53.750  1.00  0.00     0.261 C 
HETATM   27  C   UNL     1       3.769  32.952  53.541  1.00  0.00     0.195 C 
HETATM   28  O   UNL     1       3.616  33.625  54.795  1.00  0.00    -0.388 OA
HETATM   29  C   UNL     1       4.739  33.413  55.657  1.00  0.00     0.195 C 
HETATM   30  C   UNL     1       4.911  31.922  55.972  1.00  0.00     0.261 C 
ENDBRANCH  23  24
ENDBRANCH  22  23
ENDBRANCH   1  22
BRANCH   2  31
HETATM   31  C   UNL     1       7.959  28.520  56.819  1.00  0.00     0.120 A 
HETATM   32  S   UNL     1       9.619  28.881  56.904  1.00  0.00     0.020 SA
HETATM   33  N   UNL     1       9.494  30.112  57.998  1.00  0.00    -0.203 NA
HETATM   34  C   UNL     1       8.225  30.180  58.438  1.00  0.00     0.160 A 
HETATM   35  C   UNL     1       7.312  29.266  57.785  1.00  0.00     0.085 A 
BRANCH  34  36
HETATM   36  C   UNL     1       7.862  31.116  59.516  1.00  0.00     0.271 C 
HETATM   37  N   UNL     1       7.858  30.585  60.778  1.00  0.00    -0.365 N 
HETATM   38  H   UNL     1       8.031  29.597  60.916  1.00  0.00     0.159 HD
HETATM   39  H   UNL     1       7.554  31.161  61.549  1.00  0.00     0.159 HD
HETATM   40  O   UNL     1       7.564  32.292  59.324  1.00  0.00    -0.266 OA
ENDBRANCH  34  36
BRANCH  35  41
HETATM   41  N   UNL     1       5.990  29.155  58.068  1.00  0.00    -0.396 N 
HETATM   42  H   UNL     1       5.310  29.387  57.332  1.00  0.00     0.156 HD
HETATM   43  H   UNL     1       5.632  29.404  58.991  1.00  0.00     0.156 HD
ENDBRANCH  35  41
ENDBRANCH   2  31
TORSDOF 11
ENDMDL
MODEL 10
REMARK VINA RESULT:      -7.1      2.563      6.106
REMARK  11 active torsions:
REMARK  status: ('A' for Active; 'I' for Inactive)
REMARK    1  A    between atoms: O_2  and  C_3 
REMARK    2  A    between atoms: C_6  and  C_7 
REMARK    3  A    between atoms: C_7  and  N_8 
REMARK    4  A    between atoms: C_7  and  C_29 
REMARK       I    between atoms: N_8  and  C_9 
REMARK    5  A    between atoms: N_8  and  C_20 
REMARK    6  A    between atoms: C_9  and  C_10 
REMARK    7  A    between atoms: C_13  and  C_14 
REMARK       I    between atoms: C_14  and  N_15 
REMARK    8  A    between atoms: C_17  and  N_18 
REMARK    9  A    between atoms: C_20  and  C_21 
REMARK   10  A    between atoms: C_21  and  N_22 
REMARK       I    between atoms: C_29  and  N_30 
REMARK   11  A    between atoms: N_30  and  C_31 
ROOT
HETATM    1  N   UNL     1       5.255  29.433  54.019  1.00  0.00    -0.328 N 
HETATM    2  C   UNL     1       5.847  29.824  55.250  1.00  0.00     0.265 C 
HETATM    3  O   UNL     1       6.996  29.461  55.513  1.00  0.00    -0.267 OA
ENDROOT
BRANCH   1   4
HETATM    4  C   UNL     1       6.057  28.516  53.168  1.00  0.00     0.213 C 
BRANCH   4   5
HETATM    5  C   UNL     1       6.317  27.122  53.734  1.00  0.00    -0.026 A 
HETATM    6  C   UNL     1       5.330  26.466  54.489  1.00  0.00     0.012 A 
HETATM    7  C   UNL     1       5.516  25.157  54.949  1.00  0.00     0.037 A 
HETATM    8  C   UNL     1       6.689  24.468  54.651  1.00  0.00     0.068 A 
HETATM    9  C   UNL     1       7.668  25.099  53.885  1.00  0.00     0.037 A 
HETATM   10  C   UNL     1       7.486  26.406  53.424  1.00  0.00     0.012 A 
BRANCH   8  11
HETATM   11  O   UNL     1       6.995  23.192  55.029  1.00  0.00    -0.356 OA
HETATM   12  C   UNL     1       7.840  23.042  56.164  1.00  0.00     0.210 C 
ENDBRANCH   8  11
ENDBRANCH   4   5
BRANCH   4  13
HETATM   13  C   UNL     1       5.664  28.600  51.675  1.00  0.00     0.245 C 
HETATM   14  N   UNL     1       4.953  27.541  51.168  1.00  0.00    -0.354 N 
HETATM   15  H   UNL     1       4.852  26.715  51.762  1.00  0.00     0.162 HD
HETATM   16  O   UNL     1       5.955  29.602  51.020  1.00  0.00    -0.271 OA
BRANCH  14  17
HETATM   17  C   UNL     1       4.602  27.433  49.770  1.00  0.00     0.084 C 
HETATM   18  C   UNL     1       4.400  25.981  49.342  1.00  0.00     0.025 C 
HETATM   19  C   UNL     1       3.534  26.111  48.102  1.00  0.00     0.002 C 
HETATM   20  C   UNL     1       2.536  27.198  48.476  1.00  0.00     0.002 C 
HETATM   21  C   UNL     1       3.278  28.129  49.436  1.00  0.00     0.025 C 
ENDBRANCH  14  17
ENDBRANCH   4  13
ENDBRANCH   1   4
BRANCH   1  22
HETATM   22  C   UNL     1       3.789  29.403  53.809  1.00  0.00     0.155 C 
BRANCH  22  23
HETATM   23  C   UNL     1       3.174  30.751  53.356  1.00  0.00     0.255 C 
BRANCH  23  24
HETATM   24  N   UNL     1       3.767  31.286  52.067  1.00  0.00    -0.066 N 
HETATM   25  H   UNL     1       4.526  30.656  51.779  1.00  0.00     0.280 HD
HETATM   26  C   UNL     1       2.752  31.389  50.923  1.00  0.00     0.261 C 
HETATM   27  C   UNL     1       3.456  31.909  49.664  1.00  0.00     0.195 C 
HETATM   28  O   UNL     1       4.061  33.182  49.911  1.00  0.00    -0.388 OA
HETATM   29  C   UNL     1       5.053  33.113  50.940  1.00  0.00     0.195 C 
HETATM   30  C   UNL     1       4.434  32.651  52.266  1.00  0.00     0.261 C 
ENDBRANCH  23  24
ENDBRANCH  22  23
ENDBRANCH   1  22
BRANCH   2  31
HETATM   31  C   UNL     1       5.099  30.606  56.204  1.00  0.00     0.120 A 
HETATM   32  S   UNL     1       4.875  32.283  56.034  1.00  0.00     0.020 SA
HETATM   33  N   UNL     1       3.995  32.503  57.413  1.00  0.00    -0.203 NA
HETATM   34  C   UNL     1       3.978  31.353  58.110  1.00  0.00     0.160 A 
HETATM   35  C   UNL     1       4.616  30.237  57.445  1.00  0.00     0.085 A 
BRANCH  34  36
HETATM   36  C   UNL     1       3.362  31.303  59.448  1.00  0.00     0.271 C 
HETATM   37  N   UNL     1       3.774  32.273  60.320  1.00  0.00    -0.365 N 
HETATM   38  H   UNL     1       4.503  32.923  60.054  1.00  0.00     0.159 HD
HETATM   39  H   UNL     1       3.435  32.250  61.271  1.00  0.00     0.159 HD
HETATM   40  O   UNL     1       2.544  30.452  59.788  1.00  0.00    -0.266 OA
ENDBRANCH  34  36
BRANCH  35  41
HETATM   41  N   UNL     1       4.724  28.985  57.957  1.00  0.00    -0.396 N 
HETATM   42  H   UNL     1       3.925  28.597  58.474  1.00  0.00     0.156 HD
HETATM   43  H   UNL     1       5.608  28.657  58.347  1.00  0.00     0.156 HD
ENDBRANCH  35  41
ENDBRANCH   2  31
TORSDOF 11
ENDMDL
