MODEL 1
REMARK VINA RESULT:     -11.9      0.000      0.000
REMARK  5 active torsions:
REMARK  status: ('A' for Active; 'I' for Inactive)
REMARK    1  A    between atoms: C_4  and  N_5 
REMARK    2  A    between atoms: C_7  and  C_8 
REMARK       I    between atoms: C_8  and  N_9 
REMARK    3  A    between atoms: N_9  and  N_10 
REMARK       I    between atoms: N_10  and  C_11 
REMARK    4  A    between atoms: C_11  and  C_12 
REMARK    5  A    between atoms: C_16  and  C_17 
ROOT
HETATM    1  C   UNL     1       7.433  27.361  57.215  1.00  0.00     0.286 C 
HETATM    2  N   UNL     1       7.175  28.711  57.157  1.00  0.00    -0.262 N 
HETATM    3  O   UNL     1       7.657  26.743  58.247  1.00  0.00    -0.264 OA
HETATM    4  H   UNL     1       7.015  29.207  56.280  1.00  0.00     0.190 HD
ENDROOT
BRANCH   2   5
HETATM    5  N   UNL     1       7.190  29.430  58.353  1.00  0.00    -0.262 N 
HETATM    6  C   UNL     1       8.345  30.047  58.782  1.00  0.00     0.288 C 
HETATM    7  O   UNL     1       9.380  30.039  58.119  1.00  0.00    -0.264 OA
HETATM    8  H   UNL     1       6.340  29.397  58.910  1.00  0.00     0.190 HD
BRANCH   6   9
HETATM    9  C   UNL     1       8.239  30.700  60.059  1.00  0.00     0.121 A 
HETATM   10  N   UNL     1       8.976  30.311  61.142  1.00  0.00    -0.272 N 
HETATM   11  H   UNL     1       9.648  29.551  61.183  1.00  0.00     0.189 HD
HETATM   12  N   UNL     1       8.765  31.048  62.244  1.00  0.00    -0.174 NA
HETATM   13  C   UNL     1       7.833  31.943  61.884  1.00  0.00     0.089 A 
HETATM   14  C   UNL     1       7.480  31.759  60.518  1.00  0.00     0.071 A 
BRANCH  13  15
HETATM   15  C   UNL     1       7.311  32.947  62.818  1.00  0.00    -0.006 A 
HETATM   16  C   UNL     1       6.428  33.942  62.374  1.00  0.00     0.014 A 
HETATM   17  C   UNL     1       5.910  34.889  63.264  1.00  0.00     0.001 A 
HETATM   18  C   UNL     1       6.275  34.855  64.607  1.00  0.00     0.000 A 
HETATM   19  C   UNL     1       7.159  33.878  65.063  1.00  0.00     0.001 A 
HETATM   20  C   UNL     1       7.673  32.931  64.174  1.00  0.00     0.014 A 
ENDBRANCH  13  15
ENDBRANCH   6   9
ENDBRANCH   2   5
BRANCH   1  21
HETATM   21  C   UNL     1       7.421  26.644  55.874  1.00  0.00     0.125 C 
HETATM   22  N   UNL     1       7.737  25.385  55.826  1.00  0.00    -0.164 NA
HETATM   23  N   UNL     1       7.699  24.731  54.596  1.00  0.00    -0.201 N 
HETATM   24  C   UNL     1       7.570  25.424  53.376  1.00  0.00     0.245 C 
HETATM   25  C   UNL     1       7.736  26.919  53.495  1.00  0.00     0.111 C 
HETATM   26  O   UNL     1       7.391  24.941  52.259  1.00  0.00    -0.271 OA
HETATM   27  C   UNL     1       6.976  27.433  54.686  1.00  0.00     0.076 C 
BRANCH  23  28
HETATM   28  C   UNL     1       7.830  23.299  54.691  1.00  0.00     0.062 A 
HETATM   29  C   UNL     1       8.041  22.480  53.570  1.00  0.00     0.038 A 
HETATM   30  C   UNL     1       8.168  21.083  53.681  1.00  0.00    -0.060 A 
HETATM   31  C   UNL     1       8.424  20.242  52.464  1.00  0.00     0.048 C 
HETATM   32  C   UNL     1       8.104  20.489  54.942  1.00  0.00     0.007 A 
HETATM   33  C   UNL     1       7.903  21.276  56.070  1.00  0.00     0.003 A 
HETATM   34  C   UNL     1       7.770  22.663  55.946  1.00  0.00     0.032 A 
ENDBRANCH  23  28
ENDBRANCH   1  21
TORSDOF 5
ENDMDL
MODEL 2
REMARK VINA RESULT:     -11.1      1.640      1.735
REMARK  5 active torsions:
REMARK  status: ('A' for Active; 'I' for Inactive)
REMARK    1  A    between atoms: C_4  and  N_5 
REMARK    2  A    between atoms: C_7  and  C_8 
REMARK       I    between atoms: C_8  and  N_9 
REMARK    3  A    between atoms: N_9  and  N_10 
REMARK       I    between atoms: N_10  and  C_11 
REMARK    4  A    between atoms: C_11  and  C_12 
REMARK    5  A    between atoms: C_16  and  C_17 
ROOT
HETATM    1  C   UNL     1       5.912  28.651  55.867  1.00  0.00     0.286 C 
HETATM    2  N   UNL     1       6.582  28.349  57.030  1.00  0.00    -0.262 N 
HETATM    3  O   UNL     1       5.495  29.765  55.578  1.00  0.00    -0.264 OA
HETATM    4  H   UNL     1       6.898  27.406  57.258  1.00  0.00     0.190 HD
ENDROOT
BRANCH   2   5
HETATM    5  N   UNL     1       6.783  29.376  57.953  1.00  0.00    -0.262 N 
HETATM    6  C   UNL     1       8.049  29.867  58.186  1.00  0.00     0.288 C 
HETATM    7  O   UNL     1       9.033  29.470  57.565  1.00  0.00    -0.264 OA
HETATM    8  H   UNL     1       5.969  29.669  58.487  1.00  0.00     0.190 HD
BRANCH   6   9
HETATM    9  C   UNL     1       8.124  30.879  59.206  1.00  0.00     0.121 A 
HETATM   10  N   UNL     1       9.113  31.821  59.229  1.00  0.00    -0.272 N 
HETATM   11  H   UNL     1       9.882  31.917  58.572  1.00  0.00     0.189 HD
HETATM   12  N   UNL     1       9.012  32.700  60.239  1.00  0.00    -0.174 NA
HETATM   13  C   UNL     1       7.927  32.309  60.925  1.00  0.00     0.089 A 
HETATM   14  C   UNL     1       7.340  31.171  60.305  1.00  0.00     0.071 A 
BRANCH  13  15
HETATM   15  C   UNL     1       7.467  33.013  62.126  1.00  0.00    -0.006 A 
HETATM   16  C   UNL     1       6.486  34.012  62.034  1.00  0.00     0.014 A 
HETATM   17  C   UNL     1       6.028  34.672  63.179  1.00  0.00     0.001 A 
HETATM   18  C   UNL     1       6.548  34.345  64.428  1.00  0.00     0.000 A 
HETATM   19  C   UNL     1       7.530  33.362  64.536  1.00  0.00     0.001 A 
HETATM   20  C   UNL     1       7.986  32.700  63.393  1.00  0.00     0.014 A 
ENDBRANCH  13  15
ENDBRANCH   6   9
ENDBRANCH   2   5
BRANCH   1  21
HETATM   21  C   UNL     1       5.711  27.481  54.916  1.00  0.00     0.125 C 
HETATM   22  N   UNL     1       6.497  26.452  55.004  1.00  0.00    -0.164 NA
HETATM   23  N   UNL     1       6.288  25.374  54.146  1.00  0.00    -0.201 N 
HETATM   24  C   UNL     1       5.425  25.450  53.035  1.00  0.00     0.245 C 
HETATM   25  C   UNL     1       4.958  26.847  52.711  1.00  0.00     0.111 C 
HETATM   26  O   UNL     1       5.069  24.527  52.302  1.00  0.00    -0.271 OA
HETATM   27  C   UNL     1       4.558  27.566  53.969  1.00  0.00     0.076 C 
BRANCH  23  28
HETATM   28  C   UNL     1       7.052  24.200  54.485  1.00  0.00     0.062 A 
HETATM   29  C   UNL     1       7.299  23.164  53.569  1.00  0.00     0.038 A 
HETATM   30  C   UNL     1       8.048  22.025  53.917  1.00  0.00    -0.060 A 
HETATM   31  C   UNL     1       8.317  20.950  52.903  1.00  0.00     0.048 C 
HETATM   32  C   UNL     1       8.583  21.924  55.202  1.00  0.00     0.007 A 
HETATM   33  C   UNL     1       8.361  22.938  56.127  1.00  0.00     0.003 A 
HETATM   34  C   UNL     1       7.608  24.062  55.771  1.00  0.00     0.032 A 
ENDBRANCH  23  28
ENDBRANCH   1  21
TORSDOF 5
ENDMDL
MODEL 3
REMARK VINA RESULT:     -11.0      2.504     11.267
REMARK  5 active torsions:
REMARK  status: ('A' for Active; 'I' for Inactive)
REMARK    1  A    between atoms: C_4  and  N_5 
REMARK    2  A    between atoms: C_7  and  C_8 
REMARK       I    between atoms: C_8  and  N_9 
REMARK    3  A    between atoms: N_9  and  N_10 
REMARK       I    between atoms: N_10  and  C_11 
REMARK    4  A    between atoms: C_11  and  C_12 
REMARK    5  A    between atoms: C_16  and  C_17 
ROOT
HETATM    1  C   UNL     1       5.412  30.734  57.310  1.00  0.00     0.286 C 
HETATM    2  N   UNL     1       5.791  29.554  57.907  1.00  0.00    -0.262 N 
HETATM    3  O   UNL     1       5.238  30.875  56.106  1.00  0.00    -0.264 OA
HETATM    4  H   UNL     1       5.953  29.469  58.911  1.00  0.00     0.190 HD
ENDROOT
BRANCH   2   5
HETATM    5  N   UNL     1       6.011  28.448  57.086  1.00  0.00    -0.262 N 
HETATM    6  C   UNL     1       7.116  27.646  57.276  1.00  0.00     0.288 C 
HETATM    7  O   UNL     1       7.913  27.832  58.194  1.00  0.00    -0.264 OA
HETATM    8  H   UNL     1       5.368  28.327  56.308  1.00  0.00     0.190 HD
BRANCH   6   9
HETATM    9  C   UNL     1       7.256  26.579  56.322  1.00  0.00     0.121 A 
HETATM   10  N   UNL     1       7.289  26.803  54.975  1.00  0.00    -0.272 N 
HETATM   11  H   UNL     1       7.215  27.700  54.502  1.00  0.00     0.189 HD
HETATM   12  N   UNL     1       7.448  25.694  54.236  1.00  0.00    -0.174 NA
HETATM   13  C   UNL     1       7.498  24.693  55.128  1.00  0.00     0.089 A 
HETATM   14  C   UNL     1       7.385  25.210  56.449  1.00  0.00     0.071 A 
BRANCH  13  15
HETATM   15  C   UNL     1       7.661  23.293  54.723  1.00  0.00    -0.006 A 
HETATM   16  C   UNL     1       7.823  22.957  53.371  1.00  0.00     0.014 A 
HETATM   17  C   UNL     1       8.001  21.626  52.981  1.00  0.00     0.001 A 
HETATM   18  C   UNL     1       8.013  20.614  53.938  1.00  0.00     0.000 A 
HETATM   19  C   UNL     1       7.844  20.930  55.284  1.00  0.00     0.001 A 
HETATM   20  C   UNL     1       7.669  22.260  55.675  1.00  0.00     0.014 A 
ENDBRANCH  13  15
ENDBRANCH   6   9
ENDBRANCH   2   5
BRANCH   1  21
HETATM   21  C   UNL     1       5.209  31.903  58.261  1.00  0.00     0.125 C 
HETATM   22  N   UNL     1       5.736  31.853  59.446  1.00  0.00    -0.164 NA
HETATM   23  N   UNL     1       5.566  32.940  60.302  1.00  0.00    -0.201 N 
HETATM   24  C   UNL     1       4.652  33.977  60.031  1.00  0.00     0.245 C 
HETATM   25  C   UNL     1       3.707  33.685  58.893  1.00  0.00     0.111 C 
HETATM   26  O   UNL     1       4.524  35.037  60.644  1.00  0.00    -0.271 OA
HETATM   27  C   UNL     1       4.456  33.082  57.737  1.00  0.00     0.076 C 
BRANCH  23  28
HETATM   28  C   UNL     1       6.385  32.885  61.486  1.00  0.00     0.062 A 
HETATM   29  C   UNL     1       5.940  33.341  62.738  1.00  0.00     0.038 A 
HETATM   30  C   UNL     1       6.753  33.278  63.885  1.00  0.00    -0.060 A 
HETATM   31  C   UNL     1       6.233  33.747  65.214  1.00  0.00     0.048 C 
HETATM   32  C   UNL     1       8.032  32.730  63.788  1.00  0.00     0.007 A 
HETATM   33  C   UNL     1       8.496  32.264  62.563  1.00  0.00     0.003 A 
HETATM   34  C   UNL     1       7.681  32.339  61.428  1.00  0.00     0.032 A 
ENDBRANCH  23  28
ENDBRANCH   1  21
TORSDOF 5
ENDMDL
MODEL 4
REMARK VINA RESULT:     -10.4      1.363      1.612
REMARK  5 active torsions:
REMARK  status: ('A' for Active; 'I' for Inactive)
REMARK    1  A    between atoms: C_4  and  N_5 
REMARK    2  A    between atoms: C_7  and  C_8 
REMARK       I    between atoms: C_8  and  N_9 
REMARK    3  A    between atoms: N_9  and  N_10 
REMARK       I    between atoms: N_10  and  C_11 
REMARK    4  A    between atoms: C_11  and  C_12 
REMARK    5  A    between atoms: C_16  and  C_17 
ROOT
HETATM    1  C   UNL     1       6.732  27.782  56.691  1.00  0.00     0.286 C 
HETATM    2  N   UNL     1       6.293  29.064  56.457  1.00  0.00    -0.262 N 
HETATM    3  O   UNL     1       6.873  27.292  57.804  1.00  0.00    -0.264 OA
HETATM    4  H   UNL     1       6.207  29.457  55.519  1.00  0.00     0.190 HD
ENDROOT
BRANCH   2   5
HETATM    5  N   UNL     1       6.008  29.869  57.561  1.00  0.00    -0.262 N 
HETATM    6  C   UNL     1       6.991  30.654  58.125  1.00  0.00     0.288 C 
HETATM    7  O   UNL     1       8.126  30.721  57.659  1.00  0.00    -0.264 OA
HETATM    8  H   UNL     1       5.077  29.776  57.960  1.00  0.00     0.190 HD
BRANCH   6   9
HETATM    9  C   UNL     1       6.580  31.385  59.294  1.00  0.00     0.121 A 
HETATM   10  N   UNL     1       5.285  31.776  59.493  1.00  0.00    -0.272 N 
HETATM   11  H   UNL     1       4.496  31.616  58.873  1.00  0.00     0.189 HD
HETATM   12  N   UNL     1       5.079  32.427  60.648  1.00  0.00    -0.174 NA
HETATM   13  C   UNL     1       6.289  32.492  61.225  1.00  0.00     0.089 A 
HETATM   14  C   UNL     1       7.256  31.844  60.406  1.00  0.00     0.071 A 
BRANCH  13  15
HETATM   15  C   UNL     1       6.502  33.141  62.522  1.00  0.00    -0.006 A 
HETATM   16  C   UNL     1       7.393  32.591  63.457  1.00  0.00     0.014 A 
HETATM   17  C   UNL     1       7.616  33.218  64.687  1.00  0.00     0.001 A 
HETATM   18  C   UNL     1       6.948  34.399  64.999  1.00  0.00     0.000 A 
HETATM   19  C   UNL     1       6.054  34.953  64.086  1.00  0.00     0.001 A 
HETATM   20  C   UNL     1       5.832  34.329  62.856  1.00  0.00     0.014 A 
ENDBRANCH  13  15
ENDBRANCH   6   9
ENDBRANCH   2   5
BRANCH   1  21
HETATM   21  C   UNL     1       7.043  26.968  55.445  1.00  0.00     0.125 C 
HETATM   22  N   UNL     1       7.438  25.739  55.574  1.00  0.00    -0.164 NA
HETATM   23  N   UNL     1       7.696  24.994  54.425  1.00  0.00    -0.201 N 
HETATM   24  C   UNL     1       7.781  25.582  53.148  1.00  0.00     0.245 C 
HETATM   25  C   UNL     1       7.827  27.089  53.164  1.00  0.00     0.111 C 
HETATM   26  O   UNL     1       7.868  25.003  52.064  1.00  0.00    -0.271 OA
HETATM   27  C   UNL     1       6.806  27.630  54.126  1.00  0.00     0.076 C 
BRANCH  23  28
HETATM   28  C   UNL     1       7.891  23.587  54.672  1.00  0.00     0.062 A 
HETATM   29  C   UNL     1       8.007  22.644  53.638  1.00  0.00     0.038 A 
HETATM   30  C   UNL     1       8.199  21.274  53.897  1.00  0.00    -0.060 A 
HETATM   31  C   UNL     1       8.348  20.298  52.765  1.00  0.00     0.048 C 
HETATM   32  C   UNL     1       8.298  20.835  55.217  1.00  0.00     0.007 A 
HETATM   33  C   UNL     1       8.195  21.748  56.261  1.00  0.00     0.003 A 
HETATM   34  C   UNL     1       7.997  23.106  55.991  1.00  0.00     0.032 A 
ENDBRANCH  23  28
ENDBRANCH   1  21
TORSDOF 5
ENDMDL
MODEL 5
REMARK VINA RESULT:     -10.0      2.702     11.366
REMARK  5 active torsions:
REMARK  status: ('A' for Active; 'I' for Inactive)
REMARK    1  A    between atoms: C_4  and  N_5 
REMARK    2  A    between atoms: C_7  and  C_8 
REMARK       I    between atoms: C_8  and  N_9 
REMARK    3  A    between atoms: N_9  and  N_10 
REMARK       I    between atoms: N_10  and  C_11 
REMARK    4  A    between atoms: C_11  and  C_12 
REMARK    5  A    between atoms: C_16  and  C_17 
ROOT
HETATM    1  C   UNL     1       6.222  29.902  57.071  1.00  0.00     0.286 C 
HETATM    2  N   UNL     1       6.219  29.755  55.704  1.00  0.00    -0.262 N 
HETATM    3  O   UNL     1       6.603  29.045  57.858  1.00  0.00    -0.264 OA
HETATM    4  H   UNL     1       5.874  30.477  55.070  1.00  0.00     0.190 HD
ENDROOT
BRANCH   2   5
HETATM    5  N   UNL     1       6.661  28.541  55.176  1.00  0.00    -0.262 N 
HETATM    6  C   UNL     1       5.758  27.623  54.686  1.00  0.00     0.288 C 
HETATM    7  O   UNL     1       4.551  27.848  54.640  1.00  0.00    -0.264 OA
HETATM    8  H   UNL     1       7.657  28.350  55.254  1.00  0.00     0.190 HD
BRANCH   6   9
HETATM    9  C   UNL     1       6.342  26.389  54.231  1.00  0.00     0.121 A 
HETATM   10  N   UNL     1       6.908  26.262  52.994  1.00  0.00    -0.272 N 
HETATM   11  H   UNL     1       6.979  26.978  52.277  1.00  0.00     0.189 HD
HETATM   12  N   UNL     1       7.424  25.048  52.747  1.00  0.00    -0.174 NA
HETATM   13  C   UNL     1       7.166  24.335  53.856  1.00  0.00     0.089 A 
HETATM   14  C   UNL     1       6.492  25.145  54.811  1.00  0.00     0.071 A 
BRANCH  13  15
HETATM   15  C   UNL     1       7.567  22.931  53.993  1.00  0.00    -0.006 A 
HETATM   16  C   UNL     1       7.589  22.316  55.254  1.00  0.00     0.014 A 
HETATM   17  C   UNL     1       7.949  20.972  55.388  1.00  0.00     0.001 A 
HETATM   18  C   UNL     1       8.298  20.228  54.264  1.00  0.00     0.000 A 
HETATM   19  C   UNL     1       8.291  20.826  53.005  1.00  0.00     0.001 A 
HETATM   20  C   UNL     1       7.928  22.169  52.870  1.00  0.00     0.014 A 
ENDBRANCH  13  15
ENDBRANCH   6   9
ENDBRANCH   2   5
BRANCH   1  21
HETATM   21  C   UNL     1       5.709  31.241  57.577  1.00  0.00     0.125 C 
HETATM   22  N   UNL     1       5.616  31.441  58.857  1.00  0.00    -0.164 NA
HETATM   23  N   UNL     1       5.169  32.681  59.310  1.00  0.00    -0.201 N 
HETATM   24  C   UNL     1       4.587  33.634  58.451  1.00  0.00     0.245 C 
HETATM   25  C   UNL     1       4.259  33.107  57.077  1.00  0.00     0.111 C 
HETATM   26  O   UNL     1       4.288  34.797  58.721  1.00  0.00    -0.271 OA
HETATM   27  C   UNL     1       5.401  32.282  56.550  1.00  0.00     0.076 C 
BRANCH  23  28
HETATM   28  C   UNL     1       5.332  32.877  60.729  1.00  0.00     0.062 A 
HETATM   29  C   UNL     1       6.560  32.687  61.385  1.00  0.00     0.038 A 
HETATM   30  C   UNL     1       6.702  32.885  62.770  1.00  0.00    -0.060 A 
HETATM   31  C   UNL     1       8.038  32.701  63.433  1.00  0.00     0.048 C 
HETATM   32  C   UNL     1       5.601  33.301  63.519  1.00  0.00     0.007 A 
HETATM   33  C   UNL     1       4.376  33.505  62.894  1.00  0.00     0.003 A 
HETATM   34  C   UNL     1       4.245  33.298  61.517  1.00  0.00     0.032 A 
ENDBRANCH  23  28
ENDBRANCH   1  21
TORSDOF 5
ENDMDL
MODEL 6
REMARK VINA RESULT:      -9.9      7.653     11.949
REMARK  5 active torsions:
REMARK  status: ('A' for Active; 'I' for Inactive)
REMARK    1  A    between atoms: C_4  and  N_5 
REMARK    2  A    between atoms: C_7  and  C_8 
REMARK       I    between atoms: C_8  and  N_9 
REMARK    3  A    between atoms: N_9  and  N_10 
REMARK       I    between atoms: N_10  and  C_11 
REMARK    4  A    between atoms: C_11  and  C_12 
REMARK    5  A    between atoms: C_16  and  C_17 
ROOT
HETATM    1  C   UNL     1       4.139  26.993  49.024  1.00  0.00     0.286 C 
HETATM    2  N   UNL     1       4.144  27.264  50.373  1.00  0.00    -0.262 N 
HETATM    3  O   UNL     1       4.576  25.965  48.523  1.00  0.00    -0.264 OA
HETATM    4  H   UNL     1       3.796  28.140  50.764  1.00  0.00     0.190 HD
ENDROOT
BRANCH   2   5
HETATM    5  N   UNL     1       4.703  26.312  51.228  1.00  0.00    -0.262 N 
HETATM    6  C   UNL     1       5.216  26.688  52.450  1.00  0.00     0.288 C 
HETATM    7  O   UNL     1       5.158  27.845  52.860  1.00  0.00    -0.264 OA
HETATM    8  H   UNL     1       4.779  25.366  50.862  1.00  0.00     0.190 HD
BRANCH   6   9
HETATM    9  C   UNL     1       5.817  25.619  53.203  1.00  0.00     0.121 A 
HETATM   10  N   UNL     1       5.873  25.630  54.569  1.00  0.00    -0.272 N 
HETATM   11  H   UNL     1       5.524  26.355  55.189  1.00  0.00     0.189 HD
HETATM   12  N   UNL     1       6.448  24.542  55.104  1.00  0.00    -0.174 NA
HETATM   13  C   UNL     1       6.810  23.793  54.051  1.00  0.00     0.089 A 
HETATM   14  C   UNL     1       6.427  24.435  52.840  1.00  0.00     0.071 A 
BRANCH  13  15
HETATM   15  C   UNL     1       7.488  22.502  54.206  1.00  0.00    -0.006 A 
HETATM   16  C   UNL     1       7.652  21.932  55.478  1.00  0.00     0.014 A 
HETATM   17  C   UNL     1       8.278  20.691  55.630  1.00  0.00     0.001 A 
HETATM   18  C   UNL     1       8.752  20.007  54.514  1.00  0.00     0.000 A 
HETATM   19  C   UNL     1       8.605  20.563  53.245  1.00  0.00     0.001 A 
HETATM   20  C   UNL     1       7.977  21.802  53.092  1.00  0.00     0.014 A 
ENDBRANCH  13  15
ENDBRANCH   6   9
ENDBRANCH   2   5
BRANCH   1  21
HETATM   21  C   UNL     1       3.535  28.081  48.151  1.00  0.00     0.125 C 
HETATM   22  N   UNL     1       4.157  29.215  48.031  1.00  0.00    -0.164 NA
HETATM   23  N   UNL     1       3.608  30.197  47.208  1.00  0.00    -0.201 N 
HETATM   24  C   UNL     1       2.298  30.107  46.697  1.00  0.00     0.245 C 
HETATM   25  C   UNL     1       1.468  29.010  47.315  1.00  0.00     0.111 C 
HETATM   26  O   UNL     1       1.771  30.842  45.862  1.00  0.00    -0.271 OA
HETATM   27  C   UNL     1       2.274  27.746  47.422  1.00  0.00     0.076 C 
BRANCH  23  28
HETATM   28  C   UNL     1       4.489  31.309  46.957  1.00  0.00     0.062 A 
HETATM   29  C   UNL     1       4.986  32.130  47.983  1.00  0.00     0.038 A 
HETATM   30  C   UNL     1       5.847  33.211  47.721  1.00  0.00    -0.060 A 
HETATM   31  C   UNL     1       6.382  34.049  48.846  1.00  0.00     0.048 C 
HETATM   32  C   UNL     1       6.240  33.470  46.408  1.00  0.00     0.007 A 
HETATM   33  C   UNL     1       5.770  32.669  45.373  1.00  0.00     0.003 A 
HETATM   34  C   UNL     1       4.908  31.601  45.645  1.00  0.00     0.032 A 
ENDBRANCH  23  28
ENDBRANCH   1  21
TORSDOF 5
ENDMDL
MODEL 7
REMARK VINA RESULT:      -9.9      2.689     11.149
REMARK  5 active torsions:
REMARK  status: ('A' for Active; 'I' for Inactive)
REMARK    1  A    between atoms: C_4  and  N_5 
REMARK    2  A    between atoms: C_7  and  C_8 
REMARK       I    between atoms: C_8  and  N_9 
REMARK    3  A    between atoms: N_9  and  N_10 
REMARK       I    between atoms: N_10  and  C_11 
REMARK    4  A    between atoms: C_11  and  C_12 
REMARK    5  A    between atoms: C_16  and  C_17 
ROOT
HETATM    1  C   UNL     1       5.361  29.675  57.224  1.00  0.00     0.286 C 
HETATM    2  N   UNL     1       6.578  29.327  56.686  1.00  0.00    -0.262 N 
HETATM    3  O   UNL     1       4.481  28.877  57.517  1.00  0.00    -0.264 OA
HETATM    4  H   UNL     1       7.287  30.014  56.427  1.00  0.00     0.190 HD
ENDROOT
BRANCH   2   5
HETATM    5  N   UNL     1       6.820  27.975  56.437  1.00  0.00    -0.262 N 
HETATM    6  C   UNL     1       7.576  27.228  57.315  1.00  0.00     0.288 C 
HETATM    7  O   UNL     1       8.019  27.694  58.362  1.00  0.00    -0.264 OA
HETATM    8  H   UNL     1       6.481  27.611  55.550  1.00  0.00     0.190 HD
BRANCH   6   9
HETATM    9  C   UNL     1       7.800  25.867  56.908  1.00  0.00     0.121 A 
HETATM   10  N   UNL     1       8.258  24.912  57.771  1.00  0.00    -0.272 N 
HETATM   11  H   UNL     1       8.491  25.036  58.752  1.00  0.00     0.189 HD
HETATM   12  N   UNL     1       8.386  23.692  57.226  1.00  0.00    -0.174 NA
HETATM   13  C   UNL     1       8.023  23.852  55.943  1.00  0.00     0.089 A 
HETATM   14  C   UNL     1       7.645  25.203  55.707  1.00  0.00     0.071 A 
BRANCH  13  15
HETATM   15  C   UNL     1       8.028  22.741  54.986  1.00  0.00    -0.006 A 
HETATM   16  C   UNL     1       8.160  21.417  55.432  1.00  0.00     0.014 A 
HETATM   17  C   UNL     1       8.143  20.352  54.526  1.00  0.00     0.001 A 
HETATM   18  C   UNL     1       8.001  20.598  53.163  1.00  0.00     0.000 A 
HETATM   19  C   UNL     1       7.878  21.907  52.703  1.00  0.00     0.001 A 
HETATM   20  C   UNL     1       7.892  22.972  53.608  1.00  0.00     0.014 A 
ENDBRANCH  13  15
ENDBRANCH   6   9
ENDBRANCH   2   5
BRANCH   1  21
HETATM   21  C   UNL     1       5.159  31.165  57.449  1.00  0.00     0.125 C 
HETATM   22  N   UNL     1       5.197  31.633  58.659  1.00  0.00    -0.164 NA
HETATM   23  N   UNL     1       5.035  33.004  58.853  1.00  0.00    -0.201 N 
HETATM   24  C   UNL     1       4.594  33.864  57.828  1.00  0.00     0.245 C 
HETATM   25  C   UNL     1       4.073  33.151  56.606  1.00  0.00     0.111 C 
HETATM   26  O   UNL     1       4.549  35.094  57.854  1.00  0.00    -0.271 OA
HETATM   27  C   UNL     1       4.990  32.019  56.234  1.00  0.00     0.076 C 
BRANCH  23  28
HETATM   28  C   UNL     1       5.333  33.444  60.193  1.00  0.00     0.062 A 
HETATM   29  C   UNL     1       6.360  32.878  60.967  1.00  0.00     0.038 A 
HETATM   30  C   UNL     1       6.638  33.320  62.273  1.00  0.00    -0.060 A 
HETATM   31  C   UNL     1       7.763  32.712  63.060  1.00  0.00     0.048 C 
HETATM   32  C   UNL     1       5.890  34.366  62.815  1.00  0.00     0.007 A 
HETATM   33  C   UNL     1       4.873  34.950  62.069  1.00  0.00     0.003 A 
HETATM   34  C   UNL     1       4.601  34.497  60.774  1.00  0.00     0.032 A 
ENDBRANCH  23  28
ENDBRANCH   1  21
TORSDOF 5
ENDMDL
MODEL 8
REMARK VINA RESULT:      -9.9      3.426     11.514
REMARK  5 active torsions:
REMARK  status: ('A' for Active; 'I' for Inactive)
REMARK    1  A    between atoms: C_4  and  N_5 
REMARK    2  A    between atoms: C_7  and  C_8 
REMARK       I    between atoms: C_8  and  N_9 
REMARK    3  A    between atoms: N_9  and  N_10 
REMARK       I    between atoms: N_10  and  C_11 
REMARK    4  A    between atoms: C_11  and  C_12 
REMARK    5  A    between atoms: C_16  and  C_17 
ROOT
HETATM    1  C   UNL     1       3.836  31.750  58.054  1.00  0.00     0.286 C 
HETATM    2  N   UNL     1       4.405  30.631  58.616  1.00  0.00    -0.262 N 
HETATM    3  O   UNL     1       3.454  31.823  56.893  1.00  0.00    -0.264 OA
HETATM    4  H   UNL     1       4.738  30.604  59.581  1.00  0.00     0.190 HD
ENDROOT
BRANCH   2   5
HETATM    5  N   UNL     1       4.578  29.508  57.805  1.00  0.00    -0.262 N 
HETATM    6  C   UNL     1       5.843  29.079  57.468  1.00  0.00     0.288 C 
HETATM    7  O   UNL     1       6.858  29.620  57.900  1.00  0.00    -0.264 OA
HETATM    8  H   UNL     1       3.732  29.093  57.423  1.00  0.00     0.190 HD
BRANCH   6   9
HETATM    9  C   UNL     1       5.877  27.950  56.576  1.00  0.00     0.121 A 
HETATM   10  N   UNL     1       4.995  27.809  55.543  1.00  0.00    -0.272 N 
HETATM   11  H   UNL     1       4.241  28.443  55.291  1.00  0.00     0.189 HD
HETATM   12  N   UNL     1       5.188  26.708  54.800  1.00  0.00    -0.174 NA
HETATM   13  C   UNL     1       6.224  26.082  55.382  1.00  0.00     0.089 A 
HETATM   14  C   UNL     1       6.686  26.834  56.497  1.00  0.00     0.071 A 
BRANCH  13  15
HETATM   15  C   UNL     1       6.756  24.814  54.872  1.00  0.00    -0.006 A 
HETATM   16  C   UNL     1       6.917  24.612  53.492  1.00  0.00     0.014 A 
HETATM   17  C   UNL     1       7.444  23.413  53.002  1.00  0.00     0.001 A 
HETATM   18  C   UNL     1       7.811  22.400  53.883  1.00  0.00     0.000 A 
HETATM   19  C   UNL     1       7.649  22.581  55.256  1.00  0.00     0.001 A 
HETATM   20  C   UNL     1       7.125  23.780  55.747  1.00  0.00     0.014 A 
ENDBRANCH  13  15
ENDBRANCH   6   9
ENDBRANCH   2   5
BRANCH   1  21
HETATM   21  C   UNL     1       3.697  32.942  58.988  1.00  0.00     0.125 C 
HETATM   22  N   UNL     1       4.055  32.817  60.230  1.00  0.00    -0.164 NA
HETATM   23  N   UNL     1       3.948  33.923  61.072  1.00  0.00    -0.201 N 
HETATM   24  C   UNL     1       3.247  35.088  60.702  1.00  0.00     0.245 C 
HETATM   25  C   UNL     1       2.421  34.940  59.449  1.00  0.00     0.111 C 
HETATM   26  O   UNL     1       3.208  36.158  61.309  1.00  0.00    -0.271 OA
HETATM   27  C   UNL     1       3.209  34.221  58.389  1.00  0.00     0.076 C 
BRANCH  23  28
HETATM   28  C   UNL     1       4.591  33.748  62.350  1.00  0.00     0.062 A 
HETATM   29  C   UNL     1       5.942  33.384  62.476  1.00  0.00     0.038 A 
HETATM   30  C   UNL     1       6.554  33.219  63.732  1.00  0.00    -0.060 A 
HETATM   31  C   UNL     1       8.009  32.859  63.829  1.00  0.00     0.048 C 
HETATM   32  C   UNL     1       5.810  33.442  64.891  1.00  0.00     0.007 A 
HETATM   33  C   UNL     1       4.473  33.810  64.796  1.00  0.00     0.003 A 
HETATM   34  C   UNL     1       3.873  33.964  63.541  1.00  0.00     0.032 A 
ENDBRANCH  23  28
ENDBRANCH   1  21
TORSDOF 5
ENDMDL
MODEL 9
REMARK VINA RESULT:      -9.6      7.500     11.981
REMARK  5 active torsions:
REMARK  status: ('A' for Active; 'I' for Inactive)
REMARK    1  A    between atoms: C_4  and  N_5 
REMARK    2  A    between atoms: C_7  and  C_8 
REMARK       I    between atoms: C_8  and  N_9 
REMARK    3  A    between atoms: N_9  and  N_10 
REMARK       I    between atoms: N_10  and  C_11 
REMARK    4  A    between atoms: C_11  and  C_12 
REMARK    5  A    between atoms: C_16  and  C_17 
ROOT
HETATM    1  C   UNL     1       4.562  27.318  49.140  1.00  0.00     0.286 C 
HETATM    2  N   UNL     1       5.349  27.726  50.192  1.00  0.00    -0.262 N 
HETATM    3  O   UNL     1       4.286  26.151  48.895  1.00  0.00    -0.264 OA
HETATM    4  H   UNL     1       5.584  28.704  50.360  1.00  0.00     0.190 HD
ENDROOT
BRANCH   2   5
HETATM    5  N   UNL     1       5.886  26.744  51.025  1.00  0.00    -0.262 N 
HETATM    6  C   UNL     1       5.865  26.902  52.394  1.00  0.00     0.288 C 
HETATM    7  O   UNL     1       5.335  27.870  52.936  1.00  0.00    -0.264 OA
HETATM    8  H   UNL     1       6.355  25.967  50.565  1.00  0.00     0.190 HD
BRANCH   6   9
HETATM    9  C   UNL     1       6.507  25.847  53.132  1.00  0.00     0.121 A 
HETATM   10  N   UNL     1       7.152  26.071  54.315  1.00  0.00    -0.272 N 
HETATM   11  H   UNL     1       7.261  26.961  54.793  1.00  0.00     0.189 HD
HETATM   12  N   UNL     1       7.672  24.967  54.875  1.00  0.00    -0.174 NA
HETATM   13  C   UNL     1       7.381  23.978  54.016  1.00  0.00     0.089 A 
HETATM   14  C   UNL     1       6.646  24.491  52.911  1.00  0.00     0.071 A 
BRANCH  13  15
HETATM   15  C   UNL     1       7.786  22.589  54.258  1.00  0.00    -0.006 A 
HETATM   16  C   UNL     1       7.725  22.045  55.550  1.00  0.00     0.014 A 
HETATM   17  C   UNL     1       8.088  20.715  55.783  1.00  0.00     0.001 A 
HETATM   18  C   UNL     1       8.521  19.915  54.729  1.00  0.00     0.000 A 
HETATM   19  C   UNL     1       8.596  20.443  53.442  1.00  0.00     0.001 A 
HETATM   20  C   UNL     1       8.230  21.771  53.208  1.00  0.00     0.014 A 
ENDBRANCH  13  15
ENDBRANCH   6   9
ENDBRANCH   2   5
BRANCH   1  21
HETATM   21  C   UNL     1       4.028  28.438  48.261  1.00  0.00     0.125 C 
HETATM   22  N   UNL     1       2.832  28.337  47.765  1.00  0.00    -0.164 NA
HETATM   23  N   UNL     1       2.342  29.381  46.982  1.00  0.00    -0.201 N 
HETATM   24  C   UNL     1       3.167  30.421  46.508  1.00  0.00     0.245 C 
HETATM   25  C   UNL     1       4.642  30.174  46.699  1.00  0.00     0.111 C 
HETATM   26  O   UNL     1       2.813  31.449  45.932  1.00  0.00    -0.271 OA
HETATM   27  C   UNL     1       4.905  29.633  48.077  1.00  0.00     0.076 C 
BRANCH  23  28
HETATM   28  C   UNL     1       0.936  29.279  46.686  1.00  0.00     0.062 A 
HETATM   29  C   UNL     1       0.056  30.368  46.796  1.00  0.00     0.038 A 
HETATM   30  C   UNL     1      -1.315  30.251  46.502  1.00  0.00    -0.060 A 
HETATM   31  C   UNL     1      -2.221  31.444  46.602  1.00  0.00     0.048 C 
HETATM   32  C   UNL     1      -1.819  29.024  46.068  1.00  0.00     0.007 A 
HETATM   33  C   UNL     1      -0.970  27.931  45.942  1.00  0.00     0.003 A 
HETATM   34  C   UNL     1       0.390  28.058  46.245  1.00  0.00     0.032 A 
ENDBRANCH  23  28
ENDBRANCH   1  21
TORSDOF 5
ENDMDL
MODEL 10
REMARK VINA RESULT:      -9.5      3.531     11.603
REMARK  5 active torsions:
REMARK  status: ('A' for Active; 'I' for Inactive)
REMARK    1  A    between atoms: C_4  and  N_5 
REMARK    2  A    between atoms: C_7  and  C_8 
REMARK       I    between atoms: C_8  and  N_9 
REMARK    3  A    between atoms: N_9  and  N_10 
REMARK       I    between atoms: N_10  and  C_11 
REMARK    4  A    between atoms: C_11  and  C_12 
REMARK    5  A    between atoms: C_16  and  C_17 
ROOT
HETATM    1  C   UNL     1       6.923  30.292  57.288  1.00  0.00     0.286 C 
HETATM    2  N   UNL     1       7.658  29.559  56.384  1.00  0.00    -0.262 N 
HETATM    3  O   UNL     1       5.730  30.539  57.170  1.00  0.00    -0.264 OA
HETATM    4  H   UNL     1       8.658  29.387  56.493  1.00  0.00     0.190 HD
ENDROOT
BRANCH   2   5
HETATM    5  N   UNL     1       7.006  29.083  55.246  1.00  0.00    -0.262 N 
HETATM    6  C   UNL     1       6.613  27.764  55.167  1.00  0.00     0.288 C 
HETATM    7  O   UNL     1       6.765  26.976  56.098  1.00  0.00    -0.264 OA
HETATM    8  H   UNL     1       6.920  29.733  54.469  1.00  0.00     0.190 HD
BRANCH   6   9
HETATM    9  C   UNL     1       6.009  27.390  53.916  1.00  0.00     0.121 A 
HETATM   10  N   UNL     1       5.072  26.400  53.824  1.00  0.00    -0.272 N 
HETATM   11  H   UNL     1       4.709  25.830  54.582  1.00  0.00     0.189 HD
HETATM   12  N   UNL     1       4.601  26.202  52.583  1.00  0.00    -0.174 NA
HETATM   13  C   UNL     1       5.271  27.079  51.819  1.00  0.00     0.089 A 
HETATM   14  C   UNL     1       6.161  27.846  52.621  1.00  0.00     0.071 A 
BRANCH  13  15
HETATM   15  C   UNL     1       5.052  27.182  50.372  1.00  0.00    -0.006 A 
HETATM   16  C   UNL     1       4.451  26.129  49.666  1.00  0.00     0.014 A 
HETATM   17  C   UNL     1       4.219  26.231  48.291  1.00  0.00     0.001 A 
HETATM   18  C   UNL     1       4.590  27.384  47.604  1.00  0.00     0.000 A 
HETATM   19  C   UNL     1       5.196  28.436  48.289  1.00  0.00     0.001 A 
HETATM   20  C   UNL     1       5.425  28.335  49.664  1.00  0.00     0.014 A 
ENDBRANCH  13  15
ENDBRANCH   6   9
ENDBRANCH   2   5
BRANCH   1  21
HETATM   21  C   UNL     1       7.701  30.796  58.493  1.00  0.00     0.125 C 
HETATM   22  N   UNL     1       7.080  31.481  59.405  1.00  0.00    -0.164 NA
HETATM   23  N   UNL     1       7.796  31.917  60.518  1.00  0.00    -0.201 N 
HETATM   24  C   UNL     1       9.203  31.859  60.581  1.00  0.00     0.245 C 
HETATM   25  C   UNL     1       9.866  31.533  59.267  1.00  0.00     0.111 C 
HETATM   26  O   UNL     1       9.915  32.088  61.558  1.00  0.00    -0.271 OA
HETATM   27  C   UNL     1       9.141  30.408  58.583  1.00  0.00     0.076 C 
BRANCH  23  28
HETATM   28  C   UNL     1       6.970  32.451  61.572  1.00  0.00     0.062 A 
HETATM   29  C   UNL     1       7.458  32.702  62.865  1.00  0.00     0.038 A 
HETATM   30  C   UNL     1       6.638  33.225  63.881  1.00  0.00    -0.060 A 
HETATM   31  C   UNL     1       7.201  33.510  65.244  1.00  0.00     0.048 C 
HETATM   32  C   UNL     1       5.305  33.525  63.599  1.00  0.00     0.007 A 
HETATM   33  C   UNL     1       4.797  33.293  62.325  1.00  0.00     0.003 A 
HETATM   34  C   UNL     1       5.621  32.766  61.325  1.00  0.00     0.032 A 
ENDBRANCH  23  28
ENDBRANCH   1  21
TORSDOF 5
ENDMDL
