MODEL 1
REMARK VINA RESULT:     -10.1      0.000      0.000
REMARK  4 active torsions:
REMARK  status: ('A' for Active; 'I' for Inactive)
REMARK    1  A    between atoms: O_1  and  C_2 
REMARK    2  A    between atoms: C_2  and  C_3 
REMARK    3  A    between atoms: N_5  and  C_17 
REMARK    4  A    between atoms: C_20  and  C_23 
ROOT
HETATM    1  C   UNL     1       6.822  29.513  55.899  1.00  0.00     0.060 C 
HETATM    2  C   UNL     1       7.320  28.375  55.007  1.00  0.00     0.141 C 
HETATM    3  N   UNL     1       7.554  27.260  55.903  1.00  0.00    -0.316 N 
HETATM    4  C   UNL     1       7.616  27.704  57.233  1.00  0.00     0.248 C 
HETATM    5  O   UNL     1       7.719  27.050  58.264  1.00  0.00    -0.271 OA
HETATM    6  C   UNL     1       7.552  29.238  57.220  1.00  0.00     0.108 A 
HETATM    7  C   UNL     1       8.998  29.804  57.231  1.00  0.00     0.076 A 
HETATM    8  C   UNL     1       8.944  30.745  58.383  1.00  0.00    -0.035 A 
HETATM    9  C   UNL     1       9.946  31.568  58.870  1.00  0.00     0.009 A 
HETATM   10  C   UNL     1       9.680  32.330  60.010  1.00  0.00     0.001 A 
HETATM   11  C   UNL     1       8.431  32.254  60.643  1.00  0.00     0.002 A 
HETATM   12  C   UNL     1       7.432  31.417  60.139  1.00  0.00     0.024 A 
HETATM   13  C   UNL     1       7.701  30.677  59.001  1.00  0.00     0.015 A 
HETATM   14  N   UNL     1       6.803  29.756  58.407  1.00  0.00    -0.274 NA
HETATM   15  H   UNL     1       6.665  28.998  59.086  1.00  0.00     0.129 HD
ENDROOT
BRANCH   3  16
HETATM   16  C   UNL     1       7.735  25.925  55.447  1.00  0.00     0.037 A 
HETATM   17  C   UNL     1       8.126  24.895  56.311  1.00  0.00     0.030 A 
HETATM   18  C   UNL     1       8.308  23.581  55.852  1.00  0.00     0.014 A 
HETATM   19  C   UNL     1       8.099  23.256  54.511  1.00  0.00    -0.023 A 
HETATM   20  C   UNL     1       7.710  24.274  53.638  1.00  0.00     0.014 A 
HETATM   21  C   UNL     1       7.539  25.589  54.098  1.00  0.00     0.030 A 
BRANCH  19  22
HETATM   22  C   UNL     1       8.269  21.897  54.029  1.00  0.00     0.010 A 
HETATM   23  C   UNL     1       8.819  20.754  54.656  1.00  0.00     0.152 A 
HETATM   24  N   UNL     1       8.784  19.669  53.877  1.00  0.00    -0.187 NA
HETATM   25  N   UNL     1       8.210  20.112  52.748  1.00  0.00    -0.289 N 
HETATM   26  H   UNL     1       8.071  19.454  51.988  1.00  0.00     0.188 HD
HETATM   27  C   UNL     1       7.882  21.437  52.788  1.00  0.00     0.123 A 
ENDBRANCH  19  22
ENDBRANCH   3  16
BRANCH   1  28
HETATM   28  C   UNL     1       5.295  29.493  56.017  1.00  0.00     0.172 C 
BRANCH  28  29
HETATM   29  O   UNL     1       4.843  30.784  56.419  1.00  0.00    -0.400 OA
HETATM   30  H   UNL     1       5.473  31.103  57.091  1.00  0.00     0.209 HD
ENDBRANCH  28  29
ENDBRANCH   1  28
TORSDOF 4
ENDMDL
MODEL 2
REMARK VINA RESULT:      -9.4      2.041      2.630
REMARK  4 active torsions:
REMARK  status: ('A' for Active; 'I' for Inactive)
REMARK    1  A    between atoms: O_1  and  C_2 
REMARK    2  A    between atoms: C_2  and  C_3 
REMARK    3  A    between atoms: N_5  and  C_17 
REMARK    4  A    between atoms: C_20  and  C_23 
ROOT
HETATM    1  C   UNL     1       5.217  29.149  54.529  1.00  0.00     0.060 C 
HETATM    2  C   UNL     1       6.207  28.065  54.097  1.00  0.00     0.141 C 
HETATM    3  N   UNL     1       6.075  27.012  55.084  1.00  0.00    -0.316 N 
HETATM    4  C   UNL     1       5.421  27.491  56.230  1.00  0.00     0.248 C 
HETATM    5  O   UNL     1       5.063  26.880  57.229  1.00  0.00    -0.271 OA
HETATM    6  C   UNL     1       5.216  29.003  56.056  1.00  0.00     0.108 A 
HETATM    7  C   UNL     1       6.398  29.753  56.728  1.00  0.00     0.076 A 
HETATM    8  C   UNL     1       5.681  30.705  57.620  1.00  0.00    -0.035 A 
HETATM    9  C   UNL     1       6.218  31.663  58.465  1.00  0.00     0.009 A 
HETATM   10  C   UNL     1       5.344  32.411  59.257  1.00  0.00     0.001 A 
HETATM   11  C   UNL     1       3.960  32.186  59.198  1.00  0.00     0.002 A 
HETATM   12  C   UNL     1       3.437  31.214  58.342  1.00  0.00     0.024 A 
HETATM   13  C   UNL     1       4.310  30.490  57.551  1.00  0.00     0.015 A 
HETATM   14  N   UNL     1       3.927  29.445  56.673  1.00  0.00    -0.274 NA
HETATM   15  H   UNL     1       3.547  28.692  57.259  1.00  0.00     0.129 HD
ENDROOT
BRANCH   3  16
HETATM   16  C   UNL     1       6.595  25.702  54.892  1.00  0.00     0.037 A 
HETATM   17  C   UNL     1       7.529  25.141  55.770  1.00  0.00     0.030 A 
HETATM   18  C   UNL     1       8.041  23.849  55.570  1.00  0.00     0.014 A 
HETATM   19  C   UNL     1       7.628  23.075  54.485  1.00  0.00    -0.023 A 
HETATM   20  C   UNL     1       6.697  23.624  53.600  1.00  0.00     0.014 A 
HETATM   21  C   UNL     1       6.195  24.920  53.797  1.00  0.00     0.030 A 
BRANCH  19  22
HETATM   22  C   UNL     1       8.139  21.733  54.278  1.00  0.00     0.010 A 
HETATM   23  C   UNL     1       8.277  20.966  53.097  1.00  0.00     0.152 A 
HETATM   24  N   UNL     1       8.810  19.762  53.320  1.00  0.00    -0.187 NA
HETATM   25  N   UNL     1       9.017  19.751  54.646  1.00  0.00    -0.289 N 
HETATM   26  H   UNL     1       9.426  18.922  55.063  1.00  0.00     0.188 HD
HETATM   27  C   UNL     1       8.634  20.907  55.265  1.00  0.00     0.123 A 
ENDBRANCH  19  22
ENDBRANCH   3  16
BRANCH   1  28
HETATM   28  C   UNL     1       3.845  28.932  53.884  1.00  0.00     0.172 C 
BRANCH  28  29
HETATM   29  O   UNL     1       3.163  30.183  53.810  1.00  0.00    -0.400 OA
HETATM   30  H   UNL     1       2.476  30.084  53.127  1.00  0.00     0.209 HD
ENDBRANCH  28  29
ENDBRANCH   1  28
TORSDOF 4
ENDMDL
MODEL 3
REMARK VINA RESULT:      -9.3      5.605      8.901
REMARK  4 active torsions:
REMARK  status: ('A' for Active; 'I' for Inactive)
REMARK    1  A    between atoms: O_1  and  C_2 
REMARK    2  A    between atoms: C_2  and  C_3 
REMARK    3  A    between atoms: N_5  and  C_17 
REMARK    4  A    between atoms: C_20  and  C_23 
ROOT
HETATM    1  C   UNL     1       7.516  26.153  53.482  1.00  0.00     0.060 C 
HETATM    2  C   UNL     1       7.104  26.807  52.162  1.00  0.00     0.141 C 
HETATM    3  N   UNL     1       5.819  26.226  51.831  1.00  0.00    -0.316 N 
HETATM    4  C   UNL     1       5.600  25.058  52.578  1.00  0.00     0.248 C 
HETATM    5  O   UNL     1       4.605  24.346  52.629  1.00  0.00    -0.271 OA
HETATM    6  C   UNL     1       6.883  24.760  53.369  1.00  0.00     0.108 A 
HETATM    7  C   UNL     1       7.760  23.770  52.554  1.00  0.00     0.076 A 
HETATM    8  C   UNL     1       8.010  22.697  53.555  1.00  0.00    -0.035 A 
HETATM    9  C   UNL     1       8.761  21.543  53.409  1.00  0.00     0.009 A 
HETATM   10  C   UNL     1       8.807  20.644  54.477  1.00  0.00     0.001 A 
HETATM   11  C   UNL     1       8.103  20.908  55.661  1.00  0.00     0.002 A 
HETATM   12  C   UNL     1       7.348  22.076  55.790  1.00  0.00     0.024 A 
HETATM   13  C   UNL     1       7.321  22.967  54.731  1.00  0.00     0.015 A 
HETATM   14  N   UNL     1       6.565  24.165  54.704  1.00  0.00    -0.274 NA
HETATM   15  H   UNL     1       5.575  23.891  54.734  1.00  0.00     0.129 HD
ENDROOT
BRANCH   3  16
HETATM   16  C   UNL     1       4.952  26.774  50.844  1.00  0.00     0.037 A 
HETATM   17  C   UNL     1       4.344  28.024  51.006  1.00  0.00     0.030 A 
HETATM   18  C   UNL     1       3.486  28.555  50.030  1.00  0.00     0.014 A 
HETATM   19  C   UNL     1       3.215  27.851  48.856  1.00  0.00    -0.023 A 
HETATM   20  C   UNL     1       3.815  26.602  48.682  1.00  0.00     0.014 A 
HETATM   21  C   UNL     1       4.663  26.069  49.665  1.00  0.00     0.030 A 
BRANCH  19  22
HETATM   22  C   UNL     1       2.343  28.398  47.833  1.00  0.00     0.010 A 
HETATM   23  C   UNL     1       1.047  28.012  47.418  1.00  0.00     0.152 A 
HETATM   24  N   UNL     1       0.564  28.784  46.440  1.00  0.00    -0.187 NA
HETATM   25  N   UNL     1       1.549  29.669  46.225  1.00  0.00    -0.289 N 
HETATM   26  H   UNL     1       1.413  30.377  45.511  1.00  0.00     0.188 HD
HETATM   27  C   UNL     1       2.634  29.483  47.033  1.00  0.00     0.123 A 
ENDBRANCH  19  22
ENDBRANCH   3  16
BRANCH   1  28
HETATM   28  C   UNL     1       7.016  26.966  54.680  1.00  0.00     0.172 C 
BRANCH  28  29
HETATM   29  O   UNL     1       7.715  26.547  55.850  1.00  0.00    -0.400 OA
HETATM   30  H   UNL     1       8.544  27.058  55.877  1.00  0.00     0.209 HD
ENDBRANCH  28  29
ENDBRANCH   1  28
TORSDOF 4
ENDMDL
MODEL 4
REMARK VINA RESULT:      -9.1      5.254      8.820
REMARK  4 active torsions:
REMARK  status: ('A' for Active; 'I' for Inactive)
REMARK    1  A    between atoms: O_1  and  C_2 
REMARK    2  A    between atoms: C_2  and  C_3 
REMARK    3  A    between atoms: N_5  and  C_17 
REMARK    4  A    between atoms: C_20  and  C_23 
ROOT
HETATM    1  C   UNL     1       5.181  35.136  63.104  1.00  0.00     0.060 C 
HETATM    2  C   UNL     1       5.961  34.698  61.863  1.00  0.00     0.141 C 
HETATM    3  N   UNL     1       5.882  33.251  61.853  1.00  0.00    -0.316 N 
HETATM    4  C   UNL     1       5.484  32.771  63.110  1.00  0.00     0.248 C 
HETATM    5  O   UNL     1       5.233  31.623  63.457  1.00  0.00    -0.271 OA
HETATM    6  C   UNL     1       5.418  33.968  64.070  1.00  0.00     0.108 A 
HETATM    7  C   UNL     1       6.770  34.084  64.826  1.00  0.00     0.076 A 
HETATM    8  C   UNL     1       6.320  34.118  66.244  1.00  0.00    -0.035 A 
HETATM    9  C   UNL     1       7.091  34.237  67.389  1.00  0.00     0.009 A 
HETATM   10  C   UNL     1       6.447  34.188  68.628  1.00  0.00     0.001 A 
HETATM   11  C   UNL     1       5.057  34.014  68.701  1.00  0.00     0.002 A 
HETATM   12  C   UNL     1       4.296  33.893  67.536  1.00  0.00     0.024 A 
HETATM   13  C   UNL     1       4.941  33.959  66.314  1.00  0.00     0.015 A 
HETATM   14  N   UNL     1       4.306  33.806  65.057  1.00  0.00    -0.274 NA
HETATM   15  H   UNL     1       3.949  32.843  65.021  1.00  0.00     0.129 HD
ENDROOT
BRANCH   3  16
HETATM   16  C   UNL     1       6.217  32.465  60.714  1.00  0.00     0.037 A 
HETATM   17  C   UNL     1       7.421  31.755  60.634  1.00  0.00     0.030 A 
HETATM   18  C   UNL     1       7.746  30.987  59.506  1.00  0.00     0.014 A 
HETATM   19  C   UNL     1       6.872  30.901  58.421  1.00  0.00    -0.023 A 
HETATM   20  C   UNL     1       5.667  31.606  58.488  1.00  0.00     0.014 A 
HETATM   21  C   UNL     1       5.350  32.382  59.614  1.00  0.00     0.030 A 
BRANCH  19  22
HETATM   22  C   UNL     1       7.191  30.097  57.256  1.00  0.00     0.010 A 
HETATM   23  C   UNL     1       8.386  29.436  56.887  1.00  0.00     0.152 A 
HETATM   24  N   UNL     1       8.277  28.777  55.729  1.00  0.00    -0.187 NA
HETATM   25  N   UNL     1       7.011  29.015  55.352  1.00  0.00    -0.289 N 
HETATM   26  H   UNL     1       6.684  28.609  54.481  1.00  0.00     0.188 HD
HETATM   27  C   UNL     1       6.319  29.797  56.231  1.00  0.00     0.123 A 
ENDBRANCH  19  22
ENDBRANCH   3  16
BRANCH   1  28
HETATM   28  C   UNL     1       3.706  35.376  62.771  1.00  0.00     0.172 C 
BRANCH  28  29
HETATM   29  O   UNL     1       3.120  36.168  63.803  1.00  0.00    -0.400 OA
HETATM   30  H   UNL     1       3.287  35.700  64.641  1.00  0.00     0.209 HD
ENDBRANCH  28  29
ENDBRANCH   1  28
TORSDOF 4
ENDMDL
MODEL 5
REMARK VINA RESULT:      -9.0      4.485      8.835
REMARK  4 active torsions:
REMARK  status: ('A' for Active; 'I' for Inactive)
REMARK    1  A    between atoms: O_1  and  C_2 
REMARK    2  A    between atoms: C_2  and  C_3 
REMARK    3  A    between atoms: N_5  and  C_17 
REMARK    4  A    between atoms: C_20  and  C_23 
ROOT
HETATM    1  C   UNL     1       7.788  25.945  54.628  1.00  0.00     0.060 C 
HETATM    2  C   UNL     1       7.291  26.963  53.599  1.00  0.00     0.141 C 
HETATM    3  N   UNL     1       5.942  26.548  53.271  1.00  0.00    -0.316 N 
HETATM    4  C   UNL     1       5.719  25.225  53.684  1.00  0.00     0.248 C 
HETATM    5  O   UNL     1       4.688  24.567  53.650  1.00  0.00    -0.271 OA
HETATM    6  C   UNL     1       7.052  24.667  54.206  1.00  0.00     0.108 A 
HETATM    7  C   UNL     1       7.772  23.917  53.053  1.00  0.00     0.076 A 
HETATM    8  C   UNL     1       8.047  22.595  53.679  1.00  0.00    -0.035 A 
HETATM    9  C   UNL     1       8.698  21.502  53.131  1.00  0.00     0.009 A 
HETATM   10  C   UNL     1       8.789  20.335  53.895  1.00  0.00     0.001 A 
HETATM   11  C   UNL     1       8.227  20.279  55.179  1.00  0.00     0.002 A 
HETATM   12  C   UNL     1       7.572  21.391  55.715  1.00  0.00     0.024 A 
HETATM   13  C   UNL     1       7.500  22.546  54.956  1.00  0.00     0.015 A 
HETATM   14  N   UNL     1       6.830  23.730  55.351  1.00  0.00    -0.274 NA
HETATM   15  H   UNL     1       5.832  23.496  55.418  1.00  0.00     0.129 HD
ENDROOT
BRANCH   3  16
HETATM   16  C   UNL     1       5.020  27.386  52.583  1.00  0.00     0.037 A 
HETATM   17  C   UNL     1       4.028  28.106  53.259  1.00  0.00     0.030 A 
HETATM   18  C   UNL     1       3.119  28.926  52.572  1.00  0.00     0.014 A 
HETATM   19  C   UNL     1       3.180  29.056  51.184  1.00  0.00    -0.023 A 
HETATM   20  C   UNL     1       4.164  28.342  50.497  1.00  0.00     0.014 A 
HETATM   21  C   UNL     1       5.064  27.515  51.186  1.00  0.00     0.030 A 
BRANCH  19  22
HETATM   22  C   UNL     1       2.255  29.914  50.466  1.00  0.00     0.010 A 
HETATM   23  C   UNL     1       1.891  31.264  50.676  1.00  0.00     0.152 A 
HETATM   24  N   UNL     1       1.005  31.708  49.780  1.00  0.00    -0.187 NA
HETATM   25  N   UNL     1       0.798  30.643  48.990  1.00  0.00    -0.289 N 
HETATM   26  H   UNL     1       0.149  30.736  48.216  1.00  0.00     0.188 HD
HETATM   27  C   UNL     1       1.523  29.545  49.357  1.00  0.00     0.123 A 
ENDBRANCH  19  22
ENDBRANCH   3  16
BRANCH   1  28
HETATM   28  C   UNL     1       7.469  26.404  56.054  1.00  0.00     0.172 C 
BRANCH  28  29
HETATM   29  O   UNL     1       8.354  25.750  56.961  1.00  0.00    -0.400 OA
HETATM   30  H   UNL     1       7.797  25.337  57.645  1.00  0.00     0.209 HD
ENDBRANCH  28  29
ENDBRANCH   1  28
TORSDOF 4
ENDMDL
MODEL 6
REMARK VINA RESULT:      -9.0      1.966      3.803
REMARK  4 active torsions:
REMARK  status: ('A' for Active; 'I' for Inactive)
REMARK    1  A    between atoms: O_1  and  C_2 
REMARK    2  A    between atoms: C_2  and  C_3 
REMARK    3  A    between atoms: N_5  and  C_17 
REMARK    4  A    between atoms: C_20  and  C_23 
ROOT
HETATM    1  C   UNL     1       6.453  28.956  57.455  1.00  0.00     0.060 C 
HETATM    2  C   UNL     1       6.499  27.428  57.397  1.00  0.00     0.141 C 
HETATM    3  N   UNL     1       6.622  27.103  55.990  1.00  0.00    -0.316 N 
HETATM    4  C   UNL     1       6.281  28.209  55.197  1.00  0.00     0.248 C 
HETATM    5  O   UNL     1       6.341  28.338  53.981  1.00  0.00    -0.271 OA
HETATM    6  C   UNL     1       5.766  29.315  56.131  1.00  0.00     0.108 A 
HETATM    7  C   UNL     1       4.218  29.222  56.217  1.00  0.00     0.076 A 
HETATM    8  C   UNL     1       3.815  30.614  55.880  1.00  0.00    -0.035 A 
HETATM    9  C   UNL     1       2.538  31.148  55.819  1.00  0.00     0.009 A 
HETATM   10  C   UNL     1       2.397  32.480  55.420  1.00  0.00     0.001 A 
HETATM   11  C   UNL     1       3.523  33.246  55.085  1.00  0.00     0.002 A 
HETATM   12  C   UNL     1       4.803  32.690  55.150  1.00  0.00     0.024 A 
HETATM   13  C   UNL     1       4.932  31.375  55.561  1.00  0.00     0.015 A 
HETATM   14  N   UNL     1       6.159  30.668  55.629  1.00  0.00    -0.274 NA
HETATM   15  H   UNL     1       6.511  30.592  54.667  1.00  0.00     0.129 HD
ENDROOT
BRANCH   3  16
HETATM   16  C   UNL     1       6.996  25.811  55.524  1.00  0.00     0.037 A 
HETATM   17  C   UNL     1       8.016  25.072  56.134  1.00  0.00     0.030 A 
HETATM   18  C   UNL     1       8.383  23.801  55.666  1.00  0.00     0.014 A 
HETATM   19  C   UNL     1       7.733  23.226  54.573  1.00  0.00    -0.023 A 
HETATM   20  C   UNL     1       6.713  23.953  53.954  1.00  0.00     0.014 A 
HETATM   21  C   UNL     1       6.357  25.229  54.418  1.00  0.00     0.030 A 
BRANCH  19  22
HETATM   22  C   UNL     1       8.092  21.905  54.090  1.00  0.00     0.010 A 
HETATM   23  C   UNL     1       8.697  20.810  54.751  1.00  0.00     0.152 A 
HETATM   24  N   UNL     1       8.853  19.747  53.957  1.00  0.00    -0.187 NA
HETATM   25  N   UNL     1       8.350  20.157  52.783  1.00  0.00    -0.289 N 
HETATM   26  H   UNL     1       8.356  19.508  52.003  1.00  0.00     0.188 HD
HETATM   27  C   UNL     1       7.881  21.439  52.810  1.00  0.00     0.123 A 
ENDBRANCH  19  22
ENDBRANCH   3  16
BRANCH   1  28
HETATM   28  C   UNL     1       7.859  29.545  57.603  1.00  0.00     0.172 C 
BRANCH  28  29
HETATM   29  O   UNL     1       8.304  29.352  58.945  1.00  0.00    -0.400 OA
HETATM   30  H   UNL     1       8.415  28.392  59.066  1.00  0.00     0.209 HD
ENDBRANCH  28  29
ENDBRANCH   1  28
TORSDOF 4
ENDMDL
MODEL 7
REMARK VINA RESULT:      -8.9      3.531      8.837
REMARK  4 active torsions:
REMARK  status: ('A' for Active; 'I' for Inactive)
REMARK    1  A    between atoms: O_1  and  C_2 
REMARK    2  A    between atoms: C_2  and  C_3 
REMARK    3  A    between atoms: N_5  and  C_17 
REMARK    4  A    between atoms: C_20  and  C_23 
ROOT
HETATM    1  C   UNL     1       8.146  25.818  56.313  1.00  0.00     0.060 C 
HETATM    2  C   UNL     1       7.728  27.196  55.796  1.00  0.00     0.141 C 
HETATM    3  N   UNL     1       6.345  27.048  55.389  1.00  0.00    -0.316 N 
HETATM    4  C   UNL     1       6.015  25.691  55.251  1.00  0.00     0.248 C 
HETATM    5  O   UNL     1       4.930  25.179  55.003  1.00  0.00    -0.271 OA
HETATM    6  C   UNL     1       7.300  24.873  55.450  1.00  0.00     0.108 A 
HETATM    7  C   UNL     1       7.942  24.595  54.064  1.00  0.00     0.076 A 
HETATM    8  C   UNL     1       8.109  23.117  54.101  1.00  0.00    -0.035 A 
HETATM    9  C   UNL     1       8.659  22.289  53.136  1.00  0.00     0.009 A 
HETATM   10  C   UNL     1       8.658  20.911  53.368  1.00  0.00     0.001 A 
HETATM   11  C   UNL     1       8.106  20.388  54.547  1.00  0.00     0.002 A 
HETATM   12  C   UNL     1       7.554  21.238  55.508  1.00  0.00     0.024 A 
HETATM   13  C   UNL     1       7.573  22.602  55.275  1.00  0.00     0.015 A 
HETATM   14  N   UNL     1       7.010  23.576  56.136  1.00  0.00    -0.274 NA
HETATM   15  H   UNL     1       5.997  23.409  56.148  1.00  0.00     0.129 HD
ENDROOT
BRANCH   3  16
HETATM   16  C   UNL     1       5.492  28.157  55.131  1.00  0.00     0.037 A 
HETATM   17  C   UNL     1       4.846  28.848  56.163  1.00  0.00     0.030 A 
HETATM   18  C   UNL     1       4.001  29.938  55.900  1.00  0.00     0.014 A 
HETATM   19  C   UNL     1       3.781  30.374  54.593  1.00  0.00    -0.023 A 
HETATM   20  C   UNL     1       4.419  29.693  53.554  1.00  0.00     0.014 A 
HETATM   21  C   UNL     1       5.254  28.596  53.820  1.00  0.00     0.030 A 
BRANCH  19  22
HETATM   22  C   UNL     1       2.922  31.510  54.311  1.00  0.00     0.010 A 
HETATM   23  C   UNL     1       2.711  32.237  53.116  1.00  0.00     0.152 A 
HETATM   24  N   UNL     1       1.818  33.221  53.259  1.00  0.00    -0.187 NA
HETATM   25  N   UNL     1       1.454  33.129  54.547  1.00  0.00    -0.289 N 
HETATM   26  H   UNL     1       0.768  33.786  54.902  1.00  0.00     0.188 HD
HETATM   27  C   UNL     1       2.084  32.121  55.220  1.00  0.00     0.123 A 
ENDBRANCH  19  22
ENDBRANCH   3  16
BRANCH   1  28
HETATM   28  C   UNL     1       7.882  25.690  57.816  1.00  0.00     0.172 C 
BRANCH  28  29
HETATM   29  O   UNL     1       8.713  24.660  58.348  1.00  0.00    -0.400 OA
HETATM   30  H   UNL     1       9.592  25.056  58.487  1.00  0.00     0.209 HD
ENDBRANCH  28  29
ENDBRANCH   1  28
TORSDOF 4
ENDMDL
MODEL 8
REMARK VINA RESULT:      -8.4      2.232      8.883
REMARK  4 active torsions:
REMARK  status: ('A' for Active; 'I' for Inactive)
REMARK    1  A    between atoms: O_1  and  C_2 
REMARK    2  A    between atoms: C_2  and  C_3 
REMARK    3  A    between atoms: N_5  and  C_17 
REMARK    4  A    between atoms: C_20  and  C_23 
ROOT
HETATM    1  C   UNL     1       5.388  25.253  54.646  1.00  0.00     0.060 C 
HETATM    2  C   UNL     1       5.217  26.212  55.825  1.00  0.00     0.141 C 
HETATM    3  N   UNL     1       6.543  26.732  56.091  1.00  0.00    -0.316 N 
HETATM    4  C   UNL     1       7.518  25.931  55.477  1.00  0.00     0.248 C 
HETATM    5  O   UNL     1       8.730  26.098  55.412  1.00  0.00    -0.271 OA
HETATM    6  C   UNL     1       6.808  24.714  54.865  1.00  0.00     0.108 A 
HETATM    7  C   UNL     1       6.850  23.541  55.882  1.00  0.00     0.076 A 
HETATM    8  C   UNL     1       7.424  22.446  55.053  1.00  0.00    -0.035 A 
HETATM    9  C   UNL     1       7.679  21.134  55.418  1.00  0.00     0.009 A 
HETATM   10  C   UNL     1       8.281  20.291  54.480  1.00  0.00     0.001 A 
HETATM   11  C   UNL     1       8.620  20.771  53.207  1.00  0.00     0.002 A 
HETATM   12  C   UNL     1       8.358  22.098  52.857  1.00  0.00     0.024 A 
HETATM   13  C   UNL     1       7.748  22.920  53.788  1.00  0.00     0.015 A 
HETATM   14  N   UNL     1       7.465  24.294  53.589  1.00  0.00    -0.274 NA
HETATM   15  H   UNL     1       8.369  24.771  53.491  1.00  0.00     0.129 HD
ENDROOT
BRANCH   3  16
HETATM   16  C   UNL     1       6.778  27.873  56.908  1.00  0.00     0.037 A 
HETATM   17  C   UNL     1       5.822  28.885  57.057  1.00  0.00     0.030 A 
HETATM   18  C   UNL     1       6.063  30.010  57.860  1.00  0.00     0.014 A 
HETATM   19  C   UNL     1       7.270  30.155  58.546  1.00  0.00    -0.023 A 
HETATM   20  C   UNL     1       8.233  29.153  58.406  1.00  0.00     0.014 A 
HETATM   21  C   UNL     1       7.992  28.034  57.593  1.00  0.00     0.030 A 
BRANCH  19  22
HETATM   22  C   UNL     1       7.523  31.307  59.392  1.00  0.00     0.010 A 
HETATM   23  C   UNL     1       6.632  32.191  60.044  1.00  0.00     0.152 A 
HETATM   24  N   UNL     1       7.262  33.132  60.753  1.00  0.00    -0.187 NA
HETATM   25  N   UNL     1       8.560  32.855  60.558  1.00  0.00    -0.289 N 
HETATM   26  H   UNL     1       9.251  33.446  61.007  1.00  0.00     0.188 HD
HETATM   27  C   UNL     1       8.770  31.772  59.753  1.00  0.00     0.123 A 
ENDBRANCH  19  22
ENDBRANCH   3  16
BRANCH   1  28
HETATM   28  C   UNL     1       5.200  25.981  53.311  1.00  0.00     0.172 C 
BRANCH  28  29
HETATM   29  O   UNL     1       3.806  26.188  53.088  1.00  0.00    -0.400 OA
HETATM   30  H   UNL     1       3.337  25.516  53.614  1.00  0.00     0.209 HD
ENDBRANCH  28  29
ENDBRANCH   1  28
TORSDOF 4
ENDMDL
MODEL 9
REMARK VINA RESULT:      -8.3      3.482      5.768
REMARK  4 active torsions:
REMARK  status: ('A' for Active; 'I' for Inactive)
REMARK    1  A    between atoms: O_1  and  C_2 
REMARK    2  A    between atoms: C_2  and  C_3 
REMARK    3  A    between atoms: N_5  and  C_17 
REMARK    4  A    between atoms: C_20  and  C_23 
ROOT
HETATM    1  C   UNL     1       4.464  28.798  54.803  1.00  0.00     0.060 C 
HETATM    2  C   UNL     1       4.620  27.314  55.140  1.00  0.00     0.141 C 
HETATM    3  N   UNL     1       5.504  26.781  54.123  1.00  0.00    -0.316 N 
HETATM    4  C   UNL     1       5.585  27.660  53.032  1.00  0.00     0.248 C 
HETATM    5  O   UNL     1       6.287  27.589  52.031  1.00  0.00    -0.271 OA
HETATM    6  C   UNL     1       4.585  28.800  53.273  1.00  0.00     0.108 A 
HETATM    7  C   UNL     1       3.245  28.454  52.568  1.00  0.00     0.076 A 
HETATM    8  C   UNL     1       3.011  29.677  51.752  1.00  0.00    -0.035 A 
HETATM    9  C   UNL     1       1.943  29.961  50.916  1.00  0.00     0.009 A 
HETATM   10  C   UNL     1       1.966  31.160  50.199  1.00  0.00     0.001 A 
HETATM   11  C   UNL     1       3.048  32.044  50.323  1.00  0.00     0.002 A 
HETATM   12  C   UNL     1       4.118  31.739  51.169  1.00  0.00     0.024 A 
HETATM   13  C   UNL     1       4.078  30.556  51.885  1.00  0.00     0.015 A 
HETATM   14  N   UNL     1       5.109  30.097  52.742  1.00  0.00    -0.274 NA
HETATM   15  H   UNL     1       5.930  29.921  52.150  1.00  0.00     0.129 HD
ENDROOT
BRANCH   3  16
HETATM   16  C   UNL     1       6.142  25.514  54.239  1.00  0.00     0.037 A 
HETATM   17  C   UNL     1       6.665  25.058  55.455  1.00  0.00     0.030 A 
HETATM   18  C   UNL     1       7.298  23.810  55.559  1.00  0.00     0.014 A 
HETATM   19  C   UNL     1       7.423  22.975  54.448  1.00  0.00    -0.023 A 
HETATM   20  C   UNL     1       6.906  23.418  53.229  1.00  0.00     0.014 A 
HETATM   21  C   UNL     1       6.283  24.672  53.125  1.00  0.00     0.030 A 
BRANCH  19  22
HETATM   22  C   UNL     1       8.061  21.675  54.549  1.00  0.00     0.010 A 
HETATM   23  C   UNL     1       8.250  20.659  53.583  1.00  0.00     0.152 A 
HETATM   24  N   UNL     1       8.906  19.600  54.066  1.00  0.00    -0.187 NA
HETATM   25  N   UNL     1       9.140  19.934  55.345  1.00  0.00    -0.289 N 
HETATM   26  H   UNL     1       9.638  19.273  55.931  1.00  0.00     0.188 HD
HETATM   27  C   UNL     1       8.656  21.165  55.683  1.00  0.00     0.123 A 
ENDBRANCH  19  22
ENDBRANCH   3  16
BRANCH   1  28
HETATM   28  C   UNL     1       5.529  29.639  55.511  1.00  0.00     0.172 C 
BRANCH  28  29
HETATM   29  O   UNL     1       6.027  28.911  56.632  1.00  0.00    -0.400 OA
HETATM   30  H   UNL     1       6.564  28.181  56.273  1.00  0.00     0.209 HD
ENDBRANCH  28  29
ENDBRANCH   1  28
TORSDOF 4
ENDMDL
MODEL 10
REMARK VINA RESULT:      -8.3      5.187      8.238
REMARK  4 active torsions:
REMARK  status: ('A' for Active; 'I' for Inactive)
REMARK    1  A    between atoms: O_1  and  C_2 
REMARK    2  A    between atoms: C_2  and  C_3 
REMARK    3  A    between atoms: N_5  and  C_17 
REMARK    4  A    between atoms: C_20  and  C_23 
ROOT
HETATM    1  C   UNL     1       4.476  34.955  61.929  1.00  0.00     0.060 C 
HETATM    2  C   UNL     1       4.913  34.337  60.600  1.00  0.00     0.141 C 
HETATM    3  N   UNL     1       4.627  32.922  60.722  1.00  0.00    -0.316 N 
HETATM    4  C   UNL     1       4.431  32.574  62.068  1.00  0.00     0.248 C 
HETATM    5  O   UNL     1       4.094  31.500  62.549  1.00  0.00    -0.271 OA
HETATM    6  C   UNL     1       4.736  33.814  62.922  1.00  0.00     0.108 A 
HETATM    7  C   UNL     1       6.216  33.754  63.387  1.00  0.00     0.076 A 
HETATM    8  C   UNL     1       6.076  33.930  64.858  1.00  0.00    -0.035 A 
HETATM    9  C   UNL     1       7.074  33.985  65.818  1.00  0.00     0.009 A 
HETATM   10  C   UNL     1       6.698  34.099  67.158  1.00  0.00     0.001 A 
HETATM   11  C   UNL     1       5.342  34.150  67.516  1.00  0.00     0.002 A 
HETATM   12  C   UNL     1       4.349  34.091  66.535  1.00  0.00     0.024 A 
HETATM   13  C   UNL     1       4.733  33.993  65.209  1.00  0.00     0.015 A 
HETATM   14  N   UNL     1       3.838  33.878  64.117  1.00  0.00    -0.274 NA
HETATM   15  H   UNL     1       3.347  32.983  64.229  1.00  0.00     0.129 HD
ENDROOT
BRANCH   3  16
HETATM   16  C   UNL     1       4.605  32.037  59.608  1.00  0.00     0.037 A 
HETATM   17  C   UNL     1       3.414  31.474  59.134  1.00  0.00     0.030 A 
HETATM   18  C   UNL     1       3.401  30.599  58.038  1.00  0.00     0.014 A 
HETATM   19  C   UNL     1       4.583  30.263  57.376  1.00  0.00    -0.023 A 
HETATM   20  C   UNL     1       5.779  30.817  57.839  1.00  0.00     0.014 A 
HETATM   21  C   UNL     1       5.789  31.684  58.943  1.00  0.00     0.030 A 
BRANCH  19  22
HETATM   22  C   UNL     1       4.580  29.371  56.231  1.00  0.00     0.010 A 
HETATM   23  C   UNL     1       4.501  29.643  54.845  1.00  0.00     0.152 A 
HETATM   24  N   UNL     1       4.542  28.537  54.096  1.00  0.00    -0.187 NA
HETATM   25  N   UNL     1       4.647  27.551  55.000  1.00  0.00    -0.289 N 
HETATM   26  H   UNL     1       4.697  26.594  54.666  1.00  0.00     0.188 HD
HETATM   27  C   UNL     1       4.676  27.996  56.291  1.00  0.00     0.123 A 
ENDBRANCH  19  22
ENDBRANCH   3  16
BRANCH   1  28
HETATM   28  C   UNL     1       3.013  35.406  61.872  1.00  0.00     0.172 C 
BRANCH  28  29
HETATM   29  O   UNL     1       2.740  36.239  62.998  1.00  0.00    -0.400 OA
HETATM   30  H   UNL     1       3.436  36.056  63.654  1.00  0.00     0.209 HD
ENDBRANCH  28  29
ENDBRANCH   1  28
TORSDOF 4
ENDMDL
