MODEL 1
REMARK VINA RESULT:      -8.5      0.000      0.000
REMARK  6 active torsions:
REMARK  status: ('A' for Active; 'I' for Inactive)
REMARK    1  A    between atoms: C_3  and  N_4 
REMARK       I    between atoms: N_4  and  C_5 
REMARK       I    between atoms: C_5  and  N_6 
REMARK    2  A    between atoms: N_6  and  C_7 
REMARK    3  A    between atoms: C_7  and  C_8 
REMARK    4  A    between atoms: C_9  and  O_10 
REMARK    5  A    between atoms: O_10  and  C_11 
REMARK    6  A    between atoms: C_11  and  C_12 
ROOT
HETATM    1  N   UNL     1       7.773  29.522  56.989  1.00  0.00    -0.307 N 
HETATM    2  C   UNL     1       7.770  28.150  57.143  1.00  0.00     0.321 C 
HETATM    3  N   UNL     1       7.330  27.549  55.985  1.00  0.00    -0.339 N 
HETATM    4  O   UNL     1       8.033  27.532  58.165  1.00  0.00    -0.247 OA
HETATM    5  H   UNL     1       7.016  29.826  56.395  1.00  0.00     0.170 HD
HETATM    6  H   UNL     1       7.612  27.998  55.125  1.00  0.00     0.164 HD
ENDROOT
BRANCH   3   7
HETATM    7  C   UNL     1       7.183  26.115  55.897  1.00  0.00     0.165 C 
BRANCH   7   8
HETATM    8  C   UNL     1       7.286  25.604  54.480  1.00  0.00    -0.007 A 
HETATM    9  C   UNL     1       7.924  24.385  54.181  1.00  0.00     0.076 A 
HETATM   10  C   UNL     1       8.052  23.983  52.849  1.00  0.00     0.037 A 
HETATM   11  C   UNL     1       7.539  24.774  51.817  1.00  0.00     0.003 A 
HETATM   12  C   UNL     1       6.887  25.967  52.109  1.00  0.00     0.001 A 
HETATM   13  C   UNL     1       6.759  26.380  53.433  1.00  0.00     0.011 A 
BRANCH   9  14
HETATM   14  O   UNL     1       8.357  23.659  55.262  1.00  0.00    -0.350 OA
BRANCH  14  15
HETATM   15  C   UNL     1       8.990  22.403  55.005  1.00  0.00     0.179 C 
BRANCH  15  16
HETATM   16  C   UNL     1       7.915  21.307  55.032  1.00  0.00     0.002 C 
HETATM   17  C   UNL     1       7.903  20.523  53.717  1.00  0.00     0.011 C 
HETATM   18  C   UNL     1       8.144  20.361  56.209  1.00  0.00     0.011 C 
ENDBRANCH  15  16
ENDBRANCH  14  15
ENDBRANCH   9  14
ENDBRANCH   7   8
ENDBRANCH   3   7
BRANCH   1  19
HETATM   19  C   UNL     1       8.188  30.436  57.985  1.00  0.00     0.059 A 
HETATM   20  C   UNL     1       9.514  30.830  58.214  1.00  0.00    -0.032 A 
HETATM   21  C   UNL     1      10.682  30.384  57.380  1.00  0.00     0.050 C 
HETATM   22  C   UNL     1       9.768  31.721  59.270  1.00  0.00     0.028 A 
HETATM   23  C   UNL     1       8.709  32.224  60.010  1.00  0.00     0.117 A 
HETATM   24  N   UNL     1       7.421  31.916  59.772  1.00  0.00    -0.271 NA
HETATM   25  C   UNL     1       7.197  31.035  58.769  1.00  0.00     0.146 A 
ENDBRANCH   1  19
TORSDOF 6
ENDMDL
MODEL 2
REMARK VINA RESULT:      -8.4      1.349      3.385
REMARK  6 active torsions:
REMARK  status: ('A' for Active; 'I' for Inactive)
REMARK    1  A    between atoms: C_3  and  N_4 
REMARK       I    between atoms: N_4  and  C_5 
REMARK       I    between atoms: C_5  and  N_6 
REMARK    2  A    between atoms: N_6  and  C_7 
REMARK    3  A    between atoms: C_7  and  C_8 
REMARK    4  A    between atoms: C_9  and  O_10 
REMARK    5  A    between atoms: O_10  and  C_11 
REMARK    6  A    between atoms: C_11  and  C_12 
ROOT
HETATM    1  N   UNL     1       8.131  28.300  56.578  1.00  0.00    -0.307 N 
HETATM    2  C   UNL     1       7.821  27.043  57.060  1.00  0.00     0.321 C 
HETATM    3  N   UNL     1       7.544  26.194  56.013  1.00  0.00    -0.339 N 
HETATM    4  O   UNL     1       7.719  26.720  58.235  1.00  0.00    -0.247 OA
HETATM    5  H   UNL     1       7.603  28.512  55.744  1.00  0.00     0.170 HD
HETATM    6  H   UNL     1       8.096  26.334  55.178  1.00  0.00     0.164 HD
ENDROOT
BRANCH   3   7
HETATM    7  C   UNL     1       7.139  24.827  56.246  1.00  0.00     0.165 C 
BRANCH   7   8
HETATM    8  C   UNL     1       7.791  23.855  55.293  1.00  0.00    -0.007 A 
HETATM    9  C   UNL     1       7.463  23.833  53.923  1.00  0.00     0.076 A 
HETATM   10  C   UNL     1       8.045  22.873  53.090  1.00  0.00     0.037 A 
HETATM   11  C   UNL     1       8.958  21.948  53.605  1.00  0.00     0.003 A 
HETATM   12  C   UNL     1       9.303  21.982  54.951  1.00  0.00     0.001 A 
HETATM   13  C   UNL     1       8.725  22.930  55.791  1.00  0.00     0.011 A 
BRANCH   9  14
HETATM   14  O   UNL     1       6.591  24.807  53.505  1.00  0.00    -0.350 OA
BRANCH  14  15
HETATM   15  C   UNL     1       6.966  25.586  52.367  1.00  0.00     0.179 C 
BRANCH  15  16
HETATM   16  C   UNL     1       5.794  26.511  52.009  1.00  0.00     0.002 C 
HETATM   17  C   UNL     1       5.139  26.078  50.694  1.00  0.00     0.011 C 
HETATM   18  C   UNL     1       4.761  26.528  53.134  1.00  0.00     0.011 C 
ENDBRANCH  15  16
ENDBRANCH  14  15
ENDBRANCH   9  14
ENDBRANCH   7   8
ENDBRANCH   3   7
BRANCH   1  19
HETATM   19  C   UNL     1       8.483  29.402  57.391  1.00  0.00     0.059 A 
HETATM   20  C   UNL     1       9.777  29.926  57.520  1.00  0.00    -0.032 A 
HETATM   21  C   UNL     1      10.969  29.427  56.754  1.00  0.00     0.050 C 
HETATM   22  C   UNL     1       9.971  31.004  58.399  1.00  0.00     0.028 A 
HETATM   23  C   UNL     1       8.882  31.551  59.061  1.00  0.00     0.117 A 
HETATM   24  N   UNL     1       7.619  31.112  58.907  1.00  0.00    -0.271 NA
HETATM   25  C   UNL     1       7.455  30.056  58.077  1.00  0.00     0.146 A 
ENDBRANCH   1  19
TORSDOF 6
ENDMDL
MODEL 3
REMARK VINA RESULT:      -8.3      5.190     11.087
REMARK  6 active torsions:
REMARK  status: ('A' for Active; 'I' for Inactive)
REMARK    1  A    between atoms: C_3  and  N_4 
REMARK       I    between atoms: N_4  and  C_5 
REMARK       I    between atoms: C_5  and  N_6 
REMARK    2  A    between atoms: N_6  and  C_7 
REMARK    3  A    between atoms: C_7  and  C_8 
REMARK    4  A    between atoms: C_9  and  O_10 
REMARK    5  A    between atoms: O_10  and  C_11 
REMARK    6  A    between atoms: C_11  and  C_12 
ROOT
HETATM    1  N   UNL     1       8.034  30.454  59.901  1.00  0.00    -0.307 N 
HETATM    2  C   UNL     1       7.227  31.559  60.086  1.00  0.00     0.321 C 
HETATM    3  N   UNL     1       6.590  31.476  61.304  1.00  0.00    -0.339 N 
HETATM    4  O   UNL     1       7.023  32.453  59.279  1.00  0.00    -0.247 OA
HETATM    5  H   UNL     1       7.628  29.630  60.323  1.00  0.00     0.170 HD
HETATM    6  H   UNL     1       7.130  31.067  62.054  1.00  0.00     0.164 HD
ENDROOT
BRANCH   3   7
HETATM    7  C   UNL     1       5.645  32.485  61.723  1.00  0.00     0.165 C 
BRANCH   7   8
HETATM    8  C   UNL     1       5.879  32.952  63.139  1.00  0.00    -0.007 A 
HETATM    9  C   UNL     1       4.813  33.344  63.972  1.00  0.00     0.076 A 
HETATM   10  C   UNL     1       5.083  33.830  65.255  1.00  0.00     0.037 A 
HETATM   11  C   UNL     1       6.399  33.915  65.718  1.00  0.00     0.003 A 
HETATM   12  C   UNL     1       7.453  33.507  64.908  1.00  0.00     0.001 A 
HETATM   13  C   UNL     1       7.196  33.026  63.626  1.00  0.00     0.011 A 
BRANCH   9  14
HETATM   14  O   UNL     1       3.556  33.184  63.445  1.00  0.00    -0.350 OA
BRANCH  14  15
HETATM   15  C   UNL     1       2.703  34.330  63.411  1.00  0.00     0.179 C 
BRANCH  15  16
HETATM   16  C   UNL     1       3.281  35.331  62.400  1.00  0.00     0.002 C 
HETATM   17  C   UNL     1       2.399  35.415  61.150  1.00  0.00     0.011 C 
HETATM   18  C   UNL     1       3.427  36.711  63.037  1.00  0.00     0.011 C 
ENDBRANCH  15  16
ENDBRANCH  14  15
ENDBRANCH   9  14
ENDBRANCH   7   8
ENDBRANCH   3   7
BRANCH   1  19
HETATM   19  C   UNL     1       8.841  30.236  58.762  1.00  0.00     0.059 A 
HETATM   20  C   UNL     1       8.622  29.241  57.798  1.00  0.00    -0.032 A 
HETATM   21  C   UNL     1       7.449  28.303  57.807  1.00  0.00     0.050 C 
HETATM   22  C   UNL     1       9.540  29.130  56.740  1.00  0.00     0.028 A 
HETATM   23  C   UNL     1      10.588  30.032  56.646  1.00  0.00     0.117 A 
HETATM   24  N   UNL     1      10.787  31.038  57.519  1.00  0.00    -0.271 NA
HETATM   25  C   UNL     1       9.909  31.113  58.547  1.00  0.00     0.146 A 
ENDBRANCH   1  19
TORSDOF 6
ENDMDL
MODEL 4
REMARK VINA RESULT:      -8.3      3.197      5.364
REMARK  6 active torsions:
REMARK  status: ('A' for Active; 'I' for Inactive)
REMARK    1  A    between atoms: C_3  and  N_4 
REMARK       I    between atoms: N_4  and  C_5 
REMARK       I    between atoms: C_5  and  N_6 
REMARK    2  A    between atoms: N_6  and  C_7 
REMARK    3  A    between atoms: C_7  and  C_8 
REMARK    4  A    between atoms: C_9  and  O_10 
REMARK    5  A    between atoms: O_10  and  C_11 
REMARK    6  A    between atoms: C_11  and  C_12 
ROOT
HETATM    1  N   UNL     1       4.853  26.602  54.139  1.00  0.00    -0.307 N 
HETATM    2  C   UNL     1       6.143  26.273  53.774  1.00  0.00     0.321 C 
HETATM    3  N   UNL     1       6.235  24.918  53.548  1.00  0.00    -0.339 N 
HETATM    4  O   UNL     1       7.101  27.031  53.727  1.00  0.00    -0.247 OA
HETATM    5  H   UNL     1       4.425  25.863  54.678  1.00  0.00     0.170 HD
HETATM    6  H   UNL     1       5.425  24.489  53.123  1.00  0.00     0.164 HD
ENDROOT
BRANCH   3   7
HETATM    7  C   UNL     1       7.496  24.303  53.201  1.00  0.00     0.165 C 
BRANCH   7   8
HETATM    8  C   UNL     1       7.649  22.918  53.782  1.00  0.00    -0.007 A 
HETATM    9  C   UNL     1       7.551  22.686  55.168  1.00  0.00     0.076 A 
HETATM   10  C   UNL     1       7.764  21.398  55.668  1.00  0.00     0.037 A 
HETATM   11  C   UNL     1       8.057  20.341  54.801  1.00  0.00     0.003 A 
HETATM   12  C   UNL     1       8.131  20.561  53.430  1.00  0.00     0.001 A 
HETATM   13  C   UNL     1       7.926  21.842  52.922  1.00  0.00     0.011 A 
BRANCH   9  14
HETATM   14  O   UNL     1       7.218  23.776  55.932  1.00  0.00    -0.350 OA
BRANCH  14  15
HETATM   15  C   UNL     1       8.254  24.380  56.710  1.00  0.00     0.179 C 
BRANCH  15  16
HETATM   16  C   UNL     1       7.635  25.520  57.534  1.00  0.00     0.002 C 
HETATM   17  C   UNL     1       8.228  26.871  57.124  1.00  0.00     0.011 C 
HETATM   18  C   UNL     1       6.117  25.537  57.370  1.00  0.00     0.011 C 
ENDBRANCH  15  16
ENDBRANCH  14  15
ENDBRANCH   9  14
ENDBRANCH   7   8
ENDBRANCH   3   7
BRANCH   1  19
HETATM   19  C   UNL     1       4.414  27.915  54.424  1.00  0.00     0.059 A 
HETATM   20  C   UNL     1       3.944  28.832  53.472  1.00  0.00    -0.032 A 
HETATM   21  C   UNL     1       3.776  28.518  52.012  1.00  0.00     0.050 C 
HETATM   22  C   UNL     1       3.579  30.115  53.911  1.00  0.00     0.028 A 
HETATM   23  C   UNL     1       3.637  30.418  55.263  1.00  0.00     0.117 A 
HETATM   24  N   UNL     1       4.021  29.539  56.207  1.00  0.00    -0.271 NA
HETATM   25  C   UNL     1       4.395  28.316  55.764  1.00  0.00     0.146 A 
ENDBRANCH   1  19
TORSDOF 6
ENDMDL
MODEL 5
REMARK VINA RESULT:      -8.2      2.501      8.099
REMARK  6 active torsions:
REMARK  status: ('A' for Active; 'I' for Inactive)
REMARK    1  A    between atoms: C_3  and  N_4 
REMARK       I    between atoms: N_4  and  C_5 
REMARK       I    between atoms: C_5  and  N_6 
REMARK    2  A    between atoms: N_6  and  C_7 
REMARK    3  A    between atoms: C_7  and  C_8 
REMARK    4  A    between atoms: C_9  and  O_10 
REMARK    5  A    between atoms: O_10  and  C_11 
REMARK    6  A    between atoms: C_11  and  C_12 
ROOT
HETATM    1  N   UNL     1       7.011  23.406  55.670  1.00  0.00    -0.307 N 
HETATM    2  C   UNL     1       7.706  24.377  56.363  1.00  0.00     0.321 C 
HETATM    3  N   UNL     1       6.829  25.302  56.883  1.00  0.00    -0.339 N 
HETATM    4  O   UNL     1       8.921  24.477  56.451  1.00  0.00    -0.247 OA
HETATM    5  H   UNL     1       6.193  23.792  55.220  1.00  0.00     0.170 HD
HETATM    6  H   UNL     1       5.945  24.933  57.206  1.00  0.00     0.164 HD
ENDROOT
BRANCH   3   7
HETATM    7  C   UNL     1       7.303  26.455  57.613  1.00  0.00     0.165 C 
BRANCH   7   8
HETATM    8  C   UNL     1       6.507  27.702  57.315  1.00  0.00    -0.007 A 
HETATM    9  C   UNL     1       6.907  28.964  57.796  1.00  0.00     0.076 A 
HETATM   10  C   UNL     1       6.105  30.082  57.549  1.00  0.00     0.037 A 
HETATM   11  C   UNL     1       4.920  29.956  56.818  1.00  0.00     0.003 A 
HETATM   12  C   UNL     1       4.534  28.716  56.321  1.00  0.00     0.001 A 
HETATM   13  C   UNL     1       5.323  27.595  56.566  1.00  0.00     0.011 A 
BRANCH   9  14
HETATM   14  O   UNL     1       8.105  28.993  58.465  1.00  0.00    -0.350 OA
BRANCH  14  15
HETATM   15  C   UNL     1       9.083  29.940  58.029  1.00  0.00     0.179 C 
BRANCH  15  16
HETATM   16  C   UNL     1      10.037  29.233  57.054  1.00  0.00     0.002 C 
HETATM   17  C   UNL     1       9.571  29.416  55.607  1.00  0.00     0.011 C 
HETATM   18  C   UNL     1      11.461  29.759  57.222  1.00  0.00     0.011 C 
ENDBRANCH  15  16
ENDBRANCH  14  15
ENDBRANCH   9  14
ENDBRANCH   7   8
ENDBRANCH   3   7
BRANCH   1  19
HETATM   19  C   UNL     1       7.611  22.299  55.028  1.00  0.00     0.059 A 
HETATM   20  C   UNL     1       7.970  22.252  53.673  1.00  0.00    -0.032 A 
HETATM   21  C   UNL     1       7.826  23.406  52.723  1.00  0.00     0.050 C 
HETATM   22  C   UNL     1       8.525  21.061  53.176  1.00  0.00     0.028 A 
HETATM   23  C   UNL     1       8.754  20.000  54.039  1.00  0.00     0.117 A 
HETATM   24  N   UNL     1       8.481  20.039  55.356  1.00  0.00    -0.271 NA
HETATM   25  C   UNL     1       7.922  21.184  55.813  1.00  0.00     0.146 A 
ENDBRANCH   1  19
TORSDOF 6
ENDMDL
MODEL 6
REMARK VINA RESULT:      -8.1      4.351      8.330
REMARK  6 active torsions:
REMARK  status: ('A' for Active; 'I' for Inactive)
REMARK    1  A    between atoms: C_3  and  N_4 
REMARK       I    between atoms: N_4  and  C_5 
REMARK       I    between atoms: C_5  and  N_6 
REMARK    2  A    between atoms: N_6  and  C_7 
REMARK    3  A    between atoms: C_7  and  C_8 
REMARK    4  A    between atoms: C_9  and  O_10 
REMARK    5  A    between atoms: O_10  and  C_11 
REMARK    6  A    between atoms: C_11  and  C_12 
ROOT
HETATM    1  N   UNL     1       5.251  26.329  49.490  1.00  0.00    -0.307 N 
HETATM    2  C   UNL     1       5.371  26.569  50.844  1.00  0.00     0.321 C 
HETATM    3  N   UNL     1       6.451  25.880  51.349  1.00  0.00    -0.339 N 
HETATM    4  O   UNL     1       4.605  27.223  51.537  1.00  0.00    -0.247 OA
HETATM    5  H   UNL     1       5.537  25.388  49.258  1.00  0.00     0.170 HD
HETATM    6  H   UNL     1       7.252  25.812  50.737  1.00  0.00     0.164 HD
ENDROOT
BRANCH   3   7
HETATM    7  C   UNL     1       6.770  25.918  52.757  1.00  0.00     0.165 C 
BRANCH   7   8
HETATM    8  C   UNL     1       7.100  24.556  53.318  1.00  0.00    -0.007 A 
HETATM    9  C   UNL     1       6.789  24.211  54.647  1.00  0.00     0.076 A 
HETATM   10  C   UNL     1       7.171  22.961  55.143  1.00  0.00     0.037 A 
HETATM   11  C   UNL     1       7.845  22.051  54.324  1.00  0.00     0.003 A 
HETATM   12  C   UNL     1       8.134  22.378  53.004  1.00  0.00     0.001 A 
HETATM   13  C   UNL     1       7.762  23.623  52.502  1.00  0.00     0.011 A 
BRANCH   9  14
HETATM   14  O   UNL     1       6.089  25.154  55.358  1.00  0.00    -0.350 OA
BRANCH  14  15
HETATM   15  C   UNL     1       6.108  25.055  56.784  1.00  0.00     0.179 C 
BRANCH  15  16
HETATM   16  C   UNL     1       7.107  26.089  57.324  1.00  0.00     0.002 C 
HETATM   17  C   UNL     1       8.501  25.473  57.476  1.00  0.00     0.011 C 
HETATM   18  C   UNL     1       7.165  27.309  56.407  1.00  0.00     0.011 C 
ENDBRANCH  15  16
ENDBRANCH  14  15
ENDBRANCH   9  14
ENDBRANCH   7   8
ENDBRANCH   3   7
BRANCH   1  19
HETATM   19  C   UNL     1       4.255  26.899  48.663  1.00  0.00     0.059 A 
HETATM   20  C   UNL     1       3.254  26.178  47.996  1.00  0.00    -0.032 A 
HETATM   21  C   UNL     1       3.056  24.695  48.123  1.00  0.00     0.050 C 
HETATM   22  C   UNL     1       2.359  26.889  47.180  1.00  0.00     0.028 A 
HETATM   23  C   UNL     1       2.452  28.271  47.103  1.00  0.00     0.117 A 
HETATM   24  N   UNL     1       3.360  28.995  47.782  1.00  0.00    -0.271 NA
HETATM   25  C   UNL     1       4.232  28.292  48.543  1.00  0.00     0.146 A 
ENDBRANCH   1  19
TORSDOF 6
ENDMDL
MODEL 7
REMARK VINA RESULT:      -8.0      4.440      6.868
REMARK  6 active torsions:
REMARK  status: ('A' for Active; 'I' for Inactive)
REMARK    1  A    between atoms: C_3  and  N_4 
REMARK       I    between atoms: N_4  and  C_5 
REMARK       I    between atoms: C_5  and  N_6 
REMARK    2  A    between atoms: N_6  and  C_7 
REMARK    3  A    between atoms: C_7  and  C_8 
REMARK    4  A    between atoms: C_9  and  O_10 
REMARK    5  A    between atoms: O_10  and  C_11 
REMARK    6  A    between atoms: C_11  and  C_12 
ROOT
HETATM    1  N   UNL     1       4.754  26.718  51.615  1.00  0.00    -0.307 N 
HETATM    2  C   UNL     1       5.692  25.754  51.924  1.00  0.00     0.321 C 
HETATM    3  N   UNL     1       5.296  25.055  53.042  1.00  0.00    -0.339 N 
HETATM    4  O   UNL     1       6.762  25.575  51.362  1.00  0.00    -0.247 OA
HETATM    5  H   UNL     1       4.326  27.094  52.450  1.00  0.00     0.170 HD
HETATM    6  H   UNL     1       4.303  24.892  53.127  1.00  0.00     0.164 HD
ENDROOT
BRANCH   3   7
HETATM    7  C   UNL     1       6.128  24.019  53.610  1.00  0.00     0.165 C 
BRANCH   7   8
HETATM    8  C   UNL     1       6.785  24.439  54.902  1.00  0.00    -0.007 A 
HETATM    9  C   UNL     1       8.019  23.898  55.312  1.00  0.00     0.076 A 
HETATM   10  C   UNL     1       8.558  24.269  56.547  1.00  0.00     0.037 A 
HETATM   11  C   UNL     1       7.889  25.183  57.367  1.00  0.00     0.003 A 
HETATM   12  C   UNL     1       6.682  25.738  56.955  1.00  0.00     0.001 A 
HETATM   13  C   UNL     1       6.133  25.371  55.729  1.00  0.00     0.011 A 
BRANCH   9  14
HETATM   14  O   UNL     1       8.618  23.043  54.421  1.00  0.00    -0.350 OA
BRANCH  14  15
HETATM   15  C   UNL     1       9.408  21.979  54.956  1.00  0.00     0.179 C 
BRANCH  15  16
HETATM   16  C   UNL     1       8.658  20.658  54.724  1.00  0.00     0.002 C 
HETATM   17  C   UNL     1       7.679  20.379  55.867  1.00  0.00     0.011 C 
HETATM   18  C   UNL     1       7.918  20.691  53.389  1.00  0.00     0.011 C 
ENDBRANCH  15  16
ENDBRANCH  14  15
ENDBRANCH   9  14
ENDBRANCH   7   8
ENDBRANCH   3   7
BRANCH   1  19
HETATM   19  C   UNL     1       4.847  27.599  50.513  1.00  0.00     0.059 A 
HETATM   20  C   UNL     1       4.436  27.299  49.207  1.00  0.00    -0.032 A 
HETATM   21  C   UNL     1       3.770  26.013  48.807  1.00  0.00     0.050 C 
HETATM   22  C   UNL     1       4.630  28.270  48.211  1.00  0.00     0.028 A 
HETATM   23  C   UNL     1       5.162  29.504  48.554  1.00  0.00     0.117 A 
HETATM   24  N   UNL     1       5.505  29.845  49.810  1.00  0.00    -0.271 NA
HETATM   25  C   UNL     1       5.336  28.887  50.752  1.00  0.00     0.146 A 
ENDBRANCH   1  19
TORSDOF 6
ENDMDL
MODEL 8
REMARK VINA RESULT:      -8.0      2.349      8.472
REMARK  6 active torsions:
REMARK  status: ('A' for Active; 'I' for Inactive)
REMARK    1  A    between atoms: C_3  and  N_4 
REMARK       I    between atoms: N_4  and  C_5 
REMARK       I    between atoms: C_5  and  N_6 
REMARK    2  A    between atoms: N_6  and  C_7 
REMARK    3  A    between atoms: C_7  and  C_8 
REMARK    4  A    between atoms: C_9  and  O_10 
REMARK    5  A    between atoms: O_10  and  C_11 
REMARK    6  A    between atoms: C_11  and  C_12 
ROOT
HETATM    1  N   UNL     1       8.722  24.088  55.530  1.00  0.00    -0.307 N 
HETATM    2  C   UNL     1       7.774  24.618  56.382  1.00  0.00     0.321 C 
HETATM    3  N   UNL     1       8.198  25.840  56.854  1.00  0.00    -0.339 N 
HETATM    4  O   UNL     1       6.742  24.076  56.748  1.00  0.00    -0.247 OA
HETATM    5  H   UNL     1       9.656  24.340  55.820  1.00  0.00     0.170 HD
HETATM    6  H   UNL     1       8.714  26.408  56.197  1.00  0.00     0.164 HD
ENDROOT
BRANCH   3   7
HETATM    7  C   UNL     1       7.410  26.588  57.807  1.00  0.00     0.165 C 
BRANCH   7   8
HETATM    8  C   UNL     1       6.898  27.892  57.246  1.00  0.00    -0.007 A 
HETATM    9  C   UNL     1       7.274  29.131  57.801  1.00  0.00     0.076 A 
HETATM   10  C   UNL     1       6.724  30.310  57.289  1.00  0.00     0.037 A 
HETATM   11  C   UNL     1       5.819  30.267  56.225  1.00  0.00     0.003 A 
HETATM   12  C   UNL     1       5.464  29.047  55.658  1.00  0.00     0.001 A 
HETATM   13  C   UNL     1       6.001  27.866  56.164  1.00  0.00     0.011 A 
BRANCH   9  14
HETATM   14  O   UNL     1       8.198  29.074  58.813  1.00  0.00    -0.350 OA
BRANCH  14  15
HETATM   15  C   UNL     1       8.947  30.259  59.093  1.00  0.00     0.179 C 
BRANCH  15  16
HETATM   16  C   UNL     1       8.415  30.867  60.399  1.00  0.00     0.002 C 
HETATM   17  C   UNL     1       9.372  30.584  61.561  1.00  0.00     0.011 C 
HETATM   18  C   UNL     1       8.203  32.372  60.243  1.00  0.00     0.011 C 
ENDBRANCH  15  16
ENDBRANCH  14  15
ENDBRANCH   9  14
ENDBRANCH   7   8
ENDBRANCH   3   7
BRANCH   1  19
HETATM   19  C   UNL     1       8.590  22.851  54.859  1.00  0.00     0.059 A 
HETATM   20  C   UNL     1       8.137  22.695  53.541  1.00  0.00    -0.032 A 
HETATM   21  C   UNL     1       7.791  23.836  52.628  1.00  0.00     0.050 C 
HETATM   22  C   UNL     1       8.026  21.391  53.029  1.00  0.00     0.028 A 
HETATM   23  C   UNL     1       8.417  20.314  53.810  1.00  0.00     0.117 A 
HETATM   24  N   UNL     1       8.917  20.437  55.053  1.00  0.00    -0.271 NA
HETATM   25  C   UNL     1       8.992  21.698  55.541  1.00  0.00     0.146 A 
ENDBRANCH   1  19
TORSDOF 6
ENDMDL
MODEL 9
REMARK VINA RESULT:      -8.0      2.449      7.774
REMARK  6 active torsions:
REMARK  status: ('A' for Active; 'I' for Inactive)
REMARK    1  A    between atoms: C_3  and  N_4 
REMARK       I    between atoms: N_4  and  C_5 
REMARK       I    between atoms: C_5  and  N_6 
REMARK    2  A    between atoms: N_6  and  C_7 
REMARK    3  A    between atoms: C_7  and  C_8 
REMARK    4  A    between atoms: C_9  and  O_10 
REMARK    5  A    between atoms: O_10  and  C_11 
REMARK    6  A    between atoms: C_11  and  C_12 
ROOT
HETATM    1  N   UNL     1       8.210  24.399  55.055  1.00  0.00    -0.307 N 
HETATM    2  C   UNL     1       7.147  25.144  54.584  1.00  0.00     0.321 C 
HETATM    3  N   UNL     1       7.546  26.442  54.360  1.00  0.00    -0.339 N 
HETATM    4  O   UNL     1       5.993  24.761  54.453  1.00  0.00    -0.247 OA
HETATM    5  H   UNL     1       8.821  24.958  55.633  1.00  0.00     0.170 HD
HETATM    6  H   UNL     1       8.486  26.557  54.008  1.00  0.00     0.164 HD
ENDROOT
BRANCH   3   7
HETATM    7  C   UNL     1       6.608  27.446  53.912  1.00  0.00     0.165 C 
BRANCH   7   8
HETATM    8  C   UNL     1       5.989  28.217  55.052  1.00  0.00    -0.007 A 
HETATM    9  C   UNL     1       6.781  28.872  56.015  1.00  0.00     0.076 A 
HETATM   10  C   UNL     1       6.165  29.520  57.089  1.00  0.00     0.037 A 
HETATM   11  C   UNL     1       4.772  29.533  57.205  1.00  0.00     0.003 A 
HETATM   12  C   UNL     1       3.985  28.908  56.244  1.00  0.00     0.001 A 
HETATM   13  C   UNL     1       4.589  28.255  55.172  1.00  0.00     0.011 A 
BRANCH   9  14
HETATM   14  O   UNL     1       8.135  28.840  55.793  1.00  0.00    -0.350 OA
BRANCH  14  15
HETATM   15  C   UNL     1       8.985  28.627  56.922  1.00  0.00     0.179 C 
BRANCH  15  16
HETATM   16  C   UNL     1       9.776  29.918  57.180  1.00  0.00     0.002 C 
HETATM   17  C   UNL     1       9.447  30.492  58.561  1.00  0.00     0.011 C 
HETATM   18  C   UNL     1      11.276  29.660  57.058  1.00  0.00     0.011 C 
ENDBRANCH  15  16
ENDBRANCH  14  15
ENDBRANCH   9  14
ENDBRANCH   7   8
ENDBRANCH   3   7
BRANCH   1  19
HETATM   19  C   UNL     1       8.144  23.022  55.367  1.00  0.00     0.059 A 
HETATM   20  C   UNL     1       7.963  21.992  54.433  1.00  0.00    -0.032 A 
HETATM   21  C   UNL     1       7.882  22.207  52.948  1.00  0.00     0.050 C 
HETATM   22  C   UNL     1       7.881  20.673  54.908  1.00  0.00     0.028 A 
HETATM   23  C   UNL     1       8.038  20.423  56.263  1.00  0.00     0.117 A 
HETATM   24  N   UNL     1       8.277  21.383  57.175  1.00  0.00    -0.271 NA
HETATM   25  C   UNL     1       8.326  22.651  56.703  1.00  0.00     0.146 A 
ENDBRANCH   1  19
TORSDOF 6
ENDMDL
MODEL 10
REMARK VINA RESULT:      -7.8      5.118     10.135
REMARK  6 active torsions:
REMARK  status: ('A' for Active; 'I' for Inactive)
REMARK    1  A    between atoms: C_3  and  N_4 
REMARK       I    between atoms: N_4  and  C_5 
REMARK       I    between atoms: C_5  and  N_6 
REMARK    2  A    between atoms: N_6  and  C_7 
REMARK    3  A    between atoms: C_7  and  C_8 
REMARK    4  A    between atoms: C_9  and  O_10 
REMARK    5  A    between atoms: O_10  and  C_11 
REMARK    6  A    between atoms: C_11  and  C_12 
ROOT
HETATM    1  N   UNL     1       7.456  30.852  59.498  1.00  0.00    -0.307 N 
HETATM    2  C   UNL     1       6.410  31.669  59.119  1.00  0.00     0.321 C 
HETATM    3  N   UNL     1       5.493  31.761  60.142  1.00  0.00    -0.339 N 
HETATM    4  O   UNL     1       6.250  32.183  58.022  1.00  0.00    -0.247 OA
HETATM    5  H   UNL     1       7.139  30.107  60.102  1.00  0.00     0.170 HD
HETATM    6  H   UNL     1       5.878  31.771  61.076  1.00  0.00     0.164 HD
ENDROOT
BRANCH   3   7
HETATM    7  C   UNL     1       4.273  32.519  59.985  1.00  0.00     0.165 C 
BRANCH   7   8
HETATM    8  C   UNL     1       4.409  33.948  60.450  1.00  0.00    -0.007 A 
HETATM    9  C   UNL     1       4.845  34.260  61.753  1.00  0.00     0.076 A 
HETATM   10  C   UNL     1       4.895  35.597  62.161  1.00  0.00     0.037 A 
HETATM   11  C   UNL     1       4.530  36.621  61.282  1.00  0.00     0.003 A 
HETATM   12  C   UNL     1       4.122  36.318  59.987  1.00  0.00     0.001 A 
HETATM   13  C   UNL     1       4.063  34.990  59.572  1.00  0.00     0.011 A 
BRANCH   9  14
HETATM   14  O   UNL     1       5.221  33.192  62.527  1.00  0.00    -0.350 OA
BRANCH  14  15
HETATM   15  C   UNL     1       5.370  33.412  63.931  1.00  0.00     0.179 C 
BRANCH  15  16
HETATM   16  C   UNL     1       6.782  32.968  64.341  1.00  0.00     0.002 C 
HETATM   17  C   UNL     1       7.664  32.749  63.109  1.00  0.00     0.011 C 
HETATM   18  C   UNL     1       7.419  33.998  65.271  1.00  0.00     0.011 C 
ENDBRANCH  15  16
ENDBRANCH  14  15
ENDBRANCH   9  14
ENDBRANCH   7   8
ENDBRANCH   3   7
BRANCH   1  19
HETATM   19  C   UNL     1       8.577  30.561  58.686  1.00  0.00     0.059 A 
HETATM   20  C   UNL     1       8.713  29.420  57.883  1.00  0.00    -0.032 A 
HETATM   21  C   UNL     1       7.649  28.372  57.719  1.00  0.00     0.050 C 
HETATM   22  C   UNL     1       9.908  29.257  57.161  1.00  0.00     0.028 A 
HETATM   23  C   UNL     1      10.880  30.243  57.217  1.00  0.00     0.117 A 
HETATM   24  N   UNL     1      10.751  31.379  57.927  1.00  0.00    -0.271 NA
HETATM   25  C   UNL     1       9.605  31.507  58.637  1.00  0.00     0.146 A 
ENDBRANCH   1  19
TORSDOF 6
ENDMDL
