MODEL 1
REMARK VINA RESULT:      -9.3      0.000      0.000
REMARK  10 active torsions:
REMARK  status: ('A' for Active; 'I' for Inactive)
REMARK    1  A    between atoms: C_2  and  C_3 
REMARK    2  A    between atoms: C_3  and  C_4 
REMARK    3  A    between atoms: N_7  and  C_9 
REMARK    4  A    between atoms: C_9  and  C_10 
REMARK    5  A    between atoms: C_11  and  O_12 
REMARK    6  A    between atoms: C_13  and  O_14 
REMARK    7  A    between atoms: O_14  and  C_15 
REMARK    8  A    between atoms: N_25  and  C_26 
REMARK    9  A    between atoms: C_26  and  C_27 
REMARK   10  A    between atoms: C_27  and  C_28 
ROOT
HETATM    1  C   UNL     1       6.193  28.108  53.619  1.00  0.00     0.026 C 
HETATM    2  C   UNL     1       7.643  28.437  54.030  1.00  0.00     0.035 C 
HETATM    3  C   UNL     1       7.869  28.516  55.531  1.00  0.00     0.235 C 
HETATM    4  N   UNL     1       6.879  29.433  56.189  1.00  0.00    -0.067 N 
HETATM    5  H   UNL     1       7.171  30.404  55.976  1.00  0.00     0.280 HD
HETATM    6  C   UNL     1       5.445  29.295  55.770  1.00  0.00     0.235 C 
HETATM    7  C   UNL     1       5.296  29.181  54.258  1.00  0.00     0.035 C 
ENDROOT
BRANCH   1   8
HETATM    8  C   UNL     1       5.727  26.625  53.848  1.00  0.00     0.119 A 
HETATM    9  N   UNL     1       5.229  26.390  55.183  1.00  0.00    -0.324 N 
HETATM   10  C   UNL     1       5.973  25.447  55.861  1.00  0.00     0.326 A 
HETATM   11  H   UNL     1       4.258  26.469  55.464  1.00  0.00     0.165 HD
HETATM   12  O   UNL     1       5.670  25.088  56.983  1.00  0.00    -0.247 OA
HETATM   13  N   UNL     1       7.030  25.080  55.092  1.00  0.00    -0.268 N 
HETATM   14  C   UNL     1       6.958  25.695  53.869  1.00  0.00     0.256 A 
HETATM   15  O   UNL     1       7.755  25.577  52.949  1.00  0.00    -0.270 OA
BRANCH   8  16
HETATM   16  C   UNL     1       4.714  26.157  52.780  1.00  0.00     0.037 C 
HETATM   17  C   UNL     1       4.644  24.646  52.564  1.00  0.00     0.008 C 
ENDBRANCH   8  16
BRANCH  13  18
HETATM   18  C   UNL     1       8.139  24.204  55.452  1.00  0.00     0.142 C 
BRANCH  18  19
HETATM   19  C   UNL     1       7.776  22.798  55.933  1.00  0.00     0.068 C 
BRANCH  19  20
HETATM   20  C   UNL     1       8.122  21.766  54.903  1.00  0.00     0.010 A 
HETATM   21  S   UNL     1       7.678  21.991  53.258  1.00  0.00    -0.085 SA
HETATM   22  C   UNL     1       8.396  20.487  52.872  1.00  0.00     0.166 A 
HETATM   23  N   UNL     1       8.934  19.834  53.877  1.00  0.00    -0.258 NA
HETATM   24  C   UNL     1       8.791  20.561  55.046  1.00  0.00     0.044 A 
HETATM   25  C   UNL     1       9.350  19.988  56.301  1.00  0.00     0.071 C 
ENDBRANCH  19  20
ENDBRANCH  18  19
ENDBRANCH  13  18
ENDBRANCH   1   8
BRANCH   4  26
HETATM   26  C   UNL     1       6.988  29.351  57.702  1.00  0.00     0.276 C 
BRANCH  26  27
HETATM   27  C   UNL     1       7.949  30.327  58.311  1.00  0.00     0.004 A 
HETATM   28  C   UNL     1       7.551  31.162  59.357  1.00  0.00     0.107 A 
HETATM   29  C   UNL     1       8.474  31.961  60.030  1.00  0.00     0.102 A 
HETATM   30  C   UNL     1       9.797  32.015  59.607  1.00  0.00     0.039 A 
HETATM   31  C   UNL     1      10.204  31.218  58.536  1.00  0.00     0.003 A 
HETATM   32  C   UNL     1       9.293  30.366  57.903  1.00  0.00     0.012 A 
BRANCH  28  33
HETATM   33  O   UNL     1       6.226  31.198  59.711  1.00  0.00    -0.357 OA
HETATM   34  H   UNL     1       5.760  31.519  58.906  1.00  0.00     0.218 HD
ENDBRANCH  28  33
BRANCH  29  35
HETATM   35  O   UNL     1       8.059  32.711  61.095  1.00  0.00    -0.349 OA
BRANCH  35  36
HETATM   36  C   UNL     1       8.496  32.121  62.332  1.00  0.00     0.171 C 
HETATM   37  C   UNL     1       7.722  32.722  63.489  1.00  0.00     0.034 C 
ENDBRANCH  35  36
ENDBRANCH  29  35
ENDBRANCH  26  27
ENDBRANCH   4  26
TORSDOF 10
ENDMDL
MODEL 2
REMARK VINA RESULT:      -9.1      1.958      2.821
REMARK  10 active torsions:
REMARK  status: ('A' for Active; 'I' for Inactive)
REMARK    1  A    between atoms: C_2  and  C_3 
REMARK    2  A    between atoms: C_3  and  C_4 
REMARK    3  A    between atoms: N_7  and  C_9 
REMARK    4  A    between atoms: C_9  and  C_10 
REMARK    5  A    between atoms: C_11  and  O_12 
REMARK    6  A    between atoms: C_13  and  O_14 
REMARK    7  A    between atoms: O_14  and  C_15 
REMARK    8  A    between atoms: N_25  and  C_26 
REMARK    9  A    between atoms: C_26  and  C_27 
REMARK   10  A    between atoms: C_27  and  C_28 
ROOT
HETATM    1  C   UNL     1       7.072  28.601  55.789  1.00  0.00     0.026 C 
HETATM    2  C   UNL     1       8.564  28.978  55.908  1.00  0.00     0.035 C 
HETATM    3  C   UNL     1       9.045  29.201  57.333  1.00  0.00     0.235 C 
HETATM    4  N   UNL     1       8.163  30.171  58.065  1.00  0.00    -0.067 N 
HETATM    5  H   UNL     1       8.391  31.118  57.715  1.00  0.00     0.280 HD
HETATM    6  C   UNL     1       6.681  29.984  57.918  1.00  0.00     0.235 C 
HETATM    7  C   UNL     1       6.276  29.725  56.473  1.00  0.00     0.035 C 
ENDROOT
BRANCH   1   8
HETATM    8  C   UNL     1       6.687  27.143  56.234  1.00  0.00     0.119 A 
HETATM    9  N   UNL     1       7.653  26.554  57.132  1.00  0.00    -0.324 N 
HETATM   10  C   UNL     1       8.227  25.415  56.608  1.00  0.00     0.326 A 
HETATM   11  H   UNL     1       7.609  26.600  58.144  1.00  0.00     0.165 HD
HETATM   12  O   UNL     1       9.029  24.759  57.247  1.00  0.00    -0.247 OA
HETATM   13  N   UNL     1       7.776  25.233  55.341  1.00  0.00    -0.268 N 
HETATM   14  C   UNL     1       6.836  26.183  55.035  1.00  0.00     0.256 A 
HETATM   15  O   UNL     1       6.238  26.298  53.976  1.00  0.00    -0.270 OA
BRANCH   8  16
HETATM   16  C   UNL     1       5.259  27.066  56.815  1.00  0.00     0.037 C 
HETATM   17  C   UNL     1       4.789  25.666  57.208  1.00  0.00     0.008 C 
ENDBRANCH   8  16
BRANCH  13  18
HETATM   18  C   UNL     1       8.205  24.231  54.372  1.00  0.00     0.142 C 
BRANCH  18  19
HETATM   19  C   UNL     1       7.284  23.025  54.178  1.00  0.00     0.068 C 
BRANCH  19  20
HETATM   20  C   UNL     1       7.921  21.768  54.688  1.00  0.00     0.010 A 
HETATM   21  S   UNL     1       8.200  21.552  56.371  1.00  0.00    -0.085 SA
HETATM   22  C   UNL     1       8.882  20.017  56.047  1.00  0.00     0.166 A 
HETATM   23  N   UNL     1       8.919  19.661  54.783  1.00  0.00    -0.258 NA
HETATM   24  C   UNL     1       8.363  20.654  53.994  1.00  0.00     0.044 A 
HETATM   25  C   UNL     1       8.303  20.430  52.524  1.00  0.00     0.071 C 
ENDBRANCH  19  20
ENDBRANCH  18  19
ENDBRANCH  13  18
ENDBRANCH   1   8
BRANCH   4  26
HETATM   26  C   UNL     1       8.534  30.235  59.538  1.00  0.00     0.276 C 
BRANCH  26  27
HETATM   27  C   UNL     1       7.769  31.253  60.329  1.00  0.00     0.004 A 
HETATM   28  C   UNL     1       7.914  31.334  61.715  1.00  0.00     0.107 A 
HETATM   29  C   UNL     1       7.328  32.372  62.439  1.00  0.00     0.102 A 
HETATM   30  C   UNL     1       6.506  33.294  61.804  1.00  0.00     0.039 A 
HETATM   31  C   UNL     1       6.315  33.204  60.425  1.00  0.00     0.003 A 
HETATM   32  C   UNL     1       6.957  32.203  59.688  1.00  0.00     0.012 A 
BRANCH  28  33
HETATM   33  O   UNL     1       8.636  30.365  62.366  1.00  0.00    -0.357 OA
HETATM   34  H   UNL     1       8.913  29.741  61.658  1.00  0.00     0.218 HD
ENDBRANCH  28  33
BRANCH  29  35
HETATM   35  O   UNL     1       7.552  32.457  63.786  1.00  0.00    -0.349 OA
BRANCH  35  36
HETATM   36  C   UNL     1       6.522  33.232  64.424  1.00  0.00     0.171 C 
HETATM   37  C   UNL     1       7.012  33.730  65.768  1.00  0.00     0.034 C 
ENDBRANCH  35  36
ENDBRANCH  29  35
ENDBRANCH  26  27
ENDBRANCH   4  26
TORSDOF 10
ENDMDL
MODEL 3
REMARK VINA RESULT:      -9.0      3.788      8.418
REMARK  10 active torsions:
REMARK  status: ('A' for Active; 'I' for Inactive)
REMARK    1  A    between atoms: C_2  and  C_3 
REMARK    2  A    between atoms: C_3  and  C_4 
REMARK    3  A    between atoms: N_7  and  C_9 
REMARK    4  A    between atoms: C_9  and  C_10 
REMARK    5  A    between atoms: C_11  and  O_12 
REMARK    6  A    between atoms: C_13  and  O_14 
REMARK    7  A    between atoms: O_14  and  C_15 
REMARK    8  A    between atoms: N_25  and  C_26 
REMARK    9  A    between atoms: C_26  and  C_27 
REMARK   10  A    between atoms: C_27  and  C_28 
ROOT
HETATM    1  C   UNL     1       4.811  27.984  54.521  1.00  0.00     0.026 C 
HETATM    2  C   UNL     1       4.113  26.947  53.615  1.00  0.00     0.035 C 
HETATM    3  C   UNL     1       4.348  27.154  52.127  1.00  0.00     0.235 C 
HETATM    4  N   UNL     1       4.033  28.562  51.711  1.00  0.00    -0.067 N 
HETATM    5  H   UNL     1       3.002  28.650  51.680  1.00  0.00     0.280 HD
HETATM    6  C   UNL     1       4.550  29.660  52.592  1.00  0.00     0.235 C 
HETATM    7  C   UNL     1       4.319  29.369  54.069  1.00  0.00     0.035 C 
ENDROOT
BRANCH   1   8
HETATM    8  C   UNL     1       6.370  27.843  54.664  1.00  0.00     0.119 A 
HETATM    9  N   UNL     1       7.020  27.489  53.424  1.00  0.00    -0.324 N 
HETATM   10  C   UNL     1       7.678  26.279  53.505  1.00  0.00     0.326 A 
HETATM   11  H   UNL     1       7.398  28.151  52.756  1.00  0.00     0.165 HD
HETATM   12  O   UNL     1       8.321  25.844  52.569  1.00  0.00    -0.247 OA
HETATM   13  N   UNL     1       7.436  25.723  54.720  1.00  0.00    -0.268 N 
HETATM   14  C   UNL     1       6.700  26.584  55.492  1.00  0.00     0.256 A 
HETATM   15  O   UNL     1       6.315  26.385  56.636  1.00  0.00    -0.270 OA
BRANCH   8  16
HETATM   16  C   UNL     1       7.015  29.094  55.300  1.00  0.00     0.037 C 
HETATM   17  C   UNL     1       8.502  28.965  55.627  1.00  0.00     0.008 C 
ENDBRANCH   8  16
BRANCH  13  18
HETATM   18  C   UNL     1       7.828  24.402  55.195  1.00  0.00     0.142 C 
BRANCH  18  19
HETATM   19  C   UNL     1       7.219  23.202  54.467  1.00  0.00     0.068 C 
BRANCH  19  20
HETATM   20  C   UNL     1       7.880  21.922  54.883  1.00  0.00     0.010 A 
HETATM   21  S   UNL     1       8.358  21.677  56.516  1.00  0.00    -0.085 SA
HETATM   22  C   UNL     1       8.954  20.130  56.095  1.00  0.00     0.166 A 
HETATM   23  N   UNL     1       8.827  19.790  54.832  1.00  0.00    -0.258 NA
HETATM   24  C   UNL     1       8.204  20.807  54.128  1.00  0.00     0.044 A 
HETATM   25  C   UNL     1       7.959  20.605  52.674  1.00  0.00     0.071 C 
ENDBRANCH  19  20
ENDBRANCH  18  19
ENDBRANCH  13  18
ENDBRANCH   1   8
BRANCH   4  26
HETATM   26  C   UNL     1       4.456  28.808  50.272  1.00  0.00     0.276 C 
BRANCH  26  27
HETATM   27  C   UNL     1       3.880  27.843  49.280  1.00  0.00     0.004 A 
HETATM   28  C   UNL     1       2.502  27.778  49.066  1.00  0.00     0.107 A 
HETATM   29  C   UNL     1       1.970  26.996  48.041  1.00  0.00     0.102 A 
HETATM   30  C   UNL     1       2.798  26.188  47.272  1.00  0.00     0.039 A 
HETATM   31  C   UNL     1       4.175  26.208  47.500  1.00  0.00     0.003 A 
HETATM   32  C   UNL     1       4.715  27.043  48.484  1.00  0.00     0.012 A 
BRANCH  28  33
HETATM   33  O   UNL     1       1.666  28.489  49.891  1.00  0.00    -0.357 OA
HETATM   34  H   UNL     1       2.012  29.410  49.864  1.00  0.00     0.218 HD
ENDBRANCH  28  33
BRANCH  29  35
HETATM   35  O   UNL     1       0.621  27.015  47.817  1.00  0.00    -0.349 OA
BRANCH  35  36
HETATM   36  C   UNL     1       0.336  27.410  46.463  1.00  0.00     0.171 C 
HETATM   37  C   UNL     1       0.123  28.909  46.400  1.00  0.00     0.034 C 
ENDBRANCH  35  36
ENDBRANCH  29  35
ENDBRANCH  26  27
ENDBRANCH   4  26
TORSDOF 10
ENDMDL
MODEL 4
REMARK VINA RESULT:      -9.0      1.589      2.167
REMARK  10 active torsions:
REMARK  status: ('A' for Active; 'I' for Inactive)
REMARK    1  A    between atoms: C_2  and  C_3 
REMARK    2  A    between atoms: C_3  and  C_4 
REMARK    3  A    between atoms: N_7  and  C_9 
REMARK    4  A    between atoms: C_9  and  C_10 
REMARK    5  A    between atoms: C_11  and  O_12 
REMARK    6  A    between atoms: C_13  and  O_14 
REMARK    7  A    between atoms: O_14  and  C_15 
REMARK    8  A    between atoms: N_25  and  C_26 
REMARK    9  A    between atoms: C_26  and  C_27 
REMARK   10  A    between atoms: C_27  and  C_28 
ROOT
HETATM    1  C   UNL     1       4.503  28.578  54.641  1.00  0.00     0.026 C 
HETATM    2  C   UNL     1       5.266  29.865  55.017  1.00  0.00     0.035 C 
HETATM    3  C   UNL     1       6.487  29.639  55.894  1.00  0.00     0.235 C 
HETATM    4  N   UNL     1       6.150  28.815  57.104  1.00  0.00    -0.067 N 
HETATM    5  H   UNL     1       5.644  29.432  57.764  1.00  0.00     0.280 HD
HETATM    6  C   UNL     1       5.296  27.602  56.881  1.00  0.00     0.235 C 
HETATM    7  C   UNL     1       4.116  27.891  55.962  1.00  0.00     0.035 C 
ENDROOT
BRANCH   1   8
HETATM    8  C   UNL     1       5.193  27.646  53.580  1.00  0.00     0.119 A 
HETATM    9  N   UNL     1       4.320  26.606  53.090  1.00  0.00    -0.324 N 
HETATM   10  C   UNL     1       4.799  25.344  53.373  1.00  0.00     0.326 A 
HETATM   11  H   UNL     1       3.733  26.680  52.267  1.00  0.00     0.165 HD
HETATM   12  O   UNL     1       4.216  24.346  52.993  1.00  0.00    -0.247 OA
HETATM   13  N   UNL     1       5.924  25.455  54.124  1.00  0.00    -0.268 N 
HETATM   14  C   UNL     1       6.260  26.775  54.276  1.00  0.00     0.256 A 
HETATM   15  O   UNL     1       7.216  27.214  54.898  1.00  0.00    -0.270 OA
BRANCH   8  16
HETATM   16  C   UNL     1       5.821  28.447  52.419  1.00  0.00     0.037 C 
HETATM   17  C   UNL     1       5.408  27.998  51.018  1.00  0.00     0.008 C 
ENDBRANCH   8  16
BRANCH  13  18
HETATM   18  C   UNL     1       6.693  24.385  54.749  1.00  0.00     0.142 C 
BRANCH  18  19
HETATM   19  C   UNL     1       7.426  23.426  53.809  1.00  0.00     0.068 C 
BRANCH  19  20
HETATM   20  C   UNL     1       7.988  22.256  54.558  1.00  0.00     0.010 A 
HETATM   21  S   UNL     1       8.323  22.375  56.239  1.00  0.00    -0.085 SA
HETATM   22  C   UNL     1       8.873  20.755  56.230  1.00  0.00     0.166 A 
HETATM   23  N   UNL     1       8.828  20.140  55.071  1.00  0.00    -0.258 NA
HETATM   24  C   UNL     1       8.314  20.988  54.104  1.00  0.00     0.044 A 
HETATM   25  C   UNL     1       8.173  20.467  52.718  1.00  0.00     0.071 C 
ENDBRANCH  19  20
ENDBRANCH  18  19
ENDBRANCH  13  18
ENDBRANCH   1   8
BRANCH   4  26
HETATM   26  C   UNL     1       7.408  28.431  57.865  1.00  0.00     0.276 C 
BRANCH  26  27
HETATM   27  C   UNL     1       8.444  29.513  57.941  1.00  0.00     0.004 A 
HETATM   28  C   UNL     1       8.265  30.612  58.782  1.00  0.00     0.107 A 
HETATM   29  C   UNL     1       9.286  31.543  58.974  1.00  0.00     0.102 A 
HETATM   30  C   UNL     1      10.471  31.444  58.255  1.00  0.00     0.039 A 
HETATM   31  C   UNL     1      10.650  30.374  57.378  1.00  0.00     0.003 A 
HETATM   32  C   UNL     1       9.652  29.404  57.234  1.00  0.00     0.012 A 
BRANCH  28  33
HETATM   33  O   UNL     1       7.058  30.778  59.414  1.00  0.00    -0.357 OA
HETATM   34  H   UNL     1       7.276  30.779  60.373  1.00  0.00     0.218 HD
ENDBRANCH  28  33
BRANCH  29  35
HETATM   35  O   UNL     1       9.099  32.567  59.861  1.00  0.00    -0.349 OA
BRANCH  35  36
HETATM   36  C   UNL     1       9.704  32.257  61.129  1.00  0.00     0.171 C 
HETATM   37  C   UNL     1       8.633  32.147  62.195  1.00  0.00     0.034 C 
ENDBRANCH  35  36
ENDBRANCH  29  35
ENDBRANCH  26  27
ENDBRANCH   4  26
TORSDOF 10
ENDMDL
MODEL 5
REMARK VINA RESULT:      -8.9      2.918      5.208
REMARK  10 active torsions:
REMARK  status: ('A' for Active; 'I' for Inactive)
REMARK    1  A    between atoms: C_2  and  C_3 
REMARK    2  A    between atoms: C_3  and  C_4 
REMARK    3  A    between atoms: N_7  and  C_9 
REMARK    4  A    between atoms: C_9  and  C_10 
REMARK    5  A    between atoms: C_11  and  O_12 
REMARK    6  A    between atoms: C_13  and  O_14 
REMARK    7  A    between atoms: O_14  and  C_15 
REMARK    8  A    between atoms: N_25  and  C_26 
REMARK    9  A    between atoms: C_26  and  C_27 
REMARK   10  A    between atoms: C_27  and  C_28 
ROOT
HETATM    1  C   UNL     1       6.389  25.668  56.472  1.00  0.00     0.026 C 
HETATM    2  C   UNL     1       5.250  26.686  56.687  1.00  0.00     0.035 C 
HETATM    3  C   UNL     1       5.693  28.140  56.663  1.00  0.00     0.235 C 
HETATM    4  N   UNL     1       6.843  28.380  57.599  1.00  0.00    -0.067 N 
HETATM    5  H   UNL     1       6.459  28.392  58.560  1.00  0.00     0.280 HD
HETATM    6  C   UNL     1       7.958  27.377  57.573  1.00  0.00     0.235 C 
HETATM    7  C   UNL     1       7.442  25.945  57.558  1.00  0.00     0.035 C 
ENDROOT
BRANCH   1   8
HETATM    8  C   UNL     1       6.952  25.556  55.009  1.00  0.00     0.119 A 
HETATM    9  N   UNL     1       7.551  26.784  54.539  1.00  0.00    -0.324 N 
HETATM   10  C   UNL     1       6.907  27.288  53.428  1.00  0.00     0.326 A 
HETATM   11  H   UNL     1       8.532  27.023  54.626  1.00  0.00     0.165 HD
HETATM   12  O   UNL     1       7.304  28.293  52.868  1.00  0.00    -0.247 OA
HETATM   13  N   UNL     1       5.824  26.518  53.155  1.00  0.00    -0.268 N 
HETATM   14  C   UNL     1       5.779  25.448  54.012  1.00  0.00     0.256 A 
HETATM   15  O   UNL     1       4.931  24.568  54.031  1.00  0.00    -0.270 OA
BRANCH   8  16
HETATM   16  C   UNL     1       7.916  24.361  54.842  1.00  0.00     0.037 C 
HETATM   17  C   UNL     1       7.972  23.760  53.439  1.00  0.00     0.008 C 
ENDBRANCH   8  16
BRANCH  13  18
HETATM   18  C   UNL     1       4.792  26.745  52.150  1.00  0.00     0.142 C 
BRANCH  18  19
HETATM   19  C   UNL     1       5.001  26.079  50.788  1.00  0.00     0.068 C 
BRANCH  19  20
HETATM   20  C   UNL     1       4.721  27.034  49.668  1.00  0.00     0.010 A 
HETATM   21  S   UNL     1       5.359  28.629  49.702  1.00  0.00    -0.085 SA
HETATM   22  C   UNL     1       4.604  28.948  48.200  1.00  0.00     0.166 A 
HETATM   23  N   UNL     1       3.913  27.957  47.683  1.00  0.00    -0.258 NA
HETATM   24  C   UNL     1       3.979  26.850  48.512  1.00  0.00     0.044 A 
HETATM   25  C   UNL     1       3.264  25.615  48.091  1.00  0.00     0.071 C 
ENDBRANCH  19  20
ENDBRANCH  18  19
ENDBRANCH  13  18
ENDBRANCH   1   8
BRANCH   4  26
HETATM   26  C   UNL     1       7.401  29.783  57.421  1.00  0.00     0.276 C 
BRANCH  26  27
HETATM   27  C   UNL     1       6.991  30.756  58.485  1.00  0.00     0.004 A 
HETATM   28  C   UNL     1       7.667  30.802  59.706  1.00  0.00     0.107 A 
HETATM   29  C   UNL     1       7.394  31.801  60.640  1.00  0.00     0.102 A 
HETATM   30  C   UNL     1       6.374  32.716  60.412  1.00  0.00     0.039 A 
HETATM   31  C   UNL     1       5.660  32.659  59.215  1.00  0.00     0.003 A 
HETATM   32  C   UNL     1       5.978  31.698  58.249  1.00  0.00     0.012 A 
BRANCH  28  33
HETATM   33  O   UNL     1       8.601  29.836  59.987  1.00  0.00    -0.357 OA
HETATM   34  H   UNL     1       8.944  30.072  60.878  1.00  0.00     0.218 HD
ENDBRANCH  28  33
BRANCH  29  35
HETATM   35  O   UNL     1       8.127  31.855  61.794  1.00  0.00    -0.349 OA
BRANCH  35  36
HETATM   36  C   UNL     1       7.262  31.927  62.942  1.00  0.00     0.171 C 
HETATM   37  C   UNL     1       7.751  33.006  63.887  1.00  0.00     0.034 C 
ENDBRANCH  35  36
ENDBRANCH  29  35
ENDBRANCH  26  27
ENDBRANCH   4  26
TORSDOF 10
ENDMDL
MODEL 6
REMARK VINA RESULT:      -8.8      3.757      9.508
REMARK  10 active torsions:
REMARK  status: ('A' for Active; 'I' for Inactive)
REMARK    1  A    between atoms: C_2  and  C_3 
REMARK    2  A    between atoms: C_3  and  C_4 
REMARK    3  A    between atoms: N_7  and  C_9 
REMARK    4  A    between atoms: C_9  and  C_10 
REMARK    5  A    between atoms: C_11  and  O_12 
REMARK    6  A    between atoms: C_13  and  O_14 
REMARK    7  A    between atoms: O_14  and  C_15 
REMARK    8  A    between atoms: N_25  and  C_26 
REMARK    9  A    between atoms: C_26  and  C_27 
REMARK   10  A    between atoms: C_27  and  C_28 
ROOT
HETATM    1  C   UNL     1       7.021  25.385  54.445  1.00  0.00     0.026 C 
HETATM    2  C   UNL     1       7.657  26.452  53.529  1.00  0.00     0.035 C 
HETATM    3  C   UNL     1       6.658  27.369  52.842  1.00  0.00     0.235 C 
HETATM    4  N   UNL     1       5.591  26.586  52.132  1.00  0.00    -0.067 N 
HETATM    5  H   UNL     1       6.014  26.205  51.267  1.00  0.00     0.280 HD
HETATM    6  C   UNL     1       4.986  25.434  52.879  1.00  0.00     0.235 C 
HETATM    7  C   UNL     1       6.040  24.582  53.574  1.00  0.00     0.035 C 
ENDROOT
BRANCH   1   8
HETATM    8  C   UNL     1       6.435  25.902  55.809  1.00  0.00     0.119 A 
HETATM    9  N   UNL     1       5.090  26.414  55.687  1.00  0.00    -0.324 N 
HETATM   10  C   UNL     1       5.005  27.748  56.030  1.00  0.00     0.326 A 
HETATM   11  H   UNL     1       4.246  25.870  55.824  1.00  0.00     0.165 HD
HETATM   12  O   UNL     1       3.939  28.334  56.033  1.00  0.00    -0.247 OA
HETATM   13  N   UNL     1       6.251  28.218  56.296  1.00  0.00    -0.268 N 
HETATM   14  C   UNL     1       7.164  27.197  56.225  1.00  0.00     0.256 A 
HETATM   15  O   UNL     1       8.369  27.287  56.409  1.00  0.00    -0.270 OA
BRANCH   8  16
HETATM   16  C   UNL     1       6.534  24.842  56.927  1.00  0.00     0.037 C 
HETATM   17  C   UNL     1       7.759  23.932  56.856  1.00  0.00     0.008 C 
ENDBRANCH   8  16
BRANCH  13  18
HETATM   18  C   UNL     1       6.649  29.591  56.580  1.00  0.00     0.142 C 
BRANCH  18  19
HETATM   19  C   UNL     1       6.471  30.074  58.021  1.00  0.00     0.068 C 
BRANCH  19  20
HETATM   20  C   UNL     1       7.669  30.844  58.487  1.00  0.00     0.010 A 
HETATM   21  S   UNL     1       9.239  30.450  57.908  1.00  0.00    -0.085 SA
HETATM   22  C   UNL     1       9.894  31.700  58.874  1.00  0.00     0.166 A 
HETATM   23  N   UNL     1       9.032  32.380  59.595  1.00  0.00    -0.258 NA
HETATM   24  C   UNL     1       7.751  31.904  59.375  1.00  0.00     0.044 A 
HETATM   25  C   UNL     1       6.626  32.558  60.097  1.00  0.00     0.071 C 
ENDBRANCH  19  20
ENDBRANCH  18  19
ENDBRANCH  13  18
ENDBRANCH   1   8
BRANCH   4  26
HETATM   26  C   UNL     1       4.495  27.505  51.620  1.00  0.00     0.276 C 
BRANCH  26  27
HETATM   27  C   UNL     1       4.611  27.864  50.168  1.00  0.00     0.004 A 
HETATM   28  C   UNL     1       4.239  26.954  49.178  1.00  0.00     0.107 A 
HETATM   29  C   UNL     1       4.198  27.330  47.835  1.00  0.00     0.102 A 
HETATM   30  C   UNL     1       4.623  28.595  47.447  1.00  0.00     0.039 A 
HETATM   31  C   UNL     1       5.039  29.504  48.420  1.00  0.00     0.003 A 
HETATM   32  C   UNL     1       5.016  29.149  49.774  1.00  0.00     0.012 A 
BRANCH  28  33
HETATM   33  O   UNL     1       3.922  25.669  49.540  1.00  0.00    -0.357 OA
HETATM   34  H   UNL     1       4.372  25.103  48.872  1.00  0.00     0.218 HD
ENDBRANCH  28  33
BRANCH  29  35
HETATM   35  O   UNL     1       3.759  26.432  46.902  1.00  0.00    -0.349 OA
BRANCH  35  36
HETATM   36  C   UNL     1       2.364  26.141  47.094  1.00  0.00     0.171 C 
HETATM   37  C   UNL     1       1.543  27.395  46.872  1.00  0.00     0.034 C 
ENDBRANCH  35  36
ENDBRANCH  29  35
ENDBRANCH  26  27
ENDBRANCH   4  26
TORSDOF 10
ENDMDL
MODEL 7
REMARK VINA RESULT:      -8.7      3.252      9.270
REMARK  10 active torsions:
REMARK  status: ('A' for Active; 'I' for Inactive)
REMARK    1  A    between atoms: C_2  and  C_3 
REMARK    2  A    between atoms: C_3  and  C_4 
REMARK    3  A    between atoms: N_7  and  C_9 
REMARK    4  A    between atoms: C_9  and  C_10 
REMARK    5  A    between atoms: C_11  and  O_12 
REMARK    6  A    between atoms: C_13  and  O_14 
REMARK    7  A    between atoms: O_14  and  C_15 
REMARK    8  A    between atoms: N_25  and  C_26 
REMARK    9  A    between atoms: C_26  and  C_27 
REMARK   10  A    between atoms: C_27  and  C_28 
ROOT
HETATM    1  C   UNL     1       4.404  28.545  55.740  1.00  0.00     0.026 C 
HETATM    2  C   UNL     1       4.764  27.461  56.778  1.00  0.00     0.035 C 
HETATM    3  C   UNL     1       6.110  26.794  56.550  1.00  0.00     0.235 C 
HETATM    4  N   UNL     1       6.241  26.286  55.142  1.00  0.00    -0.067 N 
HETATM    5  H   UNL     1       5.670  25.425  55.073  1.00  0.00     0.280 HD
HETATM    6  C   UNL     1       5.796  27.208  54.046  1.00  0.00     0.235 C 
HETATM    7  C   UNL     1       4.461  27.872  54.359  1.00  0.00     0.035 C 
ENDROOT
BRANCH   1   8
HETATM    8  C   UNL     1       5.188  29.903  55.854  1.00  0.00     0.119 A 
HETATM    9  N   UNL     1       6.580  29.783  55.488  1.00  0.00    -0.324 N 
HETATM   10  C   UNL     1       7.425  30.097  56.532  1.00  0.00     0.326 A 
HETATM   11  H   UNL     1       6.952  29.941  54.558  1.00  0.00     0.165 HD
HETATM   12  O   UNL     1       8.633  30.096  56.391  1.00  0.00    -0.247 OA
HETATM   13  N   UNL     1       6.685  30.339  57.644  1.00  0.00    -0.268 N 
HETATM   14  C   UNL     1       5.349  30.282  57.342  1.00  0.00     0.256 A 
HETATM   15  O   UNL     1       4.421  30.452  58.118  1.00  0.00    -0.270 OA
BRANCH   8  16
HETATM   16  C   UNL     1       4.498  31.044  55.077  1.00  0.00     0.037 C 
HETATM   17  C   UNL     1       2.984  31.138  55.263  1.00  0.00     0.008 C 
ENDBRANCH   8  16
BRANCH  13  18
HETATM   18  C   UNL     1       7.159  30.588  59.000  1.00  0.00     0.142 C 
BRANCH  18  19
HETATM   19  C   UNL     1       7.303  32.052  59.420  1.00  0.00     0.068 C 
BRANCH  19  20
HETATM   20  C   UNL     1       7.296  32.192  60.912  1.00  0.00     0.010 A 
HETATM   21  S   UNL     1       5.830  32.510  61.752  1.00  0.00    -0.085 SA
HETATM   22  C   UNL     1       6.693  32.511  63.229  1.00  0.00     0.166 A 
HETATM   23  N   UNL     1       7.986  32.297  63.139  1.00  0.00    -0.258 NA
HETATM   24  C   UNL     1       8.343  32.104  61.815  1.00  0.00     0.044 A 
HETATM   25  C   UNL     1       9.773  31.834  61.507  1.00  0.00     0.071 C 
ENDBRANCH  19  20
ENDBRANCH  18  19
ENDBRANCH  13  18
ENDBRANCH   1   8
BRANCH   4  26
HETATM   26  C   UNL     1       7.655  25.800  54.871  1.00  0.00     0.276 C 
BRANCH  26  27
HETATM   27  C   UNL     1       7.745  24.382  54.393  1.00  0.00     0.004 A 
HETATM   28  C   UNL     1       7.615  23.319  55.288  1.00  0.00     0.107 A 
HETATM   29  C   UNL     1       7.544  22.002  54.834  1.00  0.00     0.102 A 
HETATM   30  C   UNL     1       7.699  21.716  53.483  1.00  0.00     0.039 A 
HETATM   31  C   UNL     1       7.873  22.764  52.578  1.00  0.00     0.003 A 
HETATM   32  C   UNL     1       7.877  24.089  53.026  1.00  0.00     0.012 A 
BRANCH  28  33
HETATM   33  O   UNL     1       7.569  23.584  56.634  1.00  0.00    -0.357 OA
HETATM   34  H   UNL     1       7.963  22.788  57.058  1.00  0.00     0.218 HD
ENDBRANCH  28  33
BRANCH  29  35
HETATM   35  O   UNL     1       7.344  20.993  55.736  1.00  0.00    -0.349 OA
BRANCH  35  36
HETATM   36  C   UNL     1       8.325  19.955  55.562  1.00  0.00     0.171 C 
HETATM   37  C   UNL     1       9.616  20.348  56.251  1.00  0.00     0.034 C 
ENDBRANCH  35  36
ENDBRANCH  29  35
ENDBRANCH  26  27
ENDBRANCH   4  26
TORSDOF 10
ENDMDL
MODEL 8
REMARK VINA RESULT:      -8.6      2.612      3.438
REMARK  10 active torsions:
REMARK  status: ('A' for Active; 'I' for Inactive)
REMARK    1  A    between atoms: C_2  and  C_3 
REMARK    2  A    between atoms: C_3  and  C_4 
REMARK    3  A    between atoms: N_7  and  C_9 
REMARK    4  A    between atoms: C_9  and  C_10 
REMARK    5  A    between atoms: C_11  and  O_12 
REMARK    6  A    between atoms: C_13  and  O_14 
REMARK    7  A    between atoms: O_14  and  C_15 
REMARK    8  A    between atoms: N_25  and  C_26 
REMARK    9  A    between atoms: C_26  and  C_27 
REMARK   10  A    between atoms: C_27  and  C_28 
ROOT
HETATM    1  C   UNL     1       6.597  28.531  55.576  1.00  0.00     0.026 C 
HETATM    2  C   UNL     1       6.968  29.591  56.634  1.00  0.00     0.035 C 
HETATM    3  C   UNL     1       5.819  30.002  57.541  1.00  0.00     0.235 C 
HETATM    4  N   UNL     1       4.608  30.402  56.748  1.00  0.00    -0.067 N 
HETATM    5  H   UNL     1       4.793  31.344  56.360  1.00  0.00     0.280 HD
HETATM    6  C   UNL     1       4.224  29.513  55.603  1.00  0.00     0.235 C 
HETATM    7  C   UNL     1       5.426  29.108  54.761  1.00  0.00     0.035 C 
ENDROOT
BRANCH   1   8
HETATM    8  C   UNL     1       6.384  27.067  56.106  1.00  0.00     0.119 A 
HETATM    9  N   UNL     1       7.427  26.636  57.007  1.00  0.00    -0.324 N 
HETATM   10  C   UNL     1       8.113  25.539  56.528  1.00  0.00     0.326 A 
HETATM   11  H   UNL     1       7.400  26.732  58.016  1.00  0.00     0.165 HD
HETATM   12  O   UNL     1       8.995  25.011  57.178  1.00  0.00    -0.247 OA
HETATM   13  N   UNL     1       7.658  25.240  55.285  1.00  0.00    -0.268 N 
HETATM   14  C   UNL     1       6.613  26.064  54.955  1.00  0.00     0.256 A 
HETATM   15  O   UNL     1       5.984  26.054  53.908  1.00  0.00    -0.270 OA
BRANCH   8  16
HETATM   16  C   UNL     1       4.985  26.866  56.728  1.00  0.00     0.037 C 
HETATM   17  C   UNL     1       4.706  25.464  57.268  1.00  0.00     0.008 C 
ENDBRANCH   8  16
BRANCH  13  18
HETATM   18  C   UNL     1       8.174  24.239  54.358  1.00  0.00     0.142 C 
BRANCH  18  19
HETATM   19  C   UNL     1       7.299  23.007  54.120  1.00  0.00     0.068 C 
BRANCH  19  20
HETATM   20  C   UNL     1       7.937  21.772  54.679  1.00  0.00     0.010 A 
HETATM   21  S   UNL     1       8.230  21.627  56.366  1.00  0.00    -0.085 SA
HETATM   22  C   UNL     1       8.906  20.078  56.102  1.00  0.00     0.166 A 
HETATM   23  N   UNL     1       8.932  19.668  54.854  1.00  0.00    -0.258 NA
HETATM   24  C   UNL     1       8.371  20.628  54.029  1.00  0.00     0.044 A 
HETATM   25  C   UNL     1       8.299  20.342  52.570  1.00  0.00     0.071 C 
ENDBRANCH  19  20
ENDBRANCH  18  19
ENDBRANCH  13  18
ENDBRANCH   1   8
BRANCH   4  26
HETATM   26  C   UNL     1       3.412  30.620  57.661  1.00  0.00     0.276 C 
BRANCH  26  27
HETATM   27  C   UNL     1       3.564  31.759  58.624  1.00  0.00     0.004 A 
HETATM   28  C   UNL     1       3.330  31.574  59.988  1.00  0.00     0.107 A 
HETATM   29  C   UNL     1       3.615  32.582  60.909  1.00  0.00     0.102 A 
HETATM   30  C   UNL     1       4.049  33.828  60.474  1.00  0.00     0.039 A 
HETATM   31  C   UNL     1       4.249  34.044  59.111  1.00  0.00     0.003 A 
HETATM   32  C   UNL     1       4.026  33.013  58.192  1.00  0.00     0.012 A 
BRANCH  28  33
HETATM   33  O   UNL     1       2.798  30.384  60.416  1.00  0.00    -0.357 OA
HETATM   34  H   UNL     1       2.650  29.865  59.594  1.00  0.00     0.218 HD
ENDBRANCH  28  33
BRANCH  29  35
HETATM   35  O   UNL     1       3.439  32.338  62.243  1.00  0.00    -0.349 OA
BRANCH  35  36
HETATM   36  C   UNL     1       4.579  32.789  62.996  1.00  0.00     0.171 C 
HETATM   37  C   UNL     1       5.671  31.741  62.951  1.00  0.00     0.034 C 
ENDBRANCH  35  36
ENDBRANCH  29  35
ENDBRANCH  26  27
ENDBRANCH   4  26
TORSDOF 10
ENDMDL
MODEL 9
REMARK VINA RESULT:      -8.6      3.220      6.801
REMARK  10 active torsions:
REMARK  status: ('A' for Active; 'I' for Inactive)
REMARK    1  A    between atoms: C_2  and  C_3 
REMARK    2  A    between atoms: C_3  and  C_4 
REMARK    3  A    between atoms: N_7  and  C_9 
REMARK    4  A    between atoms: C_9  and  C_10 
REMARK    5  A    between atoms: C_11  and  O_12 
REMARK    6  A    between atoms: C_13  and  O_14 
REMARK    7  A    between atoms: O_14  and  C_15 
REMARK    8  A    between atoms: N_25  and  C_26 
REMARK    9  A    between atoms: C_26  and  C_27 
REMARK   10  A    between atoms: C_27  and  C_28 
ROOT
HETATM    1  C   UNL     1       5.497  28.127  56.786  1.00  0.00     0.026 C 
HETATM    2  C   UNL     1       4.227  27.910  55.935  1.00  0.00     0.035 C 
HETATM    3  C   UNL     1       4.162  28.759  54.676  1.00  0.00     0.235 C 
HETATM    4  N   UNL     1       4.391  30.212  54.980  1.00  0.00    -0.067 N 
HETATM    5  H   UNL     1       3.522  30.576  55.411  1.00  0.00     0.280 HD
HETATM    6  C   UNL     1       5.523  30.540  55.907  1.00  0.00     0.235 C 
HETATM    7  C   UNL     1       5.552  29.626  57.125  1.00  0.00     0.035 C 
ENDROOT
BRANCH   1   8
HETATM    8  C   UNL     1       6.829  27.522  56.211  1.00  0.00     0.119 A 
HETATM    9  N   UNL     1       7.013  27.798  54.806  1.00  0.00    -0.324 N 
HETATM   10  C   UNL     1       7.070  26.646  54.050  1.00  0.00     0.326 A 
HETATM   11  H   UNL     1       7.514  28.596  54.431  1.00  0.00     0.165 HD
HETATM   12  O   UNL     1       7.269  26.685  52.850  1.00  0.00    -0.247 OA
HETATM   13  N   UNL     1       6.837  25.576  54.852  1.00  0.00    -0.268 N 
HETATM   14  C   UNL     1       6.714  25.984  56.156  1.00  0.00     0.256 A 
HETATM   15  O   UNL     1       6.501  25.269  57.123  1.00  0.00    -0.270 OA
BRANCH   8  16
HETATM   16  C   UNL     1       8.066  27.943  57.034  1.00  0.00     0.037 C 
HETATM   17  C   UNL     1       8.983  28.961  56.358  1.00  0.00     0.008 C 
ENDBRANCH   8  16
BRANCH  13  18
HETATM   18  C   UNL     1       6.684  24.179  54.463  1.00  0.00     0.142 C 
BRANCH  18  19
HETATM   19  C   UNL     1       7.928  23.478  53.915  1.00  0.00     0.068 C 
BRANCH  19  20
HETATM   20  C   UNL     1       8.225  22.224  54.679  1.00  0.00     0.010 A 
HETATM   21  S   UNL     1       8.402  22.265  56.389  1.00  0.00    -0.085 SA
HETATM   22  C   UNL     1       8.696  20.579  56.385  1.00  0.00     0.166 A 
HETATM   23  N   UNL     1       8.676  19.996  55.208  1.00  0.00    -0.258 NA
HETATM   24  C   UNL     1       8.398  20.928  54.222  1.00  0.00     0.044 A 
HETATM   25  C   UNL     1       8.321  20.456  52.813  1.00  0.00     0.071 C 
ENDBRANCH  19  20
ENDBRANCH  18  19
ENDBRANCH  13  18
ENDBRANCH   1   8
BRANCH   4  26
HETATM   26  C   UNL     1       4.518  31.019  53.698  1.00  0.00     0.276 C 
BRANCH  26  27
HETATM   27  C   UNL     1       4.026  30.316  52.469  1.00  0.00     0.004 A 
HETATM   28  C   UNL     1       4.861  29.450  51.761  1.00  0.00     0.107 A 
HETATM   29  C   UNL     1       4.368  28.677  50.709  1.00  0.00     0.102 A 
HETATM   30  C   UNL     1       3.054  28.827  50.283  1.00  0.00     0.039 A 
HETATM   31  C   UNL     1       2.216  29.720  50.952  1.00  0.00     0.003 A 
HETATM   32  C   UNL     1       2.692  30.446  52.049  1.00  0.00     0.012 A 
BRANCH  28  33
HETATM   33  O   UNL     1       6.187  29.375  52.104  1.00  0.00    -0.357 OA
HETATM   34  H   UNL     1       6.584  28.768  51.440  1.00  0.00     0.218 HD
ENDBRANCH  28  33
BRANCH  29  35
HETATM   35  O   UNL     1       5.200  27.787  50.087  1.00  0.00    -0.349 OA
BRANCH  35  36
HETATM   36  C   UNL     1       5.169  27.976  48.661  1.00  0.00     0.171 C 
HETATM   37  C   UNL     1       4.844  26.663  47.977  1.00  0.00     0.034 C 
ENDBRANCH  35  36
ENDBRANCH  29  35
ENDBRANCH  26  27
ENDBRANCH   4  26
TORSDOF 10
ENDMDL
MODEL 10
REMARK VINA RESULT:      -8.6      4.056     10.039
REMARK  10 active torsions:
REMARK  status: ('A' for Active; 'I' for Inactive)
REMARK    1  A    between atoms: C_2  and  C_3 
REMARK    2  A    between atoms: C_3  and  C_4 
REMARK    3  A    between atoms: N_7  and  C_9 
REMARK    4  A    between atoms: C_9  and  C_10 
REMARK    5  A    between atoms: C_11  and  O_12 
REMARK    6  A    between atoms: C_13  and  O_14 
REMARK    7  A    between atoms: O_14  and  C_15 
REMARK    8  A    between atoms: N_25  and  C_26 
REMARK    9  A    between atoms: C_26  and  C_27 
REMARK   10  A    between atoms: C_27  and  C_28 
ROOT
HETATM    1  C   UNL     1       4.917  29.753  55.947  1.00  0.00     0.026 C 
HETATM    2  C   UNL     1       4.137  28.421  55.920  1.00  0.00     0.035 C 
HETATM    3  C   UNL     1       4.951  27.207  56.337  1.00  0.00     0.235 C 
HETATM    4  N   UNL     1       6.238  27.118  55.567  1.00  0.00    -0.067 N 
HETATM    5  H   UNL     1       6.004  26.781  54.616  1.00  0.00     0.280 HD
HETATM    6  C   UNL     1       7.024  28.385  55.413  1.00  0.00     0.235 C 
HETATM    7  C   UNL     1       6.141  29.567  55.035  1.00  0.00     0.035 C 
ENDROOT
BRANCH   1   8
HETATM    8  C   UNL     1       5.227  30.347  57.369  1.00  0.00     0.119 A 
HETATM    9  N   UNL     1       4.255  29.962  58.365  1.00  0.00    -0.324 N 
HETATM   10  C   UNL     1       3.598  31.050  58.903  1.00  0.00     0.326 A 
HETATM   11  H   UNL     1       4.329  29.151  58.969  1.00  0.00     0.165 HD
HETATM   12  O   UNL     1       2.777  30.918  59.791  1.00  0.00    -0.247 OA
HETATM   13  N   UNL     1       4.001  32.175  58.258  1.00  0.00    -0.268 N 
HETATM   14  C   UNL     1       4.987  31.871  57.355  1.00  0.00     0.256 A 
HETATM   15  O   UNL     1       5.560  32.657  56.614  1.00  0.00    -0.270 OA
BRANCH   8  16
HETATM   16  C   UNL     1       6.665  30.030  57.835  1.00  0.00     0.037 C 
HETATM   17  C   UNL     1       7.262  31.025  58.830  1.00  0.00     0.008 C 
ENDBRANCH   8  16
BRANCH  13  18
HETATM   18  C   UNL     1       3.486  33.530  58.412  1.00  0.00     0.142 C 
BRANCH  18  19
HETATM   19  C   UNL     1       4.236  34.444  59.383  1.00  0.00     0.068 C 
BRANCH  19  20
HETATM   20  C   UNL     1       4.165  33.920  60.785  1.00  0.00     0.010 A 
HETATM   21  S   UNL     1       5.520  33.133  61.492  1.00  0.00    -0.085 SA
HETATM   22  C   UNL     1       4.620  32.904  62.928  1.00  0.00     0.166 A 
HETATM   23  N   UNL     1       3.390  33.365  62.915  1.00  0.00    -0.258 NA
HETATM   24  C   UNL     1       3.120  33.958  61.694  1.00  0.00     0.044 A 
HETATM   25  C   UNL     1       1.772  34.554  61.486  1.00  0.00     0.071 C 
ENDBRANCH  19  20
ENDBRANCH  18  19
ENDBRANCH  13  18
ENDBRANCH   1   8
BRANCH   4  26
HETATM   26  C   UNL     1       7.127  26.019  56.126  1.00  0.00     0.276 C 
BRANCH  26  27
HETATM   27  C   UNL     1       7.536  24.980  55.126  1.00  0.00     0.004 A 
HETATM   28  C   UNL     1       8.390  23.937  55.491  1.00  0.00     0.107 A 
HETATM   29  C   UNL     1       8.653  22.885  54.614  1.00  0.00     0.102 A 
HETATM   30  C   UNL     1       8.144  22.903  53.321  1.00  0.00     0.039 A 
HETATM   31  C   UNL     1       7.322  23.959  52.926  1.00  0.00     0.003 A 
HETATM   32  C   UNL     1       7.004  24.981  53.826  1.00  0.00     0.012 A 
BRANCH  28  33
HETATM   33  O   UNL     1       8.984  23.965  56.727  1.00  0.00    -0.357 OA
HETATM   34  H   UNL     1       9.811  24.483  56.595  1.00  0.00     0.218 HD
ENDBRANCH  28  33
BRANCH  29  35
HETATM   35  O   UNL     1       9.438  21.846  55.033  1.00  0.00    -0.349 OA
BRANCH  35  36
HETATM   36  C   UNL     1       8.731  20.598  54.921  1.00  0.00     0.171 C 
HETATM   37  C   UNL     1       7.800  20.427  56.104  1.00  0.00     0.034 C 
ENDBRANCH  35  36
ENDBRANCH  29  35
ENDBRANCH  26  27
ENDBRANCH   4  26
TORSDOF 10
ENDMDL
