MODEL 1
REMARK VINA RESULT:      -9.7      0.000      0.000
REMARK  8 active torsions:
REMARK  status: ('A' for Active; 'I' for Inactive)
REMARK    1  A    between atoms: N_4  and  C_5 
REMARK    2  A    between atoms: C_11  and  O_12 
REMARK    3  A    between atoms: C_13  and  C_14 
REMARK    4  A    between atoms: N_15  and  N_16 
REMARK       I    between atoms: N_16  and  C_17 
REMARK    5  A    between atoms: C_17  and  C_18 
REMARK    6  A    between atoms: C_18  and  C_19 
REMARK    7  A    between atoms: C_19  and  N_20 
REMARK       I    between atoms: N_20  and  C_21 
REMARK    8  A    between atoms: C_21  and  C_22 
ROOT
HETATM    1  C   UNL     1       7.936  28.583  56.325  1.00  0.00     0.156 C 
HETATM    2  N   UNL     1       6.800  28.843  55.757  1.00  0.00    -0.184 NA
ENDROOT
BRANCH   2   3
HETATM    3  N   UNL     1       6.364  27.968  54.788  1.00  0.00    -0.247 N 
HETATM    4  C   UNL     1       5.031  27.817  54.407  1.00  0.00     0.239 C 
HETATM    5  O   UNL     1       4.075  28.383  54.930  1.00  0.00    -0.272 OA
HETATM    6  H   UNL     1       7.077  27.734  54.103  1.00  0.00     0.192 HD
BRANCH   4   7
HETATM    7  C   UNL     1       4.875  26.807  53.290  1.00  0.00     0.124 C 
BRANCH   7   8
HETATM    8  C   UNL     1       6.233  26.319  52.799  1.00  0.00     0.132 C 
BRANCH   8   9
HETATM    9  N   UNL     1       6.478  24.911  53.068  1.00  0.00    -0.356 N 
HETATM   10  C   UNL     1       7.199  24.492  54.168  1.00  0.00     0.251 C 
HETATM   11  O   UNL     1       7.582  25.254  55.049  1.00  0.00    -0.268 OA
HETATM   12  H   UNL     1       6.426  24.290  52.273  1.00  0.00     0.162 HD
BRANCH  10  13
HETATM   13  C   UNL     1       7.535  23.039  54.232  1.00  0.00     0.032 A 
HETATM   14  C   UNL     1       7.618  22.339  55.444  1.00  0.00     0.017 A 
HETATM   15  C   UNL     1       7.925  20.976  55.446  1.00  0.00     0.001 A 
HETATM   16  C   UNL     1       8.165  20.310  54.245  1.00  0.00     0.000 A 
HETATM   17  C   UNL     1       8.106  21.004  53.038  1.00  0.00     0.001 A 
HETATM   18  C   UNL     1       7.795  22.365  53.031  1.00  0.00     0.017 A 
ENDBRANCH  10  13
ENDBRANCH   8   9
ENDBRANCH   7   8
ENDBRANCH   4   7
ENDBRANCH   2   3
BRANCH   1  19
HETATM   19  C   UNL     1       8.426  29.455  57.365  1.00  0.00     0.062 C 
HETATM   20  C   UNL     1       9.731  29.932  57.640  1.00  0.00     0.067 C 
HETATM   21  C   UNL     1      10.988  29.653  56.901  1.00  0.00     0.073 C 
HETATM   22  N   UNL     1       9.750  30.762  58.690  1.00  0.00    -0.169 NA
HETATM   23  N   UNL     1       8.483  30.737  59.181  1.00  0.00    -0.210 N 
HETATM   24  C   UNL     1       7.624  30.067  58.309  1.00  0.00     0.177 C 
BRANCH  23  25
HETATM   25  C   UNL     1       8.194  31.343  60.439  1.00  0.00     0.061 A 
HETATM   26  C   UNL     1       7.416  32.510  60.475  1.00  0.00     0.031 A 
HETATM   27  C   UNL     1       7.116  33.121  61.694  1.00  0.00     0.002 A 
HETATM   28  C   UNL     1       7.603  32.583  62.884  1.00  0.00     0.000 A 
HETATM   29  C   UNL     1       8.402  31.441  62.855  1.00  0.00     0.002 A 
HETATM   30  C   UNL     1       8.704  30.824  61.638  1.00  0.00     0.031 A 
ENDBRANCH  23  25
BRANCH  24  31
HETATM   31  O   UNL     1       6.290  30.064  58.394  1.00  0.00    -0.344 OA
HETATM   32  H   UNL     1       6.042  30.265  59.316  1.00  0.00     0.219 HD
ENDBRANCH  24  31
ENDBRANCH   1  19
TORSDOF 8
ENDMDL
MODEL 2
REMARK VINA RESULT:      -9.6      1.830      2.474
REMARK  8 active torsions:
REMARK  status: ('A' for Active; 'I' for Inactive)
REMARK    1  A    between atoms: N_4  and  C_5 
REMARK    2  A    between atoms: C_11  and  O_12 
REMARK    3  A    between atoms: C_13  and  C_14 
REMARK    4  A    between atoms: N_15  and  N_16 
REMARK       I    between atoms: N_16  and  C_17 
REMARK    5  A    between atoms: C_17  and  C_18 
REMARK    6  A    between atoms: C_18  and  C_19 
REMARK    7  A    between atoms: C_19  and  N_20 
REMARK       I    between atoms: N_20  and  C_21 
REMARK    8  A    between atoms: C_21  and  C_22 
ROOT
HETATM    1  C   UNL     1       7.099  30.545  57.864  1.00  0.00     0.156 C 
HETATM    2  N   UNL     1       7.353  29.275  57.863  1.00  0.00    -0.184 NA
ENDROOT
BRANCH   2   3
HETATM    3  N   UNL     1       6.900  28.541  56.791  1.00  0.00    -0.247 N 
HETATM    4  C   UNL     1       7.594  28.389  55.592  1.00  0.00     0.239 C 
HETATM    5  O   UNL     1       8.653  28.943  55.309  1.00  0.00    -0.272 OA
HETATM    6  H   UNL     1       6.245  27.808  57.050  1.00  0.00     0.192 HD
BRANCH   4   7
HETATM    7  C   UNL     1       6.855  27.492  54.622  1.00  0.00     0.124 C 
BRANCH   7   8
HETATM    8  C   UNL     1       6.011  26.461  55.364  1.00  0.00     0.132 C 
BRANCH   8   9
HETATM    9  N   UNL     1       6.261  25.092  54.941  1.00  0.00    -0.356 N 
HETATM   10  C   UNL     1       7.303  24.347  55.456  1.00  0.00     0.251 C 
HETATM   11  O   UNL     1       8.014  24.735  56.377  1.00  0.00    -0.268 OA
HETATM   12  H   UNL     1       5.898  24.833  54.035  1.00  0.00     0.162 HD
BRANCH  10  13
HETATM   13  C   UNL     1       7.564  23.028  54.809  1.00  0.00     0.032 A 
HETATM   14  C   UNL     1       7.661  22.878  53.418  1.00  0.00     0.017 A 
HETATM   15  C   UNL     1       7.918  21.619  52.866  1.00  0.00     0.001 A 
HETATM   16  C   UNL     1       8.066  20.507  53.694  1.00  0.00     0.000 A 
HETATM   17  C   UNL     1       7.950  20.646  55.076  1.00  0.00     0.001 A 
HETATM   18  C   UNL     1       7.697  21.901  55.632  1.00  0.00     0.017 A 
ENDBRANCH  10  13
ENDBRANCH   8   9
ENDBRANCH   7   8
ENDBRANCH   4   7
ENDBRANCH   2   3
BRANCH   1  19
HETATM   19  C   UNL     1       7.575  31.366  58.953  1.00  0.00     0.062 C 
HETATM   20  C   UNL     1       8.872  31.843  59.258  1.00  0.00     0.067 C 
HETATM   21  C   UNL     1      10.135  31.621  58.510  1.00  0.00     0.073 C 
HETATM   22  N   UNL     1       8.877  32.615  60.352  1.00  0.00    -0.169 NA
HETATM   23  N   UNL     1       7.609  32.548  60.835  1.00  0.00    -0.210 N 
HETATM   24  C   UNL     1       6.761  31.916  59.925  1.00  0.00     0.177 C 
BRANCH  23  25
HETATM   25  C   UNL     1       7.308  33.081  62.124  1.00  0.00     0.061 A 
HETATM   26  C   UNL     1       6.383  34.131  62.232  1.00  0.00     0.031 A 
HETATM   27  C   UNL     1       6.069  34.668  63.481  1.00  0.00     0.002 A 
HETATM   28  C   UNL     1       6.685  34.174  64.630  1.00  0.00     0.000 A 
HETATM   29  C   UNL     1       7.627  33.152  64.528  1.00  0.00     0.002 A 
HETATM   30  C   UNL     1       7.945  32.609  63.280  1.00  0.00     0.031 A 
ENDBRANCH  23  25
BRANCH  24  31
HETATM   31  O   UNL     1       5.428  31.892  60.004  1.00  0.00    -0.344 OA
HETATM   32  H   UNL     1       5.115  32.799  60.179  1.00  0.00     0.219 HD
ENDBRANCH  24  31
ENDBRANCH   1  19
TORSDOF 8
ENDMDL
MODEL 3
REMARK VINA RESULT:      -9.5      1.809     10.606
REMARK  8 active torsions:
REMARK  status: ('A' for Active; 'I' for Inactive)
REMARK    1  A    between atoms: N_4  and  C_5 
REMARK    2  A    between atoms: C_11  and  O_12 
REMARK    3  A    between atoms: C_13  and  C_14 
REMARK    4  A    between atoms: N_15  and  N_16 
REMARK       I    between atoms: N_16  and  C_17 
REMARK    5  A    between atoms: C_17  and  C_18 
REMARK    6  A    between atoms: C_18  and  C_19 
REMARK    7  A    between atoms: C_19  and  N_20 
REMARK       I    between atoms: N_20  and  C_21 
REMARK    8  A    between atoms: C_21  and  C_22 
ROOT
HETATM    1  C   UNL     1       6.076  27.057  55.745  1.00  0.00     0.156 C 
HETATM    2  N   UNL     1       7.084  27.841  55.968  1.00  0.00    -0.184 NA
ENDROOT
BRANCH   2   3
HETATM    3  N   UNL     1       6.847  28.980  56.702  1.00  0.00    -0.247 N 
HETATM    4  C   UNL     1       7.548  29.333  57.855  1.00  0.00     0.239 C 
HETATM    5  O   UNL     1       8.407  28.647  58.401  1.00  0.00    -0.272 OA
HETATM    6  H   UNL     1       6.425  29.730  56.162  1.00  0.00     0.192 HD
BRANCH   4   7
HETATM    7  C   UNL     1       7.083  30.661  58.413  1.00  0.00     0.124 C 
BRANCH   7   8
HETATM    8  C   UNL     1       8.258  31.473  58.946  1.00  0.00     0.132 C 
BRANCH   8   9
HETATM    9  N   UNL     1       7.915  32.321  60.077  1.00  0.00    -0.356 N 
HETATM   10  C   UNL     1       8.043  31.887  61.381  1.00  0.00     0.251 C 
HETATM   11  O   UNL     1       8.558  30.816  61.684  1.00  0.00    -0.268 OA
HETATM   12  H   UNL     1       7.261  33.068  59.890  1.00  0.00     0.162 HD
BRANCH  10  13
HETATM   13  C   UNL     1       7.486  32.779  62.440  1.00  0.00     0.032 A 
HETATM   14  C   UNL     1       7.898  32.706  63.778  1.00  0.00     0.017 A 
HETATM   15  C   UNL     1       7.352  33.575  64.728  1.00  0.00     0.001 A 
HETATM   16  C   UNL     1       6.385  34.507  64.351  1.00  0.00     0.000 A 
HETATM   17  C   UNL     1       5.956  34.570  63.027  1.00  0.00     0.001 A 
HETATM   18  C   UNL     1       6.502  33.708  62.074  1.00  0.00     0.017 A 
ENDBRANCH  10  13
ENDBRANCH   8   9
ENDBRANCH   7   8
ENDBRANCH   4   7
ENDBRANCH   2   3
BRANCH   1  19
HETATM   19  C   UNL     1       6.277  25.836  55.002  1.00  0.00     0.062 C 
HETATM   20  C   UNL     1       5.664  25.357  53.819  1.00  0.00     0.067 C 
HETATM   21  C   UNL     1       4.614  26.009  52.996  1.00  0.00     0.073 C 
HETATM   22  N   UNL     1       6.170  24.179  53.434  1.00  0.00    -0.169 NA
HETATM   23  N   UNL     1       7.029  23.825  54.425  1.00  0.00    -0.210 N 
HETATM   24  C   UNL     1       7.223  24.880  55.317  1.00  0.00     0.177 C 
BRANCH  23  25
HETATM   25  C   UNL     1       7.587  22.512  54.451  1.00  0.00     0.061 A 
HETATM   26  C   UNL     1       8.098  21.962  53.264  1.00  0.00     0.031 A 
HETATM   27  C   UNL     1       8.651  20.680  53.263  1.00  0.00     0.002 A 
HETATM   28  C   UNL     1       8.685  19.932  54.438  1.00  0.00     0.000 A 
HETATM   29  C   UNL     1       8.153  20.459  55.613  1.00  0.00     0.002 A 
HETATM   30  C   UNL     1       7.598  21.742  55.622  1.00  0.00     0.031 A 
ENDBRANCH  23  25
BRANCH  24  31
HETATM   31  O   UNL     1       8.168  24.925  56.262  1.00  0.00    -0.344 OA
HETATM   32  H   UNL     1       8.839  25.579  55.992  1.00  0.00     0.219 HD
ENDBRANCH  24  31
ENDBRANCH   1  19
TORSDOF 8
ENDMDL
MODEL 4
REMARK VINA RESULT:      -9.1      2.245     10.051
REMARK  8 active torsions:
REMARK  status: ('A' for Active; 'I' for Inactive)
REMARK    1  A    between atoms: N_4  and  C_5 
REMARK    2  A    between atoms: C_11  and  O_12 
REMARK    3  A    between atoms: C_13  and  C_14 
REMARK    4  A    between atoms: N_15  and  N_16 
REMARK       I    between atoms: N_16  and  C_17 
REMARK    5  A    between atoms: C_17  and  C_18 
REMARK    6  A    between atoms: C_18  and  C_19 
REMARK    7  A    between atoms: C_19  and  N_20 
REMARK       I    between atoms: N_20  and  C_21 
REMARK    8  A    between atoms: C_21  and  C_22 
ROOT
HETATM    1  C   UNL     1       5.363  26.885  54.792  1.00  0.00     0.156 C 
HETATM    2  N   UNL     1       5.105  26.914  56.061  1.00  0.00    -0.184 NA
ENDROOT
BRANCH   2   3
HETATM    3  N   UNL     1       4.548  28.066  56.566  1.00  0.00    -0.247 N 
HETATM    4  C   UNL     1       5.244  29.018  57.309  1.00  0.00     0.239 C 
HETATM    5  O   UNL     1       6.414  28.920  57.669  1.00  0.00    -0.272 OA
HETATM    6  H   UNL     1       3.730  28.380  56.050  1.00  0.00     0.192 HD
BRANCH   4   7
HETATM    7  C   UNL     1       4.367  30.191  57.688  1.00  0.00     0.124 C 
BRANCH   7   8
HETATM    8  C   UNL     1       5.178  31.479  57.767  1.00  0.00     0.132 C 
BRANCH   8   9
HETATM    9  N   UNL     1       5.483  31.892  59.128  1.00  0.00    -0.356 N 
HETATM   10  C   UNL     1       6.780  32.068  59.565  1.00  0.00     0.251 C 
HETATM   11  O   UNL     1       7.754  32.005  58.821  1.00  0.00    -0.268 OA
HETATM   12  H   UNL     1       4.774  31.700  59.821  1.00  0.00     0.162 HD
BRANCH  10  13
HETATM   13  C   UNL     1       6.966  32.312  61.025  1.00  0.00     0.032 A 
HETATM   14  C   UNL     1       5.918  32.730  61.857  1.00  0.00     0.017 A 
HETATM   15  C   UNL     1       6.144  32.933  63.222  1.00  0.00     0.001 A 
HETATM   16  C   UNL     1       7.416  32.734  63.758  1.00  0.00     0.000 A 
HETATM   17  C   UNL     1       8.467  32.339  62.933  1.00  0.00     0.001 A 
HETATM   18  C   UNL     1       8.245  32.131  61.570  1.00  0.00     0.017 A 
ENDBRANCH  10  13
ENDBRANCH   8   9
ENDBRANCH   7   8
ENDBRANCH   4   7
ENDBRANCH   2   3
BRANCH   1  19
HETATM   19  C   UNL     1       5.925  25.690  54.207  1.00  0.00     0.062 C 
HETATM   20  C   UNL     1       5.856  25.181  52.888  1.00  0.00     0.067 C 
HETATM   21  C   UNL     1       5.165  25.763  51.710  1.00  0.00     0.073 C 
HETATM   22  N   UNL     1       6.557  24.048  52.751  1.00  0.00    -0.169 NA
HETATM   23  N   UNL     1       6.986  23.747  54.005  1.00  0.00    -0.210 N 
HETATM   24  C   UNL     1       6.741  24.804  54.883  1.00  0.00     0.177 C 
BRANCH  23  25
HETATM   25  C   UNL     1       7.584  22.480  54.269  1.00  0.00     0.061 A 
HETATM   26  C   UNL     1       8.080  21.720  53.197  1.00  0.00     0.031 A 
HETATM   27  C   UNL     1       8.673  20.477  53.429  1.00  0.00     0.002 A 
HETATM   28  C   UNL     1       8.760  19.975  54.726  1.00  0.00     0.000 A 
HETATM   29  C   UNL     1       8.243  20.709  55.792  1.00  0.00     0.002 A 
HETATM   30  C   UNL     1       7.650  21.955  55.567  1.00  0.00     0.031 A 
ENDBRANCH  23  25
BRANCH  24  31
HETATM   31  O   UNL     1       7.238  24.908  56.119  1.00  0.00    -0.344 OA
HETATM   32  H   UNL     1       8.211  24.876  56.061  1.00  0.00     0.219 HD
ENDBRANCH  24  31
ENDBRANCH   1  19
TORSDOF 8
ENDMDL
MODEL 5
REMARK VINA RESULT:      -8.7      2.732     10.955
REMARK  8 active torsions:
REMARK  status: ('A' for Active; 'I' for Inactive)
REMARK    1  A    between atoms: N_4  and  C_5 
REMARK    2  A    between atoms: C_11  and  O_12 
REMARK    3  A    between atoms: C_13  and  C_14 
REMARK    4  A    between atoms: N_15  and  N_16 
REMARK       I    between atoms: N_16  and  C_17 
REMARK    5  A    between atoms: C_17  and  C_18 
REMARK    6  A    between atoms: C_18  and  C_19 
REMARK    7  A    between atoms: C_19  and  N_20 
REMARK       I    between atoms: N_20  and  C_21 
REMARK    8  A    between atoms: C_21  and  C_22 
ROOT
HETATM    1  C   UNL     1       7.206  29.295  58.075  1.00  0.00     0.156 C 
HETATM    2  N   UNL     1       8.404  29.478  58.532  1.00  0.00    -0.184 NA
ENDROOT
BRANCH   2   3
HETATM    3  N   UNL     1       8.533  30.199  59.697  1.00  0.00    -0.247 N 
HETATM    4  C   UNL     1       9.078  31.480  59.773  1.00  0.00     0.239 C 
HETATM    5  O   UNL     1       9.577  32.096  58.835  1.00  0.00    -0.272 OA
HETATM    6  H   UNL     1       7.866  29.929  60.415  1.00  0.00     0.192 HD
BRANCH   4   7
HETATM    7  C   UNL     1       9.045  32.024  61.185  1.00  0.00     0.124 C 
BRANCH   7   8
HETATM    8  C   UNL     1       7.764  31.609  61.902  1.00  0.00     0.132 C 
BRANCH   8   9
HETATM    9  N   UNL     1       6.921  32.732  62.283  1.00  0.00    -0.356 N 
HETATM   10  C   UNL     1       6.936  33.256  63.560  1.00  0.00     0.251 C 
HETATM   11  O   UNL     1       7.731  32.898  64.423  1.00  0.00    -0.268 OA
HETATM   12  H   UNL     1       6.093  32.877  61.722  1.00  0.00     0.162 HD
BRANCH  10  13
HETATM   13  C   UNL     1       5.897  34.280  63.873  1.00  0.00     0.032 A 
HETATM   14  C   UNL     1       5.021  34.154  64.961  1.00  0.00     0.017 A 
HETATM   15  C   UNL     1       4.073  35.150  65.216  1.00  0.00     0.001 A 
HETATM   16  C   UNL     1       3.987  36.265  64.383  1.00  0.00     0.000 A 
HETATM   17  C   UNL     1       4.840  36.386  63.288  1.00  0.00     0.001 A 
HETATM   18  C   UNL     1       5.791  35.396  63.032  1.00  0.00     0.017 A 
ENDBRANCH  10  13
ENDBRANCH   8   9
ENDBRANCH   7   8
ENDBRANCH   4   7
ENDBRANCH   2   3
BRANCH   1  19
HETATM   19  C   UNL     1       7.014  28.523  56.870  1.00  0.00     0.062 C 
HETATM   20  C   UNL     1       6.217  28.768  55.726  1.00  0.00     0.067 C 
HETATM   21  C   UNL     1       5.335  29.930  55.450  1.00  0.00     0.073 C 
HETATM   22  N   UNL     1       6.355  27.808  54.804  1.00  0.00    -0.169 NA
HETATM   23  N   UNL     1       7.147  26.871  55.388  1.00  0.00    -0.210 N 
HETATM   24  C   UNL     1       7.681  27.347  56.586  1.00  0.00     0.177 C 
BRANCH  23  25
HETATM   25  C   UNL     1       7.325  25.599  54.767  1.00  0.00     0.061 A 
HETATM   26  C   UNL     1       7.703  25.543  53.417  1.00  0.00     0.031 A 
HETATM   27  C   UNL     1       7.886  24.311  52.786  1.00  0.00     0.002 A 
HETATM   28  C   UNL     1       7.676  23.127  53.491  1.00  0.00     0.000 A 
HETATM   29  C   UNL     1       7.270  23.174  54.823  1.00  0.00     0.002 A 
HETATM   30  C   UNL     1       7.087  24.404  55.461  1.00  0.00     0.031 A 
ENDBRANCH  23  25
BRANCH  24  31
HETATM   31  O   UNL     1       8.662  26.759  57.278  1.00  0.00    -0.344 OA
HETATM   32  H   UNL     1       9.208  27.456  57.687  1.00  0.00     0.219 HD
ENDBRANCH  24  31
ENDBRANCH   1  19
TORSDOF 8
ENDMDL
MODEL 6
REMARK VINA RESULT:      -8.5      2.715     10.968
REMARK  8 active torsions:
REMARK  status: ('A' for Active; 'I' for Inactive)
REMARK    1  A    between atoms: N_4  and  C_5 
REMARK    2  A    between atoms: C_11  and  O_12 
REMARK    3  A    between atoms: C_13  and  C_14 
REMARK    4  A    between atoms: N_15  and  N_16 
REMARK       I    between atoms: N_16  and  C_17 
REMARK    5  A    between atoms: C_17  and  C_18 
REMARK    6  A    between atoms: C_18  and  C_19 
REMARK    7  A    between atoms: C_19  and  N_20 
REMARK       I    between atoms: N_20  and  C_21 
REMARK    8  A    between atoms: C_21  and  C_22 
ROOT
HETATM    1  C   UNL     1       7.368  28.003  58.052  1.00  0.00     0.156 C 
HETATM    2  N   UNL     1       8.276  28.917  58.191  1.00  0.00    -0.184 NA
ENDROOT
BRANCH   2   3
HETATM    3  N   UNL     1       8.135  29.793  59.242  1.00  0.00    -0.247 N 
HETATM    4  C   UNL     1       7.548  31.054  59.142  1.00  0.00     0.239 C 
HETATM    5  O   UNL     1       7.152  31.572  58.102  1.00  0.00    -0.272 OA
HETATM    6  H   UNL     1       8.113  29.337  60.150  1.00  0.00     0.192 HD
BRANCH   4   7
HETATM    7  C   UNL     1       7.504  31.763  60.479  1.00  0.00     0.124 C 
BRANCH   7   8
HETATM    8  C   UNL     1       6.112  32.319  60.758  1.00  0.00     0.132 C 
BRANCH   8   9
HETATM    9  N   UNL     1       5.854  32.560  62.169  1.00  0.00    -0.356 N 
HETATM   10  C   UNL     1       5.989  33.813  62.732  1.00  0.00     0.251 C 
HETATM   11  O   UNL     1       6.218  34.823  62.075  1.00  0.00    -0.268 OA
HETATM   12  H   UNL     1       5.929  31.758  62.779  1.00  0.00     0.162 HD
BRANCH  10  13
HETATM   13  C   UNL     1       5.876  33.893  64.218  1.00  0.00     0.032 A 
HETATM   14  C   UNL     1       6.999  33.889  65.059  1.00  0.00     0.017 A 
HETATM   15  C   UNL     1       6.836  33.978  66.445  1.00  0.00     0.001 A 
HETATM   16  C   UNL     1       5.558  34.057  66.997  1.00  0.00     0.000 A 
HETATM   17  C   UNL     1       4.438  34.040  66.168  1.00  0.00     0.001 A 
HETATM   18  C   UNL     1       4.595  33.956  64.783  1.00  0.00     0.017 A 
ENDBRANCH  10  13
ENDBRANCH   8   9
ENDBRANCH   7   8
ENDBRANCH   4   7
ENDBRANCH   2   3
BRANCH   1  19
HETATM   19  C   UNL     1       7.483  27.042  56.981  1.00  0.00     0.062 C 
HETATM   20  C   UNL     1       7.288  27.179  55.585  1.00  0.00     0.067 C 
HETATM   21  C   UNL     1       6.901  28.393  54.824  1.00  0.00     0.073 C 
HETATM   22  N   UNL     1       7.537  26.039  54.930  1.00  0.00    -0.169 NA
HETATM   23  N   UNL     1       7.778  25.121  55.903  1.00  0.00    -0.210 N 
HETATM   24  C   UNL     1       7.896  25.735  57.150  1.00  0.00     0.177 C 
BRANCH  23  25
HETATM   25  C   UNL     1       7.867  23.736  55.571  1.00  0.00     0.061 A 
HETATM   26  C   UNL     1       8.235  22.816  56.564  1.00  0.00     0.031 A 
HETATM   27  C   UNL     1       8.326  21.455  56.266  1.00  0.00     0.002 A 
HETATM   28  C   UNL     1       8.068  21.004  54.973  1.00  0.00     0.000 A 
HETATM   29  C   UNL     1       7.733  21.915  53.973  1.00  0.00     0.002 A 
HETATM   30  C   UNL     1       7.638  23.279  54.265  1.00  0.00     0.031 A 
ENDBRANCH  23  25
BRANCH  24  31
HETATM   31  O   UNL     1       8.347  25.143  58.260  1.00  0.00    -0.344 OA
HETATM   32  H   UNL     1       9.315  25.256  58.295  1.00  0.00     0.219 HD
ENDBRANCH  24  31
ENDBRANCH   1  19
TORSDOF 8
ENDMDL
MODEL 7
REMARK VINA RESULT:      -8.4      4.168      8.560
REMARK  8 active torsions:
REMARK  status: ('A' for Active; 'I' for Inactive)
REMARK    1  A    between atoms: N_4  and  C_5 
REMARK    2  A    between atoms: C_11  and  O_12 
REMARK    3  A    between atoms: C_13  and  C_14 
REMARK    4  A    between atoms: N_15  and  N_16 
REMARK       I    between atoms: N_16  and  C_17 
REMARK    5  A    between atoms: C_17  and  C_18 
REMARK    6  A    between atoms: C_18  and  C_19 
REMARK    7  A    between atoms: C_19  and  N_20 
REMARK       I    between atoms: N_20  and  C_21 
REMARK    8  A    between atoms: C_21  and  C_22 
ROOT
HETATM    1  C   UNL     1       6.026  27.486  54.838  1.00  0.00     0.156 C 
HETATM    2  N   UNL     1       6.036  27.877  53.602  1.00  0.00    -0.184 NA
ENDROOT
BRANCH   2   3
HETATM    3  N   UNL     1       5.417  29.071  53.314  1.00  0.00    -0.247 N 
HETATM    4  C   UNL     1       4.046  29.216  53.104  1.00  0.00     0.239 C 
HETATM    5  O   UNL     1       3.231  28.298  53.076  1.00  0.00    -0.272 OA
HETATM    6  H   UNL     1       5.929  29.884  53.646  1.00  0.00     0.192 HD
BRANCH   4   7
HETATM    7  C   UNL     1       3.664  30.658  52.846  1.00  0.00     0.124 C 
BRANCH   7   8
HETATM    8  C   UNL     1       3.321  30.879  51.377  1.00  0.00     0.132 C 
BRANCH   8   9
HETATM    9  N   UNL     1       3.340  29.659  50.585  1.00  0.00    -0.356 N 
HETATM   10  C   UNL     1       3.281  29.682  49.206  1.00  0.00     0.251 C 
HETATM   11  O   UNL     1       3.325  30.717  48.550  1.00  0.00    -0.268 OA
HETATM   12  H   UNL     1       3.039  28.817  51.056  1.00  0.00     0.162 HD
BRANCH  10  13
HETATM   13  C   UNL     1       3.123  28.365  48.522  1.00  0.00     0.032 A 
HETATM   14  C   UNL     1       4.213  27.530  48.237  1.00  0.00     0.017 A 
HETATM   15  C   UNL     1       4.007  26.301  47.604  1.00  0.00     0.001 A 
HETATM   16  C   UNL     1       2.720  25.906  47.242  1.00  0.00     0.000 A 
HETATM   17  C   UNL     1       1.635  26.741  47.504  1.00  0.00     0.001 A 
HETATM   18  C   UNL     1       1.835  27.967  48.140  1.00  0.00     0.017 A 
ENDBRANCH  10  13
ENDBRANCH   8   9
ENDBRANCH   7   8
ENDBRANCH   4   7
ENDBRANCH   2   3
BRANCH   1  19
HETATM   19  C   UNL     1       6.685  26.253  55.199  1.00  0.00     0.062 C 
HETATM   20  C   UNL     1       7.628  25.966  56.215  1.00  0.00     0.067 C 
HETATM   21  C   UNL     1       8.210  26.891  57.220  1.00  0.00     0.073 C 
HETATM   22  N   UNL     1       7.963  24.670  56.236  1.00  0.00    -0.169 NA
HETATM   23  N   UNL     1       7.336  24.127  55.160  1.00  0.00    -0.210 N 
HETATM   24  C   UNL     1       6.436  25.034  54.598  1.00  0.00     0.177 C 
BRANCH  23  25
HETATM   25  C   UNL     1       7.649  22.798  54.748  1.00  0.00     0.061 A 
HETATM   26  C   UNL     1       7.748  21.786  55.715  1.00  0.00     0.031 A 
HETATM   27  C   UNL     1       8.050  20.477  55.338  1.00  0.00     0.002 A 
HETATM   28  C   UNL     1       8.272  20.169  53.997  1.00  0.00     0.000 A 
HETATM   29  C   UNL     1       8.205  21.173  53.033  1.00  0.00     0.002 A 
HETATM   30  C   UNL     1       7.901  22.487  53.404  1.00  0.00     0.031 A 
ENDBRANCH  23  25
BRANCH  24  31
HETATM   31  O   UNL     1       5.516  24.733  53.677  1.00  0.00    -0.344 OA
HETATM   32  H   UNL     1       5.106  23.882  53.920  1.00  0.00     0.219 HD
ENDBRANCH  24  31
ENDBRANCH   1  19
TORSDOF 8
ENDMDL
MODEL 8
REMARK VINA RESULT:      -8.3      2.809     11.092
REMARK  8 active torsions:
REMARK  status: ('A' for Active; 'I' for Inactive)
REMARK    1  A    between atoms: N_4  and  C_5 
REMARK    2  A    between atoms: C_11  and  O_12 
REMARK    3  A    between atoms: C_13  and  C_14 
REMARK    4  A    between atoms: N_15  and  N_16 
REMARK       I    between atoms: N_16  and  C_17 
REMARK    5  A    between atoms: C_17  and  C_18 
REMARK    6  A    between atoms: C_18  and  C_19 
REMARK    7  A    between atoms: C_19  and  N_20 
REMARK       I    between atoms: N_20  and  C_21 
REMARK    8  A    between atoms: C_21  and  C_22 
ROOT
HETATM    1  C   UNL     1       6.702  29.087  57.695  1.00  0.00     0.156 C 
HETATM    2  N   UNL     1       7.171  30.293  57.618  1.00  0.00    -0.184 NA
ENDROOT
BRANCH   2   3
HETATM    3  N   UNL     1       7.281  31.003  58.792  1.00  0.00    -0.247 N 
HETATM    4  C   UNL     1       6.315  31.889  59.269  1.00  0.00     0.239 C 
HETATM    5  O   UNL     1       5.287  32.204  58.676  1.00  0.00    -0.272 OA
HETATM    6  H   UNL     1       7.893  30.566  59.475  1.00  0.00     0.192 HD
BRANCH   4   7
HETATM    7  C   UNL     1       6.706  32.485  60.604  1.00  0.00     0.124 C 
BRANCH   7   8
HETATM    8  C   UNL     1       5.545  33.258  61.219  1.00  0.00     0.132 C 
BRANCH   8   9
HETATM    9  N   UNL     1       5.787  33.674  62.592  1.00  0.00    -0.356 N 
HETATM   10  C   UNL     1       5.434  32.884  63.668  1.00  0.00     0.251 C 
HETATM   11  O   UNL     1       5.005  31.741  63.549  1.00  0.00    -0.268 OA
HETATM   12  H   UNL     1       5.877  34.668  62.746  1.00  0.00     0.162 HD
BRANCH  10  13
HETATM   13  C   UNL     1       5.565  33.500  65.021  1.00  0.00     0.032 A 
HETATM   14  C   UNL     1       6.805  33.662  65.656  1.00  0.00     0.017 A 
HETATM   15  C   UNL     1       6.872  34.256  66.920  1.00  0.00     0.001 A 
HETATM   16  C   UNL     1       5.706  34.678  67.558  1.00  0.00     0.000 A 
HETATM   17  C   UNL     1       4.469  34.501  66.941  1.00  0.00     0.001 A 
HETATM   18  C   UNL     1       4.398  33.912  65.677  1.00  0.00     0.017 A 
ENDBRANCH  10  13
ENDBRANCH   8   9
ENDBRANCH   7   8
ENDBRANCH   4   7
ENDBRANCH   2   3
BRANCH   1  19
HETATM   19  C   UNL     1       6.592  28.290  56.496  1.00  0.00     0.062 C 
HETATM   20  C   UNL     1       5.760  28.431  55.360  1.00  0.00     0.067 C 
HETATM   21  C   UNL     1       4.743  29.478  55.087  1.00  0.00     0.073 C 
HETATM   22  N   UNL     1       6.002  27.488  54.441  1.00  0.00    -0.169 NA
HETATM   23  N   UNL     1       6.905  26.656  55.022  1.00  0.00    -0.210 N 
HETATM   24  C   UNL     1       7.391  27.199  56.212  1.00  0.00     0.177 C 
BRANCH  23  25
HETATM   25  C   UNL     1       7.226  25.410  54.406  1.00  0.00     0.061 A 
HETATM   26  C   UNL     1       7.638  25.395  53.064  1.00  0.00     0.031 A 
HETATM   27  C   UNL     1       7.961  24.189  52.439  1.00  0.00     0.002 A 
HETATM   28  C   UNL     1       7.858  22.989  53.140  1.00  0.00     0.000 A 
HETATM   29  C   UNL     1       7.421  22.992  54.463  1.00  0.00     0.002 A 
HETATM   30  C   UNL     1       7.098  24.196  55.096  1.00  0.00     0.031 A 
ENDBRANCH  23  25
BRANCH  24  31
HETATM   31  O   UNL     1       8.441  26.737  56.897  1.00  0.00    -0.344 OA
HETATM   32  H   UNL     1       8.112  26.303  57.706  1.00  0.00     0.219 HD
ENDBRANCH  24  31
ENDBRANCH   1  19
TORSDOF 8
ENDMDL
MODEL 9
REMARK VINA RESULT:      -8.0      1.666      9.415
REMARK  8 active torsions:
REMARK  status: ('A' for Active; 'I' for Inactive)
REMARK    1  A    between atoms: N_4  and  C_5 
REMARK    2  A    between atoms: C_11  and  O_12 
REMARK    3  A    between atoms: C_13  and  C_14 
REMARK    4  A    between atoms: N_15  and  N_16 
REMARK       I    between atoms: N_16  and  C_17 
REMARK    5  A    between atoms: C_17  and  C_18 
REMARK    6  A    between atoms: C_18  and  C_19 
REMARK    7  A    between atoms: C_19  and  N_20 
REMARK       I    between atoms: N_20  and  C_21 
REMARK    8  A    between atoms: C_21  and  C_22 
ROOT
HETATM    1  C   UNL     1       6.036  27.185  55.441  1.00  0.00     0.156 C 
HETATM    2  N   UNL     1       5.516  28.195  54.817  1.00  0.00    -0.184 NA
ENDROOT
BRANCH   2   3
HETATM    3  N   UNL     1       5.307  29.345  55.543  1.00  0.00    -0.247 N 
HETATM    4  C   UNL     1       4.137  29.631  56.244  1.00  0.00     0.239 C 
HETATM    5  O   UNL     1       3.123  28.937  56.246  1.00  0.00    -0.272 OA
HETATM    6  H   UNL     1       6.166  29.782  55.866  1.00  0.00     0.192 HD
BRANCH   4   7
HETATM    7  C   UNL     1       4.225  30.953  56.975  1.00  0.00     0.124 C 
BRANCH   7   8
HETATM    8  C   UNL     1       5.596  31.594  56.784  1.00  0.00     0.132 C 
BRANCH   8   9
HETATM    9  N   UNL     1       6.294  31.858  58.032  1.00  0.00    -0.356 N 
HETATM   10  C   UNL     1       7.268  31.009  58.518  1.00  0.00     0.251 C 
HETATM   11  O   UNL     1       7.694  30.046  57.888  1.00  0.00    -0.268 OA
HETATM   12  H   UNL     1       5.815  32.454  58.692  1.00  0.00     0.162 HD
BRANCH  10  13
HETATM   13  C   UNL     1       7.775  31.291  59.893  1.00  0.00     0.032 A 
HETATM   14  C   UNL     1       8.758  30.503  60.508  1.00  0.00     0.017 A 
HETATM   15  C   UNL     1       9.207  30.820  61.794  1.00  0.00     0.001 A 
HETATM   16  C   UNL     1       8.668  31.911  62.475  1.00  0.00     0.000 A 
HETATM   17  C   UNL     1       7.675  32.686  61.877  1.00  0.00     0.001 A 
HETATM   18  C   UNL     1       7.228  32.376  60.591  1.00  0.00     0.017 A 
ENDBRANCH  10  13
ENDBRANCH   8   9
ENDBRANCH   7   8
ENDBRANCH   4   7
ENDBRANCH   2   3
BRANCH   1  19
HETATM   19  C   UNL     1       6.301  25.963  54.719  1.00  0.00     0.062 C 
HETATM   20  C   UNL     1       5.824  25.500  53.469  1.00  0.00     0.067 C 
HETATM   21  C   UNL     1       4.893  26.176  52.531  1.00  0.00     0.073 C 
HETATM   22  N   UNL     1       6.351  24.315  53.139  1.00  0.00    -0.169 NA
HETATM   23  N   UNL     1       7.079  23.940  54.223  1.00  0.00    -0.210 N 
HETATM   24  C   UNL     1       7.185  24.988  55.139  1.00  0.00     0.177 C 
BRANCH  23  25
HETATM   25  C   UNL     1       7.605  22.617  54.307  1.00  0.00     0.061 A 
HETATM   26  C   UNL     1       7.659  21.978  55.556  1.00  0.00     0.031 A 
HETATM   27  C   UNL     1       8.167  20.682  55.664  1.00  0.00     0.002 A 
HETATM   28  C   UNL     1       8.640  20.020  54.533  1.00  0.00     0.000 A 
HETATM   29  C   UNL     1       8.619  20.658  53.294  1.00  0.00     0.002 A 
HETATM   30  C   UNL     1       8.110  21.955  53.178  1.00  0.00     0.031 A 
ENDBRANCH  23  25
BRANCH  24  31
HETATM   31  O   UNL     1       8.011  25.011  56.189  1.00  0.00    -0.344 OA
HETATM   32  H   UNL     1       8.909  24.794  55.877  1.00  0.00     0.219 HD
ENDBRANCH  24  31
ENDBRANCH   1  19
TORSDOF 8
ENDMDL
MODEL 10
REMARK VINA RESULT:      -8.0      2.762      4.018
REMARK  8 active torsions:
REMARK  status: ('A' for Active; 'I' for Inactive)
REMARK    1  A    between atoms: N_4  and  C_5 
REMARK    2  A    between atoms: C_11  and  O_12 
REMARK    3  A    between atoms: C_13  and  C_14 
REMARK    4  A    between atoms: N_15  and  N_16 
REMARK       I    between atoms: N_16  and  C_17 
REMARK    5  A    between atoms: C_17  and  C_18 
REMARK    6  A    between atoms: C_18  and  C_19 
REMARK    7  A    between atoms: C_19  and  N_20 
REMARK       I    between atoms: N_20  and  C_21 
REMARK    8  A    between atoms: C_21  and  C_22 
ROOT
HETATM    1  C   UNL     1       6.082  31.603  57.967  1.00  0.00     0.156 C 
HETATM    2  N   UNL     1       6.899  30.732  58.469  1.00  0.00    -0.184 NA
ENDROOT
BRANCH   2   3
HETATM    3  N   UNL     1       7.470  29.829  57.602  1.00  0.00    -0.247 N 
HETATM    4  C   UNL     1       6.850  28.661  57.160  1.00  0.00     0.239 C 
HETATM    5  O   UNL     1       5.755  28.252  57.539  1.00  0.00    -0.272 OA
HETATM    6  H   UNL     1       8.182  30.238  57.002  1.00  0.00     0.192 HD
BRANCH   4   7
HETATM    7  C   UNL     1       7.716  27.897  56.183  1.00  0.00     0.124 C 
BRANCH   7   8
HETATM    8  C   UNL     1       6.863  27.106  55.198  1.00  0.00     0.132 C 
BRANCH   8   9
HETATM    9  N   UNL     1       7.165  25.683  55.178  1.00  0.00    -0.356 N 
HETATM   10  C   UNL     1       7.640  25.053  54.046  1.00  0.00     0.251 C 
HETATM   11  O   UNL     1       7.949  25.654  53.022  1.00  0.00    -0.268 OA
HETATM   12  H   UNL     1       6.693  25.118  55.870  1.00  0.00     0.162 HD
BRANCH  10  13
HETATM   13  C   UNL     1       7.736  23.564  54.100  1.00  0.00     0.032 A 
HETATM   14  C   UNL     1       7.873  22.777  52.948  1.00  0.00     0.017 A 
HETATM   15  C   UNL     1       7.970  21.387  53.057  1.00  0.00     0.001 A 
HETATM   16  C   UNL     1       7.916  20.776  54.310  1.00  0.00     0.000 A 
HETATM   17  C   UNL     1       7.759  21.552  55.457  1.00  0.00     0.001 A 
HETATM   18  C   UNL     1       7.666  22.941  55.353  1.00  0.00     0.017 A 
ENDBRANCH  10  13
ENDBRANCH   8   9
ENDBRANCH   7   8
ENDBRANCH   4   7
ENDBRANCH   2   3
BRANCH   1  19
HETATM   19  C   UNL     1       5.475  32.590  58.829  1.00  0.00     0.062 C 
HETATM   20  C   UNL     1       4.670  33.715  58.531  1.00  0.00     0.067 C 
HETATM   21  C   UNL     1       4.217  34.197  57.202  1.00  0.00     0.073 C 
HETATM   22  N   UNL     1       4.276  34.356  59.638  1.00  0.00    -0.169 NA
HETATM   23  N   UNL     1       4.918  33.727  60.656  1.00  0.00    -0.210 N 
HETATM   24  C   UNL     1       5.537  32.559  60.209  1.00  0.00     0.177 C 
BRANCH  23  25
HETATM   25  C   UNL     1       4.900  34.289  61.967  1.00  0.00     0.061 A 
HETATM   26  C   UNL     1       3.701  34.284  62.698  1.00  0.00     0.031 A 
HETATM   27  C   UNL     1       3.657  34.826  63.984  1.00  0.00     0.002 A 
HETATM   28  C   UNL     1       4.801  35.391  64.544  1.00  0.00     0.000 A 
HETATM   29  C   UNL     1       5.988  35.427  63.814  1.00  0.00     0.002 A 
HETATM   30  C   UNL     1       6.039  34.885  62.526  1.00  0.00     0.031 A 
ENDBRANCH  23  25
BRANCH  24  31
HETATM   31  O   UNL     1       6.055  31.612  60.997  1.00  0.00    -0.344 OA
HETATM   32  H   UNL     1       6.512  32.048  61.740  1.00  0.00     0.219 HD
ENDBRANCH  24  31
ENDBRANCH   1  19
TORSDOF 8
ENDMDL
