MODEL 1
REMARK VINA RESULT:      -8.0      0.000      0.000
REMARK  9 active torsions:
REMARK  status: ('A' for Active; 'I' for Inactive)
REMARK    1  A    between atoms: C_3  and  C_4 
REMARK    2  A    between atoms: C_4  and  C_5 
REMARK       I    between atoms: C_5  and  N_6 
REMARK    3  A    between atoms: N_6  and  C_7 
REMARK    4  A    between atoms: C_16  and  N_17 
REMARK       I    between atoms: N_17  and  C_18 
REMARK    5  A    between atoms: C_18  and  C_19 
REMARK    6  A    between atoms: C_19  and  O_20 
REMARK    7  A    between atoms: C_26  and  C_27 
REMARK    8  A    between atoms: C_27  and  O_28 
REMARK    9  A    between atoms: C_30  and  O_31 
ROOT
HETATM    1  C   UNL     1       8.044  28.214  54.051  1.00  0.00     0.016 C 
HETATM    2  C   UNL     1       6.699  27.457  53.821  1.00  0.00    -0.030 C 
HETATM    3  C   UNL     1       5.960  27.243  55.212  1.00  0.00     0.056 C 
HETATM    4  C   UNL     1       5.308  28.531  55.665  1.00  0.00     0.056 A 
HETATM    5  C   UNL     1       5.058  29.603  54.832  1.00  0.00     0.012 A 
HETATM    6  S   UNL     1       4.223  30.828  55.671  1.00  0.00    -0.055 SA
HETATM    7  C   UNL     1       4.288  29.867  57.080  1.00  0.00     0.174 A 
HETATM    8  N   UNL     1       4.871  28.698  56.967  1.00  0.00    -0.227 NA
HETATM    9  C   UNL     1       5.455  29.713  53.403  1.00  0.00     0.055 C 
HETATM   10  C   UNL     1       5.820  28.320  52.816  1.00  0.00     0.012 C 
HETATM   11  C   UNL     1       4.594  27.569  52.138  1.00  0.00     0.008 C 
HETATM   12  C   UNL     1       4.389  28.217  50.734  1.00  0.00     0.020 C 
HETATM   13  C   UNL     1       4.915  26.063  51.887  1.00  0.00     0.128 C 
HETATM   14  C   UNL     1       6.414  25.791  51.846  1.00  0.00     0.033 C 
HETATM   15  C   UNL     1       7.064  26.072  53.197  1.00  0.00     0.013 C 
ENDROOT
BRANCH   3  16
HETATM   16  C   UNL     1       6.871  26.650  56.308  1.00  0.00     0.114 C 
BRANCH  16  17
HETATM   17  C   UNL     1       6.639  25.169  56.546  1.00  0.00     0.218 C 
HETATM   18  N   UNL     1       7.589  24.331  56.021  1.00  0.00    -0.356 N 
HETATM   19  H   UNL     1       8.289  24.743  55.397  1.00  0.00     0.162 HD
HETATM   20  O   UNL     1       5.645  24.774  57.152  1.00  0.00    -0.274 OA
BRANCH  18  21
HETATM   21  C   UNL     1       7.382  22.903  55.943  1.00  0.00     0.084 C 
HETATM   22  C   UNL     1       7.571  22.372  54.524  1.00  0.00     0.025 C 
HETATM   23  C   UNL     1       7.975  20.909  54.687  1.00  0.00     0.002 C 
HETATM   24  C   UNL     1       8.314  20.712  56.163  1.00  0.00     0.002 C 
HETATM   25  C   UNL     1       8.395  22.109  56.758  1.00  0.00     0.025 C 
ENDBRANCH  18  21
ENDBRANCH  16  17
ENDBRANCH   3  16
BRANCH  11  26
HETATM   26  C   UNL     1       3.254  27.733  52.904  1.00  0.00     0.176 C 
BRANCH  26  27
HETATM   27  O   UNL     1       2.330  28.531  52.167  1.00  0.00    -0.400 OA
HETATM   28  H   UNL     1       1.450  28.171  52.404  1.00  0.00     0.209 HD
ENDBRANCH  26  27
ENDBRANCH  11  26
BRANCH   7  29
HETATM   29  N   UNL     1       3.698  30.431  58.170  1.00  0.00    -0.304 N 
HETATM   30  C   UNL     1       4.277  31.458  58.880  1.00  0.00     0.247 C 
HETATM   31  O   UNL     1       5.297  32.073  58.588  1.00  0.00    -0.271 OA
HETATM   32  H   UNL     1       2.812  30.057  58.484  1.00  0.00     0.171 HD
BRANCH  30  33
HETATM   33  C   UNL     1       3.446  31.831  60.111  1.00  0.00     0.270 C 
BRANCH  33  34
HETATM   34  O   UNL     1       2.589  32.951  59.888  1.00  0.00    -0.387 OA
HETATM   35  C   UNL     1       2.614  33.864  60.982  1.00  0.00     0.202 C 
ENDBRANCH  33  34
ENDBRANCH  30  33
ENDBRANCH   7  29
BRANCH  13  36
HETATM   36  O   UNL     1       4.320  25.245  52.899  1.00  0.00    -0.395 OA
HETATM   37  H   UNL     1       4.520  24.314  52.689  1.00  0.00     0.210 HD
ENDBRANCH  13  36
TORSDOF 9
ENDMDL
MODEL 2
REMARK VINA RESULT:      -7.6      2.736      4.532
REMARK  9 active torsions:
REMARK  status: ('A' for Active; 'I' for Inactive)
REMARK    1  A    between atoms: C_3  and  C_4 
REMARK    2  A    between atoms: C_4  and  C_5 
REMARK       I    between atoms: C_5  and  N_6 
REMARK    3  A    between atoms: N_6  and  C_7 
REMARK    4  A    between atoms: C_16  and  N_17 
REMARK       I    between atoms: N_17  and  C_18 
REMARK    5  A    between atoms: C_18  and  C_19 
REMARK    6  A    between atoms: C_19  and  O_20 
REMARK    7  A    between atoms: C_26  and  C_27 
REMARK    8  A    between atoms: C_27  and  O_28 
REMARK    9  A    between atoms: C_30  and  O_31 
ROOT
HETATM    1  C   UNL     1       5.978  28.971  48.866  1.00  0.00     0.016 C 
HETATM    2  C   UNL     1       4.545  28.401  49.107  1.00  0.00    -0.030 C 
HETATM    3  C   UNL     1       4.523  27.561  50.456  1.00  0.00     0.056 C 
HETATM    4  C   UNL     1       4.498  28.487  51.653  1.00  0.00     0.056 A 
HETATM    5  C   UNL     1       4.154  29.822  51.587  1.00  0.00     0.012 A 
HETATM    6  S   UNL     1       4.141  30.511  53.145  1.00  0.00    -0.055 SA
HETATM    7  C   UNL     1       4.627  29.005  53.783  1.00  0.00     0.174 A 
HETATM    8  N   UNL     1       4.783  28.026  52.926  1.00  0.00    -0.227 NA
HETATM    9  C   UNL     1       3.843  30.587  50.350  1.00  0.00     0.055 C 
HETATM   10  C   UNL     1       3.536  29.628  49.164  1.00  0.00     0.012 C 
HETATM   11  C   UNL     1       1.995  29.274  49.009  1.00  0.00     0.008 C 
HETATM   12  C   UNL     1       1.316  30.500  48.324  1.00  0.00     0.020 C 
HETATM   13  C   UNL     1       1.781  28.059  48.053  1.00  0.00     0.128 C 
HETATM   14  C   UNL     1       2.965  27.845  47.119  1.00  0.00     0.033 C 
HETATM   15  C   UNL     1       4.222  27.468  47.896  1.00  0.00     0.013 C 
ENDROOT
BRANCH   3  16
HETATM   16  C   UNL     1       5.667  26.530  50.557  1.00  0.00     0.114 C 
BRANCH  16  17
HETATM   17  C   UNL     1       5.433  25.472  51.620  1.00  0.00     0.218 C 
HETATM   18  N   UNL     1       6.447  25.314  52.529  1.00  0.00    -0.356 N 
HETATM   19  H   UNL     1       7.327  25.805  52.343  1.00  0.00     0.162 HD
HETATM   20  O   UNL     1       4.403  24.800  51.627  1.00  0.00    -0.274 OA
BRANCH  18  21
HETATM   21  C   UNL     1       6.486  24.190  53.436  1.00  0.00     0.084 C 
HETATM   22  C   UNL     1       7.592  23.201  53.076  1.00  0.00     0.025 C 
HETATM   23  C   UNL     1       7.947  22.493  54.382  1.00  0.00     0.002 C 
HETATM   24  C   UNL     1       7.282  23.289  55.502  1.00  0.00     0.002 C 
HETATM   25  C   UNL     1       6.819  24.591  54.867  1.00  0.00     0.025 C 
ENDBRANCH  18  21
ENDBRANCH  16  17
ENDBRANCH   3  16
BRANCH  11  26
HETATM   26  C   UNL     1       1.261  29.056  50.359  1.00  0.00     0.176 C 
BRANCH  26  27
HETATM   27  O   UNL     1       0.486  30.199  50.719  1.00  0.00    -0.400 OA
HETATM   28  H   UNL     1       0.171  30.007  51.626  1.00  0.00     0.209 HD
ENDBRANCH  26  27
ENDBRANCH  11  26
BRANCH   7  29
HETATM   29  N   UNL     1       4.779  28.994  55.137  1.00  0.00    -0.304 N 
HETATM   30  C   UNL     1       5.972  28.684  55.748  1.00  0.00     0.247 C 
HETATM   31  O   UNL     1       7.055  28.500  55.202  1.00  0.00    -0.271 OA
HETATM   32  H   UNL     1       3.972  29.194  55.712  1.00  0.00     0.171 HD
BRANCH  30  33
HETATM   33  C   UNL     1       5.834  28.652  57.272  1.00  0.00     0.270 C 
BRANCH  33  34
HETATM   34  O   UNL     1       7.044  28.988  57.951  1.00  0.00    -0.387 OA
HETATM   35  C   UNL     1       7.134  30.385  58.216  1.00  0.00     0.202 C 
ENDBRANCH  33  34
ENDBRANCH  30  33
ENDBRANCH   7  29
BRANCH  13  36
HETATM   36  O   UNL     1       1.555  26.861  48.803  1.00  0.00    -0.395 OA
HETATM   37  H   UNL     1       2.409  26.576  49.176  1.00  0.00     0.210 HD
ENDBRANCH  13  36
TORSDOF 9
ENDMDL
MODEL 3
REMARK VINA RESULT:      -7.3      2.527      3.985
REMARK  9 active torsions:
REMARK  status: ('A' for Active; 'I' for Inactive)
REMARK    1  A    between atoms: C_3  and  C_4 
REMARK    2  A    between atoms: C_4  and  C_5 
REMARK       I    between atoms: C_5  and  N_6 
REMARK    3  A    between atoms: N_6  and  C_7 
REMARK    4  A    between atoms: C_16  and  N_17 
REMARK       I    between atoms: N_17  and  C_18 
REMARK    5  A    between atoms: C_18  and  C_19 
REMARK    6  A    between atoms: C_19  and  O_20 
REMARK    7  A    between atoms: C_26  and  C_27 
REMARK    8  A    between atoms: C_27  and  O_28 
REMARK    9  A    between atoms: C_30  and  O_31 
ROOT
HETATM    1  C   UNL     1       6.057  30.156  49.603  1.00  0.00     0.016 C 
HETATM    2  C   UNL     1       4.759  29.295  49.690  1.00  0.00    -0.030 C 
HETATM    3  C   UNL     1       4.655  28.626  51.128  1.00  0.00     0.056 C 
HETATM    4  C   UNL     1       4.206  29.645  52.152  1.00  0.00     0.056 A 
HETATM    5  C   UNL     1       3.606  30.846  51.832  1.00  0.00     0.012 A 
HETATM    6  S   UNL     1       3.147  31.679  53.246  1.00  0.00    -0.055 SA
HETATM    7  C   UNL     1       3.809  30.407  54.173  1.00  0.00     0.174 A 
HETATM    8  N   UNL     1       4.330  29.405  53.509  1.00  0.00    -0.227 NA
HETATM    9  C   UNL     1       3.384  31.377  50.460  1.00  0.00     0.055 C 
HETATM   10  C   UNL     1       3.521  30.250  49.397  1.00  0.00     0.012 C 
HETATM   11  C   UNL     1       2.149  29.528  49.048  1.00  0.00     0.008 C 
HETATM   12  C   UNL     1       1.371  30.478  48.086  1.00  0.00     0.020 C 
HETATM   13  C   UNL     1       2.386  28.200  48.263  1.00  0.00     0.128 C 
HETATM   14  C   UNL     1       3.745  28.170  47.577  1.00  0.00     0.033 C 
HETATM   15  C   UNL     1       4.880  28.187  48.596  1.00  0.00     0.013 C 
ENDROOT
BRANCH   3  16
HETATM   16  C   UNL     1       5.951  27.910  51.567  1.00  0.00     0.114 C 
BRANCH  16  17
HETATM   17  C   UNL     1       5.754  26.433  51.853  1.00  0.00     0.218 C 
HETATM   18  N   UNL     1       6.445  25.944  52.933  1.00  0.00    -0.356 N 
HETATM   19  H   UNL     1       7.137  26.561  53.368  1.00  0.00     0.162 HD
HETATM   20  O   UNL     1       5.038  25.739  51.134  1.00  0.00    -0.274 OA
BRANCH  18  21
HETATM   21  C   UNL     1       6.562  24.526  53.181  1.00  0.00     0.084 C 
HETATM   22  C   UNL     1       7.767  23.917  52.467  1.00  0.00     0.025 C 
HETATM   23  C   UNL     1       8.147  22.686  53.288  1.00  0.00     0.002 C 
HETATM   24  C   UNL     1       7.377  22.785  54.602  1.00  0.00     0.002 C 
HETATM   25  C   UNL     1       6.812  24.196  54.647  1.00  0.00     0.025 C 
ENDBRANCH  18  21
ENDBRANCH  16  17
ENDBRANCH   3  16
BRANCH  11  26
HETATM   26  C   UNL     1       1.232  29.292  50.278  1.00  0.00     0.176 C 
BRANCH  26  27
HETATM   27  O   UNL     1       0.349  30.393  50.485  1.00  0.00    -0.400 OA
HETATM   28  H   UNL     1       0.722  30.867  51.256  1.00  0.00     0.209 HD
ENDBRANCH  26  27
ENDBRANCH  11  26
BRANCH   7  29
HETATM   29  N   UNL     1       3.696  30.580  55.520  1.00  0.00    -0.304 N 
HETATM   30  C   UNL     1       4.780  30.546  56.366  1.00  0.00     0.247 C 
HETATM   31  O   UNL     1       5.963  30.481  56.048  1.00  0.00    -0.271 OA
HETATM   32  H   UNL     1       2.773  30.709  55.912  1.00  0.00     0.171 HD
BRANCH  30  33
HETATM   33  C   UNL     1       4.356  30.670  57.832  1.00  0.00     0.270 C 
BRANCH  33  34
HETATM   34  O   UNL     1       3.273  31.580  58.026  1.00  0.00    -0.387 OA
HETATM   35  C   UNL     1       3.720  32.839  58.520  1.00  0.00     0.202 C 
ENDBRANCH  33  34
ENDBRANCH  30  33
ENDBRANCH   7  29
BRANCH  13  36
HETATM   36  O   UNL     1       2.278  27.072  49.136  1.00  0.00    -0.395 OA
HETATM   37  H   UNL     1       1.607  26.470  48.766  1.00  0.00     0.210 HD
ENDBRANCH  13  36
TORSDOF 9
ENDMDL
MODEL 4
REMARK VINA RESULT:      -7.2      2.732      3.118
REMARK  9 active torsions:
REMARK  status: ('A' for Active; 'I' for Inactive)
REMARK    1  A    between atoms: C_3  and  C_4 
REMARK    2  A    between atoms: C_4  and  C_5 
REMARK       I    between atoms: C_5  and  N_6 
REMARK    3  A    between atoms: N_6  and  C_7 
REMARK    4  A    between atoms: C_16  and  N_17 
REMARK       I    between atoms: N_17  and  C_18 
REMARK    5  A    between atoms: C_18  and  C_19 
REMARK    6  A    between atoms: C_19  and  O_20 
REMARK    7  A    between atoms: C_26  and  C_27 
REMARK    8  A    between atoms: C_27  and  O_28 
REMARK    9  A    between atoms: C_30  and  O_31 
ROOT
HETATM    1  C   UNL     1       8.634  28.298  54.266  1.00  0.00     0.016 C 
HETATM    2  C   UNL     1       7.387  27.618  54.913  1.00  0.00    -0.030 C 
HETATM    3  C   UNL     1       7.657  27.367  56.460  1.00  0.00     0.056 C 
HETATM    4  C   UNL     1       7.520  28.659  57.235  1.00  0.00     0.056 A 
HETATM    5  C   UNL     1       6.883  29.784  56.751  1.00  0.00     0.012 A 
HETATM    6  S   UNL     1       6.837  31.002  57.942  1.00  0.00    -0.055 SA
HETATM    7  C   UNL     1       7.694  29.965  58.993  1.00  0.00     0.174 A 
HETATM    8  N   UNL     1       7.997  28.777  58.528  1.00  0.00    -0.227 NA
HETATM    9  C   UNL     1       6.314  29.951  55.387  1.00  0.00     0.055 C 
HETATM   10  C   UNL     1       6.137  28.574  54.684  1.00  0.00     0.012 C 
HETATM   11  C   UNL     1       4.707  27.920  54.908  1.00  0.00     0.008 C 
HETATM   12  C   UNL     1       3.721  28.650  53.944  1.00  0.00     0.020 C 
HETATM   13  C   UNL     1       4.696  26.416  54.494  1.00  0.00     0.128 C 
HETATM   14  C   UNL     1       5.822  26.075  53.526  1.00  0.00     0.033 C 
HETATM   15  C   UNL     1       7.188  26.253  54.181  1.00  0.00     0.013 C 
ENDROOT
BRANCH   3  16
HETATM   16  C   UNL     1       9.007  26.673  56.743  1.00  0.00     0.114 C 
BRANCH  16  17
HETATM   17  C   UNL     1       8.864  25.213  57.127  1.00  0.00     0.218 C 
HETATM   18  N   UNL     1       9.085  24.312  56.116  1.00  0.00    -0.356 N 
HETATM   19  H   UNL     1       9.185  24.684  55.167  1.00  0.00     0.162 HD
HETATM   20  O   UNL     1       8.546  24.887  58.269  1.00  0.00    -0.274 OA
BRANCH  18  21
HETATM   21  C   UNL     1       8.743  22.915  56.255  1.00  0.00     0.084 C 
HETATM   22  C   UNL     1       7.353  22.607  55.703  1.00  0.00     0.025 C 
HETATM   23  C   UNL     1       7.389  21.132  55.309  1.00  0.00     0.002 C 
HETATM   24  C   UNL     1       8.856  20.708  55.343  1.00  0.00     0.002 C 
HETATM   25  C   UNL     1       9.657  21.997  55.454  1.00  0.00     0.025 C 
ENDBRANCH  18  21
ENDBRANCH  16  17
ENDBRANCH   3  16
BRANCH  11  26
HETATM   26  C   UNL     1       4.147  28.107  56.343  1.00  0.00     0.176 C 
BRANCH  26  27
HETATM   27  O   UNL     1       3.292  29.246  56.422  1.00  0.00    -0.400 OA
HETATM   28  H   UNL     1       2.679  29.044  57.158  1.00  0.00     0.209 HD
ENDBRANCH  26  27
ENDBRANCH  11  26
BRANCH   7  29
HETATM   29  N   UNL     1       7.949  30.498  60.220  1.00  0.00    -0.304 N 
HETATM   30  C   UNL     1       8.683  31.648  60.392  1.00  0.00     0.247 C 
HETATM   31  O   UNL     1       9.096  32.399  59.514  1.00  0.00    -0.271 OA
HETATM   32  H   UNL     1       7.607  30.009  61.036  1.00  0.00     0.171 HD
BRANCH  30  33
HETATM   33  C   UNL     1       8.898  31.965  61.875  1.00  0.00     0.270 C 
BRANCH  33  34
HETATM   34  O   UNL     1       7.910  32.847  62.407  1.00  0.00    -0.387 OA
HETATM   35  C   UNL     1       6.798  32.136  62.943  1.00  0.00     0.202 C 
ENDBRANCH  33  34
ENDBRANCH  30  33
ENDBRANCH   7  29
BRANCH  13  36
HETATM   36  O   UNL     1       4.801  25.575  55.647  1.00  0.00    -0.395 OA
HETATM   37  H   UNL     1       5.368  26.028  56.298  1.00  0.00     0.210 HD
ENDBRANCH  13  36
TORSDOF 9
ENDMDL
MODEL 5
REMARK VINA RESULT:      -7.2      5.385     10.766
REMARK  9 active torsions:
REMARK  status: ('A' for Active; 'I' for Inactive)
REMARK    1  A    between atoms: C_3  and  C_4 
REMARK    2  A    between atoms: C_4  and  C_5 
REMARK       I    between atoms: C_5  and  N_6 
REMARK    3  A    between atoms: N_6  and  C_7 
REMARK    4  A    between atoms: C_16  and  N_17 
REMARK       I    between atoms: N_17  and  C_18 
REMARK    5  A    between atoms: C_18  and  C_19 
REMARK    6  A    between atoms: C_19  and  O_20 
REMARK    7  A    between atoms: C_26  and  C_27 
REMARK    8  A    between atoms: C_27  and  O_28 
REMARK    9  A    between atoms: C_30  and  O_31 
ROOT
HETATM    1  C   UNL     1       1.698  34.729  62.584  1.00  0.00     0.016 C 
HETATM    2  C   UNL     1       3.195  35.131  62.757  1.00  0.00    -0.030 C 
HETATM    3  C   UNL     1       4.118  34.125  61.941  1.00  0.00     0.056 C 
HETATM    4  C   UNL     1       4.066  34.445  60.463  1.00  0.00     0.056 A 
HETATM    5  C   UNL     1       3.615  35.644  59.950  1.00  0.00     0.012 A 
HETATM    6  S   UNL     1       3.803  35.676  58.256  1.00  0.00    -0.055 SA
HETATM    7  C   UNL     1       4.432  34.090  58.327  1.00  0.00     0.174 A 
HETATM    8  N   UNL     1       4.525  33.547  59.516  1.00  0.00    -0.227 NA
HETATM    9  C   UNL     1       3.031  36.767  60.730  1.00  0.00     0.055 C 
HETATM   10  C   UNL     1       3.361  36.627  62.243  1.00  0.00     0.012 C 
HETATM   11  C   UNL     1       4.694  37.372  62.680  1.00  0.00     0.008 C 
HETATM   12  C   UNL     1       4.347  38.888  62.796  1.00  0.00     0.020 C 
HETATM   13  C   UNL     1       5.165  36.917  64.097  1.00  0.00     0.128 C 
HETATM   14  C   UNL     1       4.031  36.314  64.916  1.00  0.00     0.033 C 
HETATM   15  C   UNL     1       3.516  35.025  64.282  1.00  0.00     0.013 C 
ENDROOT
BRANCH   3  16
HETATM   16  C   UNL     1       3.798  32.640  62.214  1.00  0.00     0.114 C 
BRANCH  16  17
HETATM   17  C   UNL     1       5.032  31.801  62.493  1.00  0.00     0.218 C 
HETATM   18  N   UNL     1       6.155  32.152  61.789  1.00  0.00    -0.356 N 
HETATM   19  H   UNL     1       6.046  32.841  61.040  1.00  0.00     0.162 HD
HETATM   20  O   UNL     1       4.992  30.860  63.284  1.00  0.00    -0.274 OA
BRANCH  18  21
HETATM   21  C   UNL     1       7.325  31.303  61.753  1.00  0.00     0.084 C 
HETATM   22  C   UNL     1       7.807  31.052  60.326  1.00  0.00     0.025 C 
HETATM   23  C   UNL     1       9.300  30.754  60.448  1.00  0.00     0.002 C 
HETATM   24  C   UNL     1       9.707  31.142  61.868  1.00  0.00     0.002 C 
HETATM   25  C   UNL     1       8.535  31.929  62.434  1.00  0.00     0.025 C 
ENDBRANCH  18  21
ENDBRANCH  16  17
ENDBRANCH   3  16
BRANCH  11  26
HETATM   26  C   UNL     1       5.847  37.257  61.647  1.00  0.00     0.176 C 
BRANCH  26  27
HETATM   27  O   UNL     1       6.599  38.467  61.572  1.00  0.00    -0.400 OA
HETATM   28  H   UNL     1       5.927  39.178  61.619  1.00  0.00     0.209 HD
ENDBRANCH  26  27
ENDBRANCH  11  26
BRANCH   7  29
HETATM   29  N   UNL     1       4.787  33.575  57.117  1.00  0.00    -0.304 N 
HETATM   30  C   UNL     1       3.974  32.724  56.404  1.00  0.00     0.247 C 
HETATM   31  O   UNL     1       2.819  32.410  56.672  1.00  0.00    -0.271 OA
HETATM   32  H   UNL     1       5.698  33.808  56.744  1.00  0.00     0.171 HD
BRANCH  30  33
HETATM   33  C   UNL     1       4.659  32.222  55.131  1.00  0.00     0.270 C 
BRANCH  33  34
HETATM   34  O   UNL     1       4.639  30.800  55.008  1.00  0.00    -0.387 OA
HETATM   35  C   UNL     1       5.522  30.175  55.934  1.00  0.00     0.202 C 
ENDBRANCH  33  34
ENDBRANCH  30  33
ENDBRANCH   7  29
BRANCH  13  36
HETATM   36  O   UNL     1       6.225  35.962  63.994  1.00  0.00    -0.395 OA
HETATM   37  H   UNL     1       6.877  36.161  64.691  1.00  0.00     0.210 HD
ENDBRANCH  13  36
TORSDOF 9
ENDMDL
MODEL 6
REMARK VINA RESULT:      -7.1      2.833      7.206
REMARK  9 active torsions:
REMARK  status: ('A' for Active; 'I' for Inactive)
REMARK    1  A    between atoms: C_3  and  C_4 
REMARK    2  A    between atoms: C_4  and  C_5 
REMARK       I    between atoms: C_5  and  N_6 
REMARK    3  A    between atoms: N_6  and  C_7 
REMARK    4  A    between atoms: C_16  and  N_17 
REMARK       I    between atoms: N_17  and  C_18 
REMARK    5  A    between atoms: C_18  and  C_19 
REMARK    6  A    between atoms: C_19  and  O_20 
REMARK    7  A    between atoms: C_26  and  C_27 
REMARK    8  A    between atoms: C_27  and  O_28 
REMARK    9  A    between atoms: C_30  and  O_31 
ROOT
HETATM    1  C   UNL     1       8.552  28.669  54.648  1.00  0.00     0.016 C 
HETATM    2  C   UNL     1       7.593  27.594  55.247  1.00  0.00    -0.030 C 
HETATM    3  C   UNL     1       6.084  28.046  55.036  1.00  0.00     0.056 C 
HETATM    4  C   UNL     1       5.660  27.815  53.602  1.00  0.00     0.056 A 
HETATM    5  C   UNL     1       6.332  26.990  52.723  1.00  0.00     0.012 A 
HETATM    6  S   UNL     1       5.503  26.901  51.237  1.00  0.00    -0.055 SA
HETATM    7  C   UNL     1       4.341  27.987  51.854  1.00  0.00     0.174 A 
HETATM    8  N   UNL     1       4.516  28.398  53.086  1.00  0.00    -0.227 NA
HETATM    9  C   UNL     1       7.606  26.273  52.995  1.00  0.00     0.055 C 
HETATM   10  C   UNL     1       7.898  26.212  54.522  1.00  0.00     0.012 C 
HETATM   11  C   UNL     1       7.327  24.910  55.231  1.00  0.00     0.008 C 
HETATM   12  C   UNL     1       8.310  23.746  54.897  1.00  0.00     0.020 C 
HETATM   13  C   UNL     1       7.330  25.058  56.785  1.00  0.00     0.128 C 
HETATM   14  C   UNL     1       8.315  26.118  57.262  1.00  0.00     0.033 C 
HETATM   15  C   UNL     1       7.912  27.506  56.773  1.00  0.00     0.013 C 
ENDROOT
BRANCH   3  16
HETATM   16  C   UNL     1       5.808  29.497  55.485  1.00  0.00     0.114 C 
BRANCH  16  17
HETATM   17  C   UNL     1       5.794  29.668  56.993  1.00  0.00     0.218 C 
HETATM   18  N   UNL     1       6.653  30.616  57.488  1.00  0.00    -0.356 N 
HETATM   19  H   UNL     1       7.328  31.026  56.836  1.00  0.00     0.162 HD
HETATM   20  O   UNL     1       5.069  28.972  57.701  1.00  0.00    -0.274 OA
BRANCH  18  21
HETATM   21  C   UNL     1       6.938  30.719  58.901  1.00  0.00     0.084 C 
HETATM   22  C   UNL     1       8.313  30.153  59.251  1.00  0.00     0.025 C 
HETATM   23  C   UNL     1       8.741  30.882  60.522  1.00  0.00     0.002 C 
HETATM   24  C   UNL     1       7.775  32.052  60.700  1.00  0.00     0.002 C 
HETATM   25  C   UNL     1       7.010  32.159  59.390  1.00  0.00     0.025 C 
ENDBRANCH  18  21
ENDBRANCH  16  17
ENDBRANCH   3  16
BRANCH  11  26
HETATM   26  C   UNL     1       5.929  24.474  54.716  1.00  0.00     0.176 C 
BRANCH  26  27
HETATM   27  O   UNL     1       6.032  23.735  53.500  1.00  0.00    -0.400 OA
HETATM   28  H   UNL     1       5.185  23.248  53.435  1.00  0.00     0.209 HD
ENDBRANCH  26  27
ENDBRANCH  11  26
BRANCH   7  29
HETATM   29  N   UNL     1       3.339  28.289  50.982  1.00  0.00    -0.304 N 
HETATM   30  C   UNL     1       3.400  29.360  50.122  1.00  0.00     0.247 C 
HETATM   31  O   UNL     1       4.361  30.098  49.929  1.00  0.00    -0.271 OA
HETATM   32  H   UNL     1       2.505  27.716  50.992  1.00  0.00     0.171 HD
BRANCH  30  33
HETATM   33  C   UNL     1       2.101  29.522  49.328  1.00  0.00     0.270 C 
BRANCH  33  34
HETATM   34  O   UNL     1       1.636  28.298  48.761  1.00  0.00    -0.387 OA
HETATM   35  C   UNL     1       2.237  28.036  47.496  1.00  0.00     0.202 C 
ENDBRANCH  33  34
ENDBRANCH  30  33
ENDBRANCH   7  29
BRANCH  13  36
HETATM   36  O   UNL     1       6.022  25.387  57.262  1.00  0.00    -0.395 OA
HETATM   37  H   UNL     1       5.401  25.309  56.515  1.00  0.00     0.210 HD
ENDBRANCH  13  36
TORSDOF 9
ENDMDL
MODEL 7
REMARK VINA RESULT:      -7.0      4.343      6.254
REMARK  9 active torsions:
REMARK  status: ('A' for Active; 'I' for Inactive)
REMARK    1  A    between atoms: C_3  and  C_4 
REMARK    2  A    between atoms: C_4  and  C_5 
REMARK       I    between atoms: C_5  and  N_6 
REMARK    3  A    between atoms: N_6  and  C_7 
REMARK    4  A    between atoms: C_16  and  N_17 
REMARK       I    between atoms: N_17  and  C_18 
REMARK    5  A    between atoms: C_18  and  C_19 
REMARK    6  A    between atoms: C_19  and  O_20 
REMARK    7  A    between atoms: C_26  and  C_27 
REMARK    8  A    between atoms: C_27  and  O_28 
REMARK    9  A    between atoms: C_30  and  O_31 
ROOT
HETATM    1  C   UNL     1       5.536  28.177  47.056  1.00  0.00     0.016 C 
HETATM    2  C   UNL     1       4.205  28.173  47.871  1.00  0.00    -0.030 C 
HETATM    3  C   UNL     1       4.500  28.587  49.378  1.00  0.00     0.056 C 
HETATM    4  C   UNL     1       4.713  30.082  49.481  1.00  0.00     0.056 A 
HETATM    5  C   UNL     1       4.328  30.984  48.510  1.00  0.00     0.012 A 
HETATM    6  S   UNL     1       4.637  32.579  49.022  1.00  0.00    -0.055 SA
HETATM    7  C   UNL     1       5.289  31.956  50.471  1.00  0.00     0.174 A 
HETATM    8  N   UNL     1       5.280  30.652  50.607  1.00  0.00    -0.227 NA
HETATM    9  C   UNL     1       3.735  30.649  47.188  1.00  0.00     0.055 C 
HETATM   10  C   UNL     1       3.201  29.188  47.170  1.00  0.00     0.012 C 
HETATM   11  C   UNL     1       1.673  29.059  47.587  1.00  0.00     0.008 C 
HETATM   12  C   UNL     1       0.829  29.486  46.346  1.00  0.00     0.020 C 
HETATM   13  C   UNL     1       1.288  27.578  47.893  1.00  0.00     0.128 C 
HETATM   14  C   UNL     1       2.245  26.586  47.243  1.00  0.00     0.033 C 
HETATM   15  C   UNL     1       3.651  26.714  47.821  1.00  0.00     0.013 C 
ENDROOT
BRANCH   3  16
HETATM   16  C   UNL     1       5.665  27.800  50.015  1.00  0.00     0.114 C 
BRANCH  16  17
HETATM   17  C   UNL     1       5.316  27.193  51.361  1.00  0.00     0.218 C 
HETATM   18  N   UNL     1       6.245  26.324  51.875  1.00  0.00    -0.356 N 
HETATM   19  H   UNL     1       7.016  26.043  51.262  1.00  0.00     0.162 HD
HETATM   20  O   UNL     1       4.254  27.461  51.920  1.00  0.00    -0.274 OA
BRANCH  18  21
HETATM   21  C   UNL     1       5.949  25.480  53.010  1.00  0.00     0.084 C 
HETATM   22  C   UNL     1       6.694  24.149  52.944  1.00  0.00     0.025 C 
HETATM   23  C   UNL     1       6.831  23.687  54.393  1.00  0.00     0.002 C 
HETATM   24  C   UNL     1       6.456  24.882  55.268  1.00  0.00     0.002 C 
HETATM   25  C   UNL     1       6.406  26.080  54.332  1.00  0.00     0.025 C 
ENDBRANCH  18  21
ENDBRANCH  16  17
ENDBRANCH   3  16
BRANCH  11  26
HETATM   26  C   UNL     1       1.257  29.995  48.752  1.00  0.00     0.176 C 
BRANCH  26  27
HETATM   27  O   UNL     1       0.309  30.970  48.321  1.00  0.00    -0.400 OA
HETATM   28  H   UNL     1      -0.546  30.493  48.307  1.00  0.00     0.209 HD
ENDBRANCH  26  27
ENDBRANCH  11  26
BRANCH   7  29
HETATM   29  N   UNL     1       5.733  32.907  51.340  1.00  0.00    -0.304 N 
HETATM   30  C   UNL     1       4.912  33.511  52.263  1.00  0.00     0.247 C 
HETATM   31  O   UNL     1       3.748  33.219  52.518  1.00  0.00    -0.271 OA
HETATM   32  H   UNL     1       6.700  33.197  51.280  1.00  0.00     0.171 HD
BRANCH  30  33
HETATM   33  C   UNL     1       5.646  34.607  53.040  1.00  0.00     0.270 C 
BRANCH  33  34
HETATM   34  O   UNL     1       6.631  35.283  52.258  1.00  0.00    -0.387 OA
HETATM   35  C   UNL     1       7.578  35.967  53.073  1.00  0.00     0.202 C 
ENDBRANCH  33  34
ENDBRANCH  30  33
ENDBRANCH   7  29
BRANCH  13  36
HETATM   36  O   UNL     1       1.262  27.345  49.304  1.00  0.00    -0.395 OA
HETATM   37  H   UNL     1       2.155  27.066  49.579  1.00  0.00     0.210 HD
ENDBRANCH  13  36
TORSDOF 9
ENDMDL
MODEL 8
REMARK VINA RESULT:      -6.9      8.053     11.302
REMARK  9 active torsions:
REMARK  status: ('A' for Active; 'I' for Inactive)
REMARK    1  A    between atoms: C_3  and  C_4 
REMARK    2  A    between atoms: C_4  and  C_5 
REMARK       I    between atoms: C_5  and  N_6 
REMARK    3  A    between atoms: N_6  and  C_7 
REMARK    4  A    between atoms: C_16  and  N_17 
REMARK       I    between atoms: N_17  and  C_18 
REMARK    5  A    between atoms: C_18  and  C_19 
REMARK    6  A    between atoms: C_19  and  O_20 
REMARK    7  A    between atoms: C_26  and  C_27 
REMARK    8  A    between atoms: C_27  and  O_28 
REMARK    9  A    between atoms: C_30  and  O_31 
ROOT
HETATM    1  C   UNL     1       1.953  34.530  62.109  1.00  0.00     0.016 C 
HETATM    2  C   UNL     1       3.474  34.687  62.420  1.00  0.00    -0.030 C 
HETATM    3  C   UNL     1       4.292  34.774  61.060  1.00  0.00     0.056 C 
HETATM    4  C   UNL     1       4.142  36.148  60.442  1.00  0.00     0.056 A 
HETATM    5  C   UNL     1       3.701  37.258  61.132  1.00  0.00     0.012 A 
HETATM    6  S   UNL     1       3.762  38.641  60.138  1.00  0.00    -0.055 SA
HETATM    7  C   UNL     1       4.331  37.661  58.862  1.00  0.00     0.174 A 
HETATM    8  N   UNL     1       4.493  36.387  59.126  1.00  0.00    -0.227 NA
HETATM    9  C   UNL     1       3.221  37.283  62.540  1.00  0.00     0.055 C 
HETATM   10  C   UNL     1       3.659  35.999  63.301  1.00  0.00     0.012 C 
HETATM   11  C   UNL     1       5.049  36.143  64.055  1.00  0.00     0.008 C 
HETATM   12  C   UNL     1       4.771  36.943  65.365  1.00  0.00     0.020 C 
HETATM   13  C   UNL     1       5.607  34.754  64.496  1.00  0.00     0.128 C 
HETATM   14  C   UNL     1       4.515  33.696  64.586  1.00  0.00     0.033 C 
HETATM   15  C   UNL     1       3.904  33.415  63.217  1.00  0.00     0.013 C 
ENDROOT
BRANCH   3  16
HETATM   16  C   UNL     1       3.936  33.656  60.056  1.00  0.00     0.114 C 
BRANCH  16  17
HETATM   17  C   UNL     1       4.993  32.572  59.965  1.00  0.00     0.218 C 
HETATM   18  N   UNL     1       5.993  32.641  60.902  1.00  0.00    -0.356 N 
HETATM   19  H   UNL     1       6.032  33.481  61.488  1.00  0.00     0.162 HD
HETATM   20  O   UNL     1       4.946  31.715  59.085  1.00  0.00    -0.274 OA
BRANCH  18  21
HETATM   21  C   UNL     1       7.193  31.844  60.793  1.00  0.00     0.084 C 
HETATM   22  C   UNL     1       8.402  32.681  60.380  1.00  0.00     0.025 C 
HETATM   23  C   UNL     1       9.618  31.937  60.926  1.00  0.00     0.002 C 
HETATM   24  C   UNL     1       9.085  30.882  61.892  1.00  0.00     0.002 C 
HETATM   25  C   UNL     1       7.621  31.229  62.118  1.00  0.00     0.025 C 
ENDBRANCH  18  21
ENDBRANCH  16  17
ENDBRANCH   3  16
BRANCH  11  26
HETATM   26  C   UNL     1       6.115  36.945  63.262  1.00  0.00     0.176 C 
BRANCH  26  27
HETATM   27  O   UNL     1       6.477  38.144  63.945  1.00  0.00    -0.400 OA
HETATM   28  H   UNL     1       6.197  38.865  63.343  1.00  0.00     0.209 HD
ENDBRANCH  26  27
ENDBRANCH  11  26
BRANCH   7  29
HETATM   29  N   UNL     1       4.574  38.335  57.703  1.00  0.00    -0.304 N 
HETATM   30  C   UNL     1       5.735  39.038  57.482  1.00  0.00     0.247 C 
HETATM   31  O   UNL     1       6.729  39.066  58.200  1.00  0.00    -0.271 OA
HETATM   32  H   UNL     1       3.855  38.340  56.991  1.00  0.00     0.171 HD
BRANCH  30  33
HETATM   33  C   UNL     1       5.701  39.778  56.142  1.00  0.00     0.270 C 
BRANCH  33  34
HETATM   34  O   UNL     1       5.579  38.902  55.022  1.00  0.00    -0.387 OA
HETATM   35  C   UNL     1       6.768  38.145  54.809  1.00  0.00     0.202 C 
ENDBRANCH  33  34
ENDBRANCH  30  33
ENDBRANCH   7  29
BRANCH  13  36
HETATM   36  O   UNL     1       6.619  34.306  63.589  1.00  0.00    -0.395 OA
HETATM   37  H   UNL     1       6.195  34.140  62.727  1.00  0.00     0.210 HD
ENDBRANCH  13  36
TORSDOF 9
ENDMDL
MODEL 9
REMARK VINA RESULT:      -6.6      4.833      8.793
REMARK  9 active torsions:
REMARK  status: ('A' for Active; 'I' for Inactive)
REMARK    1  A    between atoms: C_3  and  C_4 
REMARK    2  A    between atoms: C_4  and  C_5 
REMARK       I    between atoms: C_5  and  N_6 
REMARK    3  A    between atoms: N_6  and  C_7 
REMARK    4  A    between atoms: C_16  and  N_17 
REMARK       I    between atoms: N_17  and  C_18 
REMARK    5  A    between atoms: C_18  and  C_19 
REMARK    6  A    between atoms: C_19  and  O_20 
REMARK    7  A    between atoms: C_26  and  C_27 
REMARK    8  A    between atoms: C_27  and  O_28 
REMARK    9  A    between atoms: C_30  and  O_31 
ROOT
HETATM    1  C   UNL     1       1.546  31.833  50.181  1.00  0.00     0.016 C 
HETATM    2  C   UNL     1       2.413  30.837  49.348  1.00  0.00    -0.030 C 
HETATM    3  C   UNL     1       3.892  30.800  49.931  1.00  0.00     0.056 C 
HETATM    4  C   UNL     1       3.936  29.980  51.202  1.00  0.00     0.056 A 
HETATM    5  C   UNL     1       2.951  29.090  51.580  1.00  0.00     0.012 A 
HETATM    6  S   UNL     1       3.397  28.280  53.012  1.00  0.00    -0.055 SA
HETATM    7  C   UNL     1       4.839  29.193  53.043  1.00  0.00     0.174 A 
HETATM    8  N   UNL     1       5.019  30.042  52.061  1.00  0.00    -0.227 NA
HETATM    9  C   UNL     1       1.666  28.852  50.871  1.00  0.00     0.055 C 
HETATM   10  C   UNL     1       1.718  29.409  49.419  1.00  0.00     0.012 C 
HETATM   11  C   UNL     1       2.199  28.344  48.342  1.00  0.00     0.008 C 
HETATM   12  C   UNL     1       0.979  27.417  48.048  1.00  0.00     0.020 C 
HETATM   13  C   UNL     1       2.569  29.028  46.989  1.00  0.00     0.128 C 
HETATM   14  C   UNL     1       1.916  30.395  46.835  1.00  0.00     0.033 C 
HETATM   15  C   UNL     1       2.434  31.376  47.883  1.00  0.00     0.013 C 
ENDROOT
BRANCH   3  16
HETATM   16  C   UNL     1       4.508  32.200  50.133  1.00  0.00     0.114 C 
BRANCH  16  17
HETATM   17  C   UNL     1       5.884  32.348  49.510  1.00  0.00     0.218 C 
HETATM   18  N   UNL     1       6.123  33.546  48.886  1.00  0.00    -0.356 N 
HETATM   19  H   UNL     1       5.329  34.180  48.762  1.00  0.00     0.162 HD
HETATM   20  O   UNL     1       6.701  31.430  49.555  1.00  0.00    -0.274 OA
BRANCH  18  21
HETATM   21  C   UNL     1       7.276  33.743  48.037  1.00  0.00     0.084 C 
HETATM   22  C   UNL     1       6.917  33.657  46.555  1.00  0.00     0.025 C 
HETATM   23  C   UNL     1       7.971  34.491  45.832  1.00  0.00     0.002 C 
HETATM   24  C   UNL     1       8.712  35.284  46.907  1.00  0.00     0.002 C 
HETATM   25  C   UNL     1       7.888  35.130  48.176  1.00  0.00     0.025 C 
ENDBRANCH  18  21
ENDBRANCH  16  17
ENDBRANCH   3  16
BRANCH  11  26
HETATM   26  C   UNL     1       3.348  27.425  48.835  1.00  0.00     0.176 C 
BRANCH  26  27
HETATM   27  O   UNL     1       2.947  26.056  48.849  1.00  0.00    -0.400 OA
HETATM   28  H   UNL     1       1.970  26.085  48.910  1.00  0.00     0.209 HD
ENDBRANCH  26  27
ENDBRANCH  11  26
BRANCH   7  29
HETATM   29  N   UNL     1       5.657  28.911  54.095  1.00  0.00    -0.304 N 
HETATM   30  C   UNL     1       6.597  27.906  54.057  1.00  0.00     0.247 C 
HETATM   31  O   UNL     1       6.912  27.227  53.086  1.00  0.00    -0.271 OA
HETATM   32  H   UNL     1       5.546  29.445  54.946  1.00  0.00     0.171 HD
BRANCH  30  33
HETATM   33  C   UNL     1       7.306  27.745  55.405  1.00  0.00     0.270 C 
BRANCH  33  34
HETATM   34  O   UNL     1       6.475  27.158  56.407  1.00  0.00    -0.387 OA
HETATM   35  C   UNL     1       6.395  25.743  56.267  1.00  0.00     0.202 C 
ENDBRANCH  33  34
ENDBRANCH  30  33
ENDBRANCH   7  29
BRANCH  13  36
HETATM   36  O   UNL     1       3.988  29.172  46.870  1.00  0.00    -0.395 OA
HETATM   37  H   UNL     1       4.315  29.602  47.681  1.00  0.00     0.210 HD
ENDBRANCH  13  36
TORSDOF 9
ENDMDL
MODEL 10
REMARK VINA RESULT:      -6.5      5.257     10.115
REMARK  9 active torsions:
REMARK  status: ('A' for Active; 'I' for Inactive)
REMARK    1  A    between atoms: C_3  and  C_4 
REMARK    2  A    between atoms: C_4  and  C_5 
REMARK       I    between atoms: C_5  and  N_6 
REMARK    3  A    between atoms: N_6  and  C_7 
REMARK    4  A    between atoms: C_16  and  N_17 
REMARK       I    between atoms: N_17  and  C_18 
REMARK    5  A    between atoms: C_18  and  C_19 
REMARK    6  A    between atoms: C_19  and  O_20 
REMARK    7  A    between atoms: C_26  and  C_27 
REMARK    8  A    between atoms: C_27  and  O_28 
REMARK    9  A    between atoms: C_30  and  O_31 
ROOT
HETATM    1  C   UNL     1       4.876  35.320  56.720  1.00  0.00     0.016 C 
HETATM    2  C   UNL     1       3.922  34.519  57.661  1.00  0.00    -0.030 C 
HETATM    3  C   UNL     1       2.806  33.789  56.796  1.00  0.00     0.056 C 
HETATM    4  C   UNL     1       3.382  32.564  56.119  1.00  0.00     0.056 A 
HETATM    5  C   UNL     1       4.562  31.957  56.499  1.00  0.00     0.012 A 
HETATM    6  S   UNL     1       4.833  30.550  55.576  1.00  0.00    -0.055 SA
HETATM    7  C   UNL     1       3.390  30.869  54.721  1.00  0.00     0.174 A 
HETATM    8  N   UNL     1       2.717  31.935  55.082  1.00  0.00    -0.227 NA
HETATM    9  C   UNL     1       5.497  32.439  57.550  1.00  0.00     0.055 C 
HETATM   10  C   UNL     1       4.805  33.479  58.478  1.00  0.00     0.012 C 
HETATM   11  C   UNL     1       4.120  32.837  59.760  1.00  0.00     0.008 C 
HETATM   12  C   UNL     1       5.262  32.540  60.780  1.00  0.00     0.020 C 
HETATM   13  C   UNL     1       3.156  33.846  60.458  1.00  0.00     0.128 C 
HETATM   14  C   UNL     1       3.478  35.292  60.103  1.00  0.00     0.033 C 
HETATM   15  C   UNL     1       3.256  35.559  58.617  1.00  0.00     0.013 C 
ENDROOT
BRANCH   3  16
HETATM   16  C   UNL     1       2.104  34.721  55.785  1.00  0.00     0.114 C 
BRANCH  16  17
HETATM   17  C   UNL     1       0.590  34.634  55.837  1.00  0.00     0.218 C 
HETATM   18  N   UNL     1       0.020  33.750  54.957  1.00  0.00    -0.356 N 
HETATM   19  H   UNL     1       0.628  33.333  54.247  1.00  0.00     0.162 HD
HETATM   20  O   UNL     1      -0.058  35.337  56.609  1.00  0.00    -0.274 OA
BRANCH  18  21
HETATM   21  C   UNL     1      -1.404  33.737  54.709  1.00  0.00     0.084 C 
HETATM   22  C   UNL     1      -1.743  33.153  53.340  1.00  0.00     0.025 C 
HETATM   23  C   UNL     1      -3.161  32.603  53.471  1.00  0.00     0.002 C 
HETATM   24  C   UNL     1      -3.488  32.593  54.963  1.00  0.00     0.002 C 
HETATM   25  C   UNL     1      -2.168  32.844  55.677  1.00  0.00     0.025 C 
ENDBRANCH  18  21
ENDBRANCH  16  17
ENDBRANCH   3  16
BRANCH  11  26
HETATM   26  C   UNL     1       3.407  31.486  59.483  1.00  0.00     0.176 C 
BRANCH  26  27
HETATM   27  O   UNL     1       2.913  30.904  60.688  1.00  0.00    -0.400 OA
HETATM   28  H   UNL     1       3.147  29.956  60.619  1.00  0.00     0.209 HD
ENDBRANCH  26  27
ENDBRANCH  11  26
BRANCH   7  29
HETATM   29  N   UNL     1       3.094  29.950  53.761  1.00  0.00    -0.304 N 
HETATM   30  C   UNL     1       3.471  30.102  52.446  1.00  0.00     0.247 C 
HETATM   31  O   UNL     1       4.195  30.976  51.982  1.00  0.00    -0.271 OA
HETATM   32  H   UNL     1       2.550  29.139  54.024  1.00  0.00     0.171 HD
BRANCH  30  33
HETATM   33  C   UNL     1       2.924  28.973  51.568  1.00  0.00     0.270 C 
BRANCH  33  34
HETATM   34  O   UNL     1       3.243  29.135  50.187  1.00  0.00    -0.387 OA
HETATM   35  C   UNL     1       2.085  29.408  49.402  1.00  0.00     0.202 C 
ENDBRANCH  33  34
ENDBRANCH  30  33
ENDBRANCH   7  29
BRANCH  13  36
HETATM   36  O   UNL     1       1.797  33.570  60.107  1.00  0.00    -0.395 OA
HETATM   37  H   UNL     1       1.265  34.357  60.328  1.00  0.00     0.210 HD
ENDBRANCH  13  36
TORSDOF 9
ENDMDL
