MODEL 1
REMARK VINA RESULT:      -8.2      0.000      0.000
REMARK  9 active torsions:
REMARK  status: ('A' for Active; 'I' for Inactive)
REMARK    1  A    between atoms: C_2  and  C_3 
REMARK    2  A    between atoms: C_3  and  O_4 
REMARK    3  A    between atoms: C_3  and  C_5 
REMARK    4  A    between atoms: C_5  and  N_6 
REMARK    5  A    between atoms: N_6  and  C_8 
REMARK    6  A    between atoms: N_6  and  C_21 
REMARK    7  A    between atoms: C_8  and  C_9 
REMARK    8  A    between atoms: C_10  and  C_11 
REMARK    9  A    between atoms: C_21  and  C_22 
ROOT
HETATM    1  N   UNL     1       7.716  25.046  54.839  1.00  0.00    -0.061 N 
HETATM    2  H   UNL     1       8.651  24.636  54.793  1.00  0.00     0.280 HD
ENDROOT
BRANCH   1   3
HETATM    3  C   UNL     1       7.630  25.986  53.642  1.00  0.00     0.267 C 
BRANCH   3   4
HETATM    4  C   UNL     1       6.400  25.727  52.741  1.00  0.00     0.143 C 
BRANCH   4   5
HETATM    5  C   UNL     1       5.419  26.902  52.856  1.00  0.00     0.029 C 
HETATM    6  C   UNL     1       6.100  28.230  53.162  1.00  0.00     0.007 C 
ENDBRANCH   4   5
BRANCH   4   7
HETATM    7  O   UNL     1       6.834  25.585  51.390  1.00  0.00    -0.394 OA
HETATM    8  H   UNL     1       7.768  25.300  51.381  1.00  0.00     0.210 HD
ENDBRANCH   4   7
ENDBRANCH   3   4
ENDBRANCH   1   3
BRANCH   1   9
HETATM    9  C   UNL     1       7.657  25.688  56.212  1.00  0.00     0.277 C 
BRANCH   9  10
HETATM   10  C   UNL     1       6.588  26.674  56.534  1.00  0.00     0.016 A 
HETATM   11  C   UNL     1       6.809  28.064  56.823  1.00  0.00     0.096 A 
HETATM   12  N   UNL     1       5.663  28.680  57.137  1.00  0.00    -0.174 NA
HETATM   13  N   UNL     1       4.718  27.755  56.981  1.00  0.00    -0.288 N 
HETATM   14  H   UNL     1       3.750  28.027  57.134  1.00  0.00     0.188 HD
HETATM   15  C   UNL     1       5.217  26.527  56.650  1.00  0.00     0.120 A 
BRANCH  11  16
HETATM   16  C   UNL     1       8.072  28.801  56.856  1.00  0.00    -0.005 A 
HETATM   17  C   UNL     1       8.847  28.960  55.700  1.00  0.00     0.014 A 
HETATM   18  C   UNL     1      10.059  29.654  55.755  1.00  0.00     0.001 A 
HETATM   19  C   UNL     1      10.497  30.203  56.959  1.00  0.00     0.000 A 
HETATM   20  C   UNL     1       9.722  30.067  58.109  1.00  0.00     0.001 A 
HETATM   21  C   UNL     1       8.513  29.371  58.058  1.00  0.00     0.014 A 
ENDBRANCH  11  16
ENDBRANCH   9  10
ENDBRANCH   1   9
BRANCH   1  22
HETATM   22  C   UNL     1       6.759  23.874  54.745  1.00  0.00     0.273 C 
BRANCH  22  23
HETATM   23  C   UNL     1       7.454  22.559  54.508  1.00  0.00    -0.033 A 
HETATM   24  C   UNL     1       7.819  22.161  53.212  1.00  0.00     0.009 A 
HETATM   25  C   UNL     1       8.434  20.927  52.999  1.00  0.00     0.001 A 
HETATM   26  C   UNL     1       8.696  20.081  54.075  1.00  0.00     0.000 A 
HETATM   27  C   UNL     1       8.349  20.470  55.367  1.00  0.00     0.001 A 
HETATM   28  C   UNL     1       7.733  21.702  55.584  1.00  0.00     0.009 A 
ENDBRANCH  22  23
ENDBRANCH   1  22
TORSDOF 9
ENDMDL
MODEL 2
REMARK VINA RESULT:      -8.1      1.702      6.487
REMARK  9 active torsions:
REMARK  status: ('A' for Active; 'I' for Inactive)
REMARK    1  A    between atoms: C_2  and  C_3 
REMARK    2  A    between atoms: C_3  and  O_4 
REMARK    3  A    between atoms: C_3  and  C_5 
REMARK    4  A    between atoms: C_5  and  N_6 
REMARK    5  A    between atoms: N_6  and  C_8 
REMARK    6  A    between atoms: N_6  and  C_21 
REMARK    7  A    between atoms: C_8  and  C_9 
REMARK    8  A    between atoms: C_10  and  C_11 
REMARK    9  A    between atoms: C_21  and  C_22 
ROOT
HETATM    1  N   UNL     1       6.428  26.991  55.324  1.00  0.00    -0.061 N 
HETATM    2  H   UNL     1       6.380  27.101  56.339  1.00  0.00     0.280 HD
ENDROOT
BRANCH   1   3
HETATM    3  C   UNL     1       4.987  26.782  54.874  1.00  0.00     0.267 C 
BRANCH   3   4
HETATM    4  C   UNL     1       4.779  26.984  53.355  1.00  0.00     0.143 C 
BRANCH   4   5
HETATM    5  C   UNL     1       4.990  25.650  52.623  1.00  0.00     0.029 C 
HETATM    6  C   UNL     1       6.197  25.656  51.694  1.00  0.00     0.007 C 
ENDBRANCH   4   5
BRANCH   4   7
HETATM    7  O   UNL     1       3.456  27.462  53.125  1.00  0.00    -0.394 OA
HETATM    8  H   UNL     1       2.952  26.785  52.634  1.00  0.00     0.210 HD
ENDBRANCH   4   7
ENDBRANCH   3   4
ENDBRANCH   1   3
BRANCH   1   9
HETATM    9  C   UNL     1       7.379  25.827  55.120  1.00  0.00     0.277 C 
BRANCH   9  10
HETATM   10  C   UNL     1       7.909  25.076  56.292  1.00  0.00     0.016 A 
HETATM   11  C   UNL     1       8.234  23.676  56.295  1.00  0.00     0.096 A 
HETATM   12  N   UNL     1       8.627  23.274  57.510  1.00  0.00    -0.174 NA
HETATM   13  N   UNL     1       8.639  24.379  58.253  1.00  0.00    -0.288 N 
HETATM   14  H   UNL     1       8.950  24.305  59.218  1.00  0.00     0.188 HD
HETATM   15  C   UNL     1       8.190  25.482  57.584  1.00  0.00     0.120 A 
BRANCH  11  16
HETATM   16  C   UNL     1       8.135  22.713  55.199  1.00  0.00    -0.005 A 
HETATM   17  C   UNL     1       8.180  23.130  53.862  1.00  0.00     0.014 A 
HETATM   18  C   UNL     1       8.068  22.196  52.829  1.00  0.00     0.001 A 
HETATM   19  C   UNL     1       7.923  20.841  53.123  1.00  0.00     0.000 A 
HETATM   20  C   UNL     1       7.898  20.415  54.450  1.00  0.00     0.001 A 
HETATM   21  C   UNL     1       8.006  21.347  55.484  1.00  0.00     0.014 A 
ENDBRANCH  11  16
ENDBRANCH   9  10
ENDBRANCH   1   9
BRANCH   1  22
HETATM   22  C   UNL     1       7.030  28.283  54.810  1.00  0.00     0.273 C 
BRANCH  22  23
HETATM   23  C   UNL     1       8.066  28.865  55.736  1.00  0.00    -0.033 A 
HETATM   24  C   UNL     1       9.344  29.203  55.265  1.00  0.00     0.009 A 
HETATM   25  C   UNL     1      10.307  29.711  56.138  1.00  0.00     0.001 A 
HETATM   26  C   UNL     1      10.003  29.893  57.486  1.00  0.00     0.000 A 
HETATM   27  C   UNL     1       8.734  29.573  57.963  1.00  0.00     0.001 A 
HETATM   28  C   UNL     1       7.769  29.062  57.094  1.00  0.00     0.009 A 
ENDBRANCH  22  23
ENDBRANCH   1  22
TORSDOF 9
ENDMDL
MODEL 3
REMARK VINA RESULT:      -7.7      2.061      6.928
REMARK  9 active torsions:
REMARK  status: ('A' for Active; 'I' for Inactive)
REMARK    1  A    between atoms: C_2  and  C_3 
REMARK    2  A    between atoms: C_3  and  O_4 
REMARK    3  A    between atoms: C_3  and  C_5 
REMARK    4  A    between atoms: C_5  and  N_6 
REMARK    5  A    between atoms: N_6  and  C_8 
REMARK    6  A    between atoms: N_6  and  C_21 
REMARK    7  A    between atoms: C_8  and  C_9 
REMARK    8  A    between atoms: C_10  and  C_11 
REMARK    9  A    between atoms: C_21  and  C_22 
ROOT
HETATM    1  N   UNL     1       7.023  27.409  55.364  1.00  0.00    -0.061 N 
HETATM    2  H   UNL     1       7.775  27.037  55.948  1.00  0.00     0.280 HD
ENDROOT
BRANCH   1   3
HETATM    3  C   UNL     1       5.733  26.891  55.989  1.00  0.00     0.267 C 
BRANCH   3   4
HETATM    4  C   UNL     1       5.956  25.743  57.002  1.00  0.00     0.143 C 
BRANCH   4   5
HETATM    5  C   UNL     1       7.157  26.074  57.901  1.00  0.00     0.029 C 
HETATM    6  C   UNL     1       8.406  25.272  57.560  1.00  0.00     0.007 C 
ENDBRANCH   4   5
BRANCH   4   7
HETATM    7  O   UNL     1       4.782  25.586  57.795  1.00  0.00    -0.394 OA
HETATM    8  H   UNL     1       4.168  26.321  57.607  1.00  0.00     0.210 HD
ENDBRANCH   4   7
ENDBRANCH   3   4
ENDBRANCH   1   3
BRANCH   1   9
HETATM    9  C   UNL     1       7.351  26.908  53.970  1.00  0.00     0.277 C 
BRANCH   9  10
HETATM   10  C   UNL     1       6.297  26.263  53.137  1.00  0.00     0.016 A 
HETATM   11  C   UNL     1       6.146  24.846  52.952  1.00  0.00     0.096 A 
HETATM   12  N   UNL     1       5.150  24.575  52.100  1.00  0.00    -0.174 NA
HETATM   13  N   UNL     1       4.615  25.758  51.803  1.00  0.00    -0.288 N 
HETATM   14  H   UNL     1       3.805  25.778  51.189  1.00  0.00     0.188 HD
HETATM   15  C   UNL     1       5.281  26.806  52.372  1.00  0.00     0.120 A 
BRANCH  11  16
HETATM   16  C   UNL     1       6.946  23.760  53.517  1.00  0.00    -0.005 A 
HETATM   17  C   UNL     1       6.856  23.426  54.875  1.00  0.00     0.014 A 
HETATM   18  C   UNL     1       7.639  22.396  55.400  1.00  0.00     0.001 A 
HETATM   19  C   UNL     1       8.507  21.685  54.572  1.00  0.00     0.000 A 
HETATM   20  C   UNL     1       8.588  21.996  53.216  1.00  0.00     0.001 A 
HETATM   21  C   UNL     1       7.808  23.028  52.690  1.00  0.00     0.014 A 
ENDBRANCH  11  16
ENDBRANCH   9  10
ENDBRANCH   1   9
BRANCH   1  22
HETATM   22  C   UNL     1       7.161  28.916  55.446  1.00  0.00     0.273 C 
BRANCH  22  23
HETATM   23  C   UNL     1       8.313  29.360  56.309  1.00  0.00    -0.033 A 
HETATM   24  C   UNL     1       8.107  29.744  57.643  1.00  0.00     0.009 A 
HETATM   25  C   UNL     1       9.176  30.184  58.425  1.00  0.00     0.001 A 
HETATM   26  C   UNL     1      10.460  30.239  57.887  1.00  0.00     0.000 A 
HETATM   27  C   UNL     1      10.680  29.849  56.567  1.00  0.00     0.001 A 
HETATM   28  C   UNL     1       9.614  29.410  55.782  1.00  0.00     0.009 A 
ENDBRANCH  22  23
ENDBRANCH   1  22
TORSDOF 9
ENDMDL
MODEL 4
REMARK VINA RESULT:      -7.6      3.188      4.826
REMARK  9 active torsions:
REMARK  status: ('A' for Active; 'I' for Inactive)
REMARK    1  A    between atoms: C_2  and  C_3 
REMARK    2  A    between atoms: C_3  and  O_4 
REMARK    3  A    between atoms: C_3  and  C_5 
REMARK    4  A    between atoms: C_5  and  N_6 
REMARK    5  A    between atoms: N_6  and  C_8 
REMARK    6  A    between atoms: N_6  and  C_21 
REMARK    7  A    between atoms: C_8  and  C_9 
REMARK    8  A    between atoms: C_10  and  C_11 
REMARK    9  A    between atoms: C_21  and  C_22 
ROOT
HETATM    1  N   UNL     1       5.537  27.303  50.290  1.00  0.00    -0.061 N 
HETATM    2  H   UNL     1       6.461  26.967  50.012  1.00  0.00     0.280 HD
ENDROOT
BRANCH   1   3
HETATM    3  C   UNL     1       4.838  27.679  48.987  1.00  0.00     0.267 C 
BRANCH   3   4
HETATM    4  C   UNL     1       4.790  26.525  47.958  1.00  0.00     0.143 C 
BRANCH   4   5
HETATM    5  C   UNL     1       3.418  26.505  47.269  1.00  0.00     0.029 C 
HETATM    6  C   UNL     1       2.663  27.822  47.389  1.00  0.00     0.007 C 
ENDBRANCH   4   5
BRANCH   4   7
HETATM    7  O   UNL     1       5.818  26.721  46.989  1.00  0.00    -0.394 OA
HETATM    8  H   UNL     1       5.562  27.451  46.394  1.00  0.00     0.210 HD
ENDBRANCH   4   7
ENDBRANCH   3   4
ENDBRANCH   1   3
BRANCH   1   9
HETATM    9  C   UNL     1       5.825  28.436  51.256  1.00  0.00     0.277 C 
BRANCH   9  10
HETATM   10  C   UNL     1       4.720  29.048  52.046  1.00  0.00     0.016 A 
HETATM   11  C   UNL     1       4.587  28.968  53.475  1.00  0.00     0.096 A 
HETATM   12  N   UNL     1       3.460  29.561  53.887  1.00  0.00    -0.174 NA
HETATM   13  N   UNL     1       2.917  30.080  52.787  1.00  0.00    -0.288 N 
HETATM   14  H   UNL     1       2.059  30.616  52.883  1.00  0.00     0.188 HD
HETATM   15  C   UNL     1       3.614  29.779  51.652  1.00  0.00     0.120 A 
BRANCH  11  16
HETATM   16  C   UNL     1       5.466  28.309  54.439  1.00  0.00    -0.005 A 
HETATM   17  C   UNL     1       6.851  28.247  54.232  1.00  0.00     0.014 A 
HETATM   18  C   UNL     1       7.673  27.600  55.157  1.00  0.00     0.001 A 
HETATM   19  C   UNL     1       7.121  27.021  56.300  1.00  0.00     0.000 A 
HETATM   20  C   UNL     1       5.747  27.096  56.524  1.00  0.00     0.001 A 
HETATM   21  C   UNL     1       4.924  27.740  55.598  1.00  0.00     0.014 A 
ENDBRANCH  11  16
ENDBRANCH   9  10
ENDBRANCH   1   9
BRANCH   1  22
HETATM   22  C   UNL     1       4.882  26.135  51.000  1.00  0.00     0.273 C 
BRANCH  22  23
HETATM   23  C   UNL     1       5.795  25.454  51.985  1.00  0.00    -0.033 A 
HETATM   24  C   UNL     1       7.166  25.312  51.717  1.00  0.00     0.009 A 
HETATM   25  C   UNL     1       7.997  24.650  52.622  1.00  0.00     0.001 A 
HETATM   26  C   UNL     1       7.472  24.130  53.804  1.00  0.00     0.000 A 
HETATM   27  C   UNL     1       6.116  24.275  54.086  1.00  0.00     0.001 A 
HETATM   28  C   UNL     1       5.281  24.934  53.184  1.00  0.00     0.009 A 
ENDBRANCH  22  23
ENDBRANCH   1  22
TORSDOF 9
ENDMDL
MODEL 5
REMARK VINA RESULT:      -7.6      2.147      6.717
REMARK  9 active torsions:
REMARK  status: ('A' for Active; 'I' for Inactive)
REMARK    1  A    between atoms: C_2  and  C_3 
REMARK    2  A    between atoms: C_3  and  O_4 
REMARK    3  A    between atoms: C_3  and  C_5 
REMARK    4  A    between atoms: C_5  and  N_6 
REMARK    5  A    between atoms: N_6  and  C_8 
REMARK    6  A    between atoms: N_6  and  C_21 
REMARK    7  A    between atoms: C_8  and  C_9 
REMARK    8  A    between atoms: C_10  and  C_11 
REMARK    9  A    between atoms: C_21  and  C_22 
ROOT
HETATM    1  N   UNL     1       6.815  27.505  56.148  1.00  0.00    -0.061 N 
HETATM    2  H   UNL     1       6.068  26.885  56.467  1.00  0.00     0.280 HD
ENDROOT
BRANCH   1   3
HETATM    3  C   UNL     1       6.211  28.905  56.166  1.00  0.00     0.267 C 
BRANCH   3   4
HETATM    4  C   UNL     1       4.786  28.954  56.765  1.00  0.00     0.143 C 
BRANCH   4   5
HETATM    5  C   UNL     1       3.983  30.080  56.096  1.00  0.00     0.029 C 
HETATM    6  C   UNL     1       4.152  30.125  54.583  1.00  0.00     0.007 C 
ENDBRANCH   4   5
BRANCH   4   7
HETATM    7  O   UNL     1       4.143  27.700  56.543  1.00  0.00    -0.394 OA
HETATM    8  H   UNL     1       3.536  27.516  57.285  1.00  0.00     0.210 HD
ENDBRANCH   4   7
ENDBRANCH   3   4
ENDBRANCH   1   3
BRANCH   1   9
HETATM    9  C   UNL     1       7.205  26.951  54.791  1.00  0.00     0.277 C 
BRANCH   9  10
HETATM   10  C   UNL     1       6.180  26.314  53.918  1.00  0.00     0.016 A 
HETATM   11  C   UNL     1       6.132  24.915  53.591  1.00  0.00     0.096 A 
HETATM   12  N   UNL     1       5.135  24.654  52.736  1.00  0.00    -0.174 NA
HETATM   13  N   UNL     1       4.505  25.815  52.572  1.00  0.00    -0.288 N 
HETATM   14  H   UNL     1       3.679  25.833  51.980  1.00  0.00     0.188 HD
HETATM   15  C   UNL     1       5.104  26.850  53.233  1.00  0.00     0.120 A 
BRANCH  11  16
HETATM   16  C   UNL     1       7.027  23.843  54.026  1.00  0.00    -0.005 A 
HETATM   17  C   UNL     1       7.131  23.492  55.378  1.00  0.00     0.014 A 
HETATM   18  C   UNL     1       8.003  22.476  55.776  1.00  0.00     0.001 A 
HETATM   19  C   UNL     1       8.767  21.797  54.826  1.00  0.00     0.000 A 
HETATM   20  C   UNL     1       8.654  22.126  53.477  1.00  0.00     0.001 A 
HETATM   21  C   UNL     1       7.785  23.144  53.078  1.00  0.00     0.014 A 
ENDBRANCH  11  16
ENDBRANCH   9  10
ENDBRANCH   1   9
BRANCH   1  22
HETATM   22  C   UNL     1       7.938  27.329  57.151  1.00  0.00     0.273 C 
BRANCH  22  23
HETATM   23  C   UNL     1       8.700  28.600  57.416  1.00  0.00    -0.033 A 
HETATM   24  C   UNL     1       9.809  28.952  56.629  1.00  0.00     0.009 A 
HETATM   25  C   UNL     1      10.528  30.116  56.903  1.00  0.00     0.001 A 
HETATM   26  C   UNL     1      10.147  30.942  57.959  1.00  0.00     0.000 A 
HETATM   27  C   UNL     1       9.042  30.610  58.739  1.00  0.00     0.001 A 
HETATM   28  C   UNL     1       8.320  29.447  58.469  1.00  0.00     0.009 A 
ENDBRANCH  22  23
ENDBRANCH   1  22
TORSDOF 9
ENDMDL
MODEL 6
REMARK VINA RESULT:      -7.6      3.233      5.044
REMARK  9 active torsions:
REMARK  status: ('A' for Active; 'I' for Inactive)
REMARK    1  A    between atoms: C_2  and  C_3 
REMARK    2  A    between atoms: C_3  and  O_4 
REMARK    3  A    between atoms: C_3  and  C_5 
REMARK    4  A    between atoms: C_5  and  N_6 
REMARK    5  A    between atoms: N_6  and  C_8 
REMARK    6  A    between atoms: N_6  and  C_21 
REMARK    7  A    between atoms: C_8  and  C_9 
REMARK    8  A    between atoms: C_10  and  C_11 
REMARK    9  A    between atoms: C_21  and  C_22 
ROOT
HETATM    1  N   UNL     1       7.150  28.059  57.065  1.00  0.00    -0.061 N 
HETATM    2  H   UNL     1       7.389  28.562  56.208  1.00  0.00     0.280 HD
ENDROOT
BRANCH   1   3
HETATM    3  C   UNL     1       5.626  28.026  57.101  1.00  0.00     0.267 C 
BRANCH   3   4
HETATM    4  C   UNL     1       4.976  29.427  57.027  1.00  0.00     0.143 C 
BRANCH   4   5
HETATM    5  C   UNL     1       4.079  29.515  55.783  1.00  0.00     0.029 C 
HETATM    6  C   UNL     1       4.264  28.347  54.823  1.00  0.00     0.007 C 
ENDBRANCH   4   5
BRANCH   4   7
HETATM    7  O   UNL     1       4.200  29.644  58.203  1.00  0.00    -0.394 OA
HETATM    8  H   UNL     1       4.190  30.598  58.409  1.00  0.00     0.210 HD
ENDBRANCH   4   7
ENDBRANCH   3   4
ENDBRANCH   1   3
BRANCH   1   9
HETATM    9  C   UNL     1       7.837  28.847  58.164  1.00  0.00     0.277 C 
BRANCH   9  10
HETATM   10  C   UNL     1       8.998  29.725  57.845  1.00  0.00     0.016 A 
HETATM   11  C   UNL     1       9.485  30.784  58.685  1.00  0.00     0.096 A 
HETATM   12  N   UNL     1      10.498  31.435  58.101  1.00  0.00    -0.174 NA
HETATM   13  N   UNL     1      10.722  30.780  56.963  1.00  0.00    -0.288 N 
HETATM   14  H   UNL     1      11.489  31.092  56.373  1.00  0.00     0.188 HD
HETATM   15  C   UNL     1       9.834  29.765  56.744  1.00  0.00     0.120 A 
BRANCH  11  16
HETATM   16  C   UNL     1       8.986  31.219  59.989  1.00  0.00    -0.005 A 
HETATM   17  C   UNL     1       9.297  30.509  61.156  1.00  0.00     0.014 A 
HETATM   18  C   UNL     1       8.798  30.931  62.390  1.00  0.00     0.001 A 
HETATM   19  C   UNL     1       7.998  32.070  62.470  1.00  0.00     0.000 A 
HETATM   20  C   UNL     1       7.701  32.794  61.317  1.00  0.00     0.001 A 
HETATM   21  C   UNL     1       8.196  32.372  60.081  1.00  0.00     0.014 A 
ENDBRANCH  11  16
ENDBRANCH   9  10
ENDBRANCH   1   9
BRANCH   1  22
HETATM   22  C   UNL     1       7.772  26.686  56.910  1.00  0.00     0.273 C 
BRANCH  22  23
HETATM   23  C   UNL     1       7.445  26.033  55.592  1.00  0.00    -0.033 A 
HETATM   24  C   UNL     1       7.005  24.701  55.538  1.00  0.00     0.009 A 
HETATM   25  C   UNL     1       6.736  24.096  54.309  1.00  0.00     0.001 A 
HETATM   26  C   UNL     1       6.897  24.813  53.126  1.00  0.00     0.000 A 
HETATM   27  C   UNL     1       7.322  26.139  53.167  1.00  0.00     0.001 A 
HETATM   28  C   UNL     1       7.594  26.748  54.393  1.00  0.00     0.009 A 
ENDBRANCH  22  23
ENDBRANCH   1  22
TORSDOF 9
ENDMDL
MODEL 7
REMARK VINA RESULT:      -7.5      8.256     11.596
REMARK  9 active torsions:
REMARK  status: ('A' for Active; 'I' for Inactive)
REMARK    1  A    between atoms: C_2  and  C_3 
REMARK    2  A    between atoms: C_3  and  O_4 
REMARK    3  A    between atoms: C_3  and  C_5 
REMARK    4  A    between atoms: C_5  and  N_6 
REMARK    5  A    between atoms: N_6  and  C_8 
REMARK    6  A    between atoms: N_6  and  C_21 
REMARK    7  A    between atoms: C_8  and  C_9 
REMARK    8  A    between atoms: C_10  and  C_11 
REMARK    9  A    between atoms: C_21  and  C_22 
ROOT
HETATM    1  N   UNL     1       5.983  32.707  60.967  1.00  0.00    -0.061 N 
HETATM    2  H   UNL     1       6.380  33.597  61.272  1.00  0.00     0.280 HD
ENDROOT
BRANCH   1   3
HETATM    3  C   UNL     1       6.929  32.192  59.888  1.00  0.00     0.267 C 
BRANCH   3   4
HETATM    4  C   UNL     1       8.405  32.116  60.348  1.00  0.00     0.143 C 
BRANCH   4   5
HETATM    5  C   UNL     1       8.806  30.648  60.554  1.00  0.00     0.029 C 
HETATM    6  C   UNL     1       9.374  30.366  61.939  1.00  0.00     0.007 C 
ENDBRANCH   4   5
BRANCH   4   7
HETATM    7  O   UNL     1       9.234  32.712  59.353  1.00  0.00    -0.394 OA
HETATM    8  H   UNL     1       9.216  33.682  59.461  1.00  0.00     0.210 HD
ENDBRANCH   4   7
ENDBRANCH   3   4
ENDBRANCH   1   3
BRANCH   1   9
HETATM    9  C   UNL     1       4.575  33.059  60.523  1.00  0.00     0.277 C 
BRANCH   9  10
HETATM   10  C   UNL     1       4.329  34.284  59.712  1.00  0.00     0.016 A 
HETATM   11  C   UNL     1       4.281  35.622  60.236  1.00  0.00     0.096 A 
HETATM   12  N   UNL     1       3.979  36.505  59.276  1.00  0.00    -0.174 NA
HETATM   13  N   UNL     1       3.912  35.789  58.155  1.00  0.00    -0.288 N 
HETATM   14  H   UNL     1       3.728  36.279  57.283  1.00  0.00     0.188 HD
HETATM   15  C   UNL     1       4.084  34.450  58.361  1.00  0.00     0.120 A 
BRANCH  11  16
HETATM   16  C   UNL     1       4.465  36.070  61.615  1.00  0.00    -0.005 A 
HETATM   17  C   UNL     1       3.392  36.099  62.516  1.00  0.00     0.014 A 
HETATM   18  C   UNL     1       3.584  36.545  63.826  1.00  0.00     0.001 A 
HETATM   19  C   UNL     1       4.850  36.954  64.248  1.00  0.00     0.000 A 
HETATM   20  C   UNL     1       5.926  36.909  63.364  1.00  0.00     0.001 A 
HETATM   21  C   UNL     1       5.735  36.466  62.054  1.00  0.00     0.014 A 
ENDBRANCH  11  16
ENDBRANCH   9  10
ENDBRANCH   1   9
BRANCH   1  22
HETATM   22  C   UNL     1       5.960  31.833  62.205  1.00  0.00     0.273 C 
BRANCH  22  23
HETATM   23  C   UNL     1       6.122  32.613  63.483  1.00  0.00    -0.033 A 
HETATM   24  C   UNL     1       5.010  32.929  64.279  1.00  0.00     0.009 A 
HETATM   25  C   UNL     1       5.167  33.680  65.446  1.00  0.00     0.001 A 
HETATM   26  C   UNL     1       6.433  34.116  65.832  1.00  0.00     0.000 A 
HETATM   27  C   UNL     1       7.546  33.798  65.057  1.00  0.00     0.001 A 
HETATM   28  C   UNL     1       7.393  33.049  63.889  1.00  0.00     0.009 A 
ENDBRANCH  22  23
ENDBRANCH   1  22
TORSDOF 9
ENDMDL
MODEL 8
REMARK VINA RESULT:      -7.5      3.485      5.380
REMARK  9 active torsions:
REMARK  status: ('A' for Active; 'I' for Inactive)
REMARK    1  A    between atoms: C_2  and  C_3 
REMARK    2  A    between atoms: C_3  and  O_4 
REMARK    3  A    between atoms: C_3  and  C_5 
REMARK    4  A    between atoms: C_5  and  N_6 
REMARK    5  A    between atoms: N_6  and  C_8 
REMARK    6  A    between atoms: N_6  and  C_21 
REMARK    7  A    between atoms: C_8  and  C_9 
REMARK    8  A    between atoms: C_10  and  C_11 
REMARK    9  A    between atoms: C_21  and  C_22 
ROOT
HETATM    1  N   UNL     1       7.015  28.490  56.969  1.00  0.00    -0.061 N 
HETATM    2  H   UNL     1       7.619  28.332  56.160  1.00  0.00     0.280 HD
ENDROOT
BRANCH   1   3
HETATM    3  C   UNL     1       6.040  29.579  56.537  1.00  0.00     0.267 C 
BRANCH   3   4
HETATM    4  C   UNL     1       5.516  30.440  57.710  1.00  0.00     0.143 C 
BRANCH   4   5
HETATM    5  C   UNL     1       5.365  31.898  57.254  1.00  0.00     0.029 C 
HETATM    6  C   UNL     1       4.822  32.818  58.340  1.00  0.00     0.007 C 
ENDBRANCH   4   5
BRANCH   4   7
HETATM    7  O   UNL     1       4.253  29.930  58.135  1.00  0.00    -0.394 OA
HETATM    8  H   UNL     1       3.964  30.414  58.931  1.00  0.00     0.210 HD
ENDBRANCH   4   7
ENDBRANCH   3   4
ENDBRANCH   1   3
BRANCH   1   9
HETATM    9  C   UNL     1       7.976  28.844  58.088  1.00  0.00     0.277 C 
BRANCH   9  10
HETATM   10  C   UNL     1       9.120  29.763  57.832  1.00  0.00     0.016 A 
HETATM   11  C   UNL     1       9.523  30.837  58.697  1.00  0.00     0.096 A 
HETATM   12  N   UNL     1      10.543  31.525  58.169  1.00  0.00    -0.174 NA
HETATM   13  N   UNL     1      10.850  30.881  57.044  1.00  0.00    -0.288 N 
HETATM   14  H   UNL     1      11.636  31.221  56.496  1.00  0.00     0.188 HD
HETATM   15  C   UNL     1      10.012  29.836  56.777  1.00  0.00     0.120 A 
BRANCH  11  16
HETATM   16  C   UNL     1       8.941  31.250  59.973  1.00  0.00    -0.005 A 
HETATM   17  C   UNL     1       8.077  32.351  60.052  1.00  0.00     0.014 A 
HETATM   18  C   UNL     1       7.543  32.740  61.283  1.00  0.00     0.001 A 
HETATM   19  C   UNL     1       7.858  32.026  62.439  1.00  0.00     0.000 A 
HETATM   20  C   UNL     1       8.699  30.918  62.367  1.00  0.00     0.001 A 
HETATM   21  C   UNL     1       9.237  30.530  61.138  1.00  0.00     0.014 A 
ENDBRANCH  11  16
ENDBRANCH   9  10
ENDBRANCH   1   9
BRANCH   1  22
HETATM   22  C   UNL     1       6.340  27.158  57.232  1.00  0.00     0.273 C 
BRANCH  22  23
HETATM   23  C   UNL     1       7.152  25.980  56.763  1.00  0.00    -0.033 A 
HETATM   24  C   UNL     1       8.070  25.351  57.619  1.00  0.00     0.009 A 
HETATM   25  C   UNL     1       8.841  24.280  57.165  1.00  0.00     0.001 A 
HETATM   26  C   UNL     1       8.700  23.822  55.856  1.00  0.00     0.000 A 
HETATM   27  C   UNL     1       7.784  24.430  55.000  1.00  0.00     0.001 A 
HETATM   28  C   UNL     1       7.013  25.502  55.450  1.00  0.00     0.009 A 
ENDBRANCH  22  23
ENDBRANCH   1  22
TORSDOF 9
ENDMDL
MODEL 9
REMARK VINA RESULT:      -7.4      2.349      6.329
REMARK  9 active torsions:
REMARK  status: ('A' for Active; 'I' for Inactive)
REMARK    1  A    between atoms: C_2  and  C_3 
REMARK    2  A    between atoms: C_3  and  O_4 
REMARK    3  A    between atoms: C_3  and  C_5 
REMARK    4  A    between atoms: C_5  and  N_6 
REMARK    5  A    between atoms: N_6  and  C_8 
REMARK    6  A    between atoms: N_6  and  C_21 
REMARK    7  A    between atoms: C_8  and  C_9 
REMARK    8  A    between atoms: C_10  and  C_11 
REMARK    9  A    between atoms: C_21  and  C_22 
ROOT
HETATM    1  N   UNL     1       5.859  27.327  56.446  1.00  0.00    -0.061 N 
HETATM    2  H   UNL     1       6.633  27.095  55.820  1.00  0.00     0.280 HD
ENDROOT
BRANCH   1   3
HETATM    3  C   UNL     1       5.687  26.106  57.343  1.00  0.00     0.267 C 
BRANCH   3   4
HETATM    4  C   UNL     1       6.968  25.248  57.469  1.00  0.00     0.143 C 
BRANCH   4   5
HETATM    5  C   UNL     1       7.720  25.244  56.129  1.00  0.00     0.029 C 
HETATM    6  C   UNL     1       8.730  24.110  56.008  1.00  0.00     0.007 C 
ENDBRANCH   4   5
BRANCH   4   7
HETATM    7  O   UNL     1       7.798  25.796  58.491  1.00  0.00    -0.394 OA
HETATM    8  H   UNL     1       7.850  25.165  59.234  1.00  0.00     0.210 HD
ENDBRANCH   4   7
ENDBRANCH   3   4
ENDBRANCH   1   3
BRANCH   1   9
HETATM    9  C   UNL     1       4.708  27.653  55.514  1.00  0.00     0.277 C 
BRANCH   9  10
HETATM   10  C   UNL     1       4.960  28.369  54.232  1.00  0.00     0.016 A 
HETATM   11  C   UNL     1       5.637  27.807  53.096  1.00  0.00     0.096 A 
HETATM   12  N   UNL     1       5.768  28.712  52.117  1.00  0.00    -0.174 NA
HETATM   13  N   UNL     1       5.132  29.796  52.560  1.00  0.00    -0.288 N 
HETATM   14  H   UNL     1       5.077  30.603  51.945  1.00  0.00     0.188 HD
HETATM   15  C   UNL     1       4.655  29.657  53.831  1.00  0.00     0.120 A 
BRANCH  11  16
HETATM   16  C   UNL     1       6.198  26.467  52.936  1.00  0.00    -0.005 A 
HETATM   17  C   UNL     1       5.408  25.324  53.119  1.00  0.00     0.014 A 
HETATM   18  C   UNL     1       5.966  24.052  52.978  1.00  0.00     0.001 A 
HETATM   19  C   UNL     1       7.312  23.911  52.642  1.00  0.00     0.000 A 
HETATM   20  C   UNL     1       8.101  25.042  52.437  1.00  0.00     0.001 A 
HETATM   21  C   UNL     1       7.545  26.315  52.581  1.00  0.00     0.014 A 
ENDBRANCH  11  16
ENDBRANCH   9  10
ENDBRANCH   1   9
BRANCH   1  22
HETATM   22  C   UNL     1       6.313  28.560  57.202  1.00  0.00     0.273 C 
BRANCH  22  23
HETATM   23  C   UNL     1       7.727  28.966  56.878  1.00  0.00    -0.033 A 
HETATM   24  C   UNL     1       8.217  28.884  55.565  1.00  0.00     0.009 A 
HETATM   25  C   UNL     1       9.538  29.233  55.282  1.00  0.00     0.001 A 
HETATM   26  C   UNL     1      10.381  29.671  56.302  1.00  0.00     0.000 A 
HETATM   27  C   UNL     1       9.903  29.768  57.606  1.00  0.00     0.001 A 
HETATM   28  C   UNL     1       8.583  29.420  57.895  1.00  0.00     0.009 A 
ENDBRANCH  22  23
ENDBRANCH   1  22
TORSDOF 9
ENDMDL
MODEL 10
REMARK VINA RESULT:      -7.4      2.108      6.325
REMARK  9 active torsions:
REMARK  status: ('A' for Active; 'I' for Inactive)
REMARK    1  A    between atoms: C_2  and  C_3 
REMARK    2  A    between atoms: C_3  and  O_4 
REMARK    3  A    between atoms: C_3  and  C_5 
REMARK    4  A    between atoms: C_5  and  N_6 
REMARK    5  A    between atoms: N_6  and  C_8 
REMARK    6  A    between atoms: N_6  and  C_21 
REMARK    7  A    between atoms: C_8  and  C_9 
REMARK    8  A    between atoms: C_10  and  C_11 
REMARK    9  A    between atoms: C_21  and  C_22 
ROOT
HETATM    1  N   UNL     1       6.146  26.447  54.554  1.00  0.00    -0.061 N 
HETATM    2  H   UNL     1       6.497  25.915  53.755  1.00  0.00     0.280 HD
ENDROOT
BRANCH   1   3
HETATM    3  C   UNL     1       7.214  27.498  54.837  1.00  0.00     0.267 C 
BRANCH   3   4
HETATM    4  C   UNL     1       6.749  28.602  55.815  1.00  0.00     0.143 C 
BRANCH   4   5
HETATM    5  C   UNL     1       7.902  28.974  56.759  1.00  0.00     0.029 C 
HETATM    6  C   UNL     1       7.431  29.510  58.105  1.00  0.00     0.007 C 
ENDBRANCH   4   5
BRANCH   4   7
HETATM    7  O   UNL     1       6.343  29.747  55.067  1.00  0.00    -0.394 OA
HETATM    8  H   UNL     1       5.374  29.729  54.955  1.00  0.00     0.210 HD
ENDBRANCH   4   7
ENDBRANCH   3   4
ENDBRANCH   1   3
BRANCH   1   9
HETATM    9  C   UNL     1       5.921  25.402  55.630  1.00  0.00     0.277 C 
BRANCH   9  10
HETATM   10  C   UNL     1       7.035  25.005  56.535  1.00  0.00     0.016 A 
HETATM   11  C   UNL     1       7.910  23.885  56.322  1.00  0.00     0.096 A 
HETATM   12  N   UNL     1       8.771  23.745  57.338  1.00  0.00    -0.174 NA
HETATM   13  N   UNL     1       8.526  24.777  58.144  1.00  0.00    -0.288 N 
HETATM   14  H   UNL     1       9.105  24.885  58.973  1.00  0.00     0.188 HD
HETATM   15  C   UNL     1       7.478  25.547  57.728  1.00  0.00     0.120 A 
BRANCH  11  16
HETATM   16  C   UNL     1       7.917  22.928  55.216  1.00  0.00    -0.005 A 
HETATM   17  C   UNL     1       8.053  23.356  53.889  1.00  0.00     0.014 A 
HETATM   18  C   UNL     1       8.041  22.428  52.845  1.00  0.00     0.001 A 
HETATM   19  C   UNL     1       7.907  21.067  53.120  1.00  0.00     0.000 A 
HETATM   20  C   UNL     1       7.793  20.631  54.438  1.00  0.00     0.001 A 
HETATM   21  C   UNL     1       7.801  21.557  55.483  1.00  0.00     0.014 A 
ENDBRANCH  11  16
ENDBRANCH   9  10
ENDBRANCH   1   9
BRANCH   1  22
HETATM   22  C   UNL     1       4.832  27.044  54.092  1.00  0.00     0.273 C 
BRANCH  22  23
HETATM   23  C   UNL     1       4.744  27.195  52.596  1.00  0.00    -0.033 A 
HETATM   24  C   UNL     1       4.301  28.396  52.019  1.00  0.00     0.009 A 
HETATM   25  C   UNL     1       4.192  28.515  50.632  1.00  0.00     0.001 A 
HETATM   26  C   UNL     1       4.528  27.442  49.809  1.00  0.00     0.000 A 
HETATM   27  C   UNL     1       4.980  26.250  50.369  1.00  0.00     0.001 A 
HETATM   28  C   UNL     1       5.089  26.125  51.755  1.00  0.00     0.009 A 
ENDBRANCH  22  23
ENDBRANCH   1  22
TORSDOF 9
ENDMDL
