MODEL 1
REMARK VINA RESULT:     -10.0      0.000      0.000
REMARK  7 active torsions:
REMARK  status: ('A' for Active; 'I' for Inactive)
REMARK    1  A    between atoms: C_7  and  C_8 
REMARK    2  A    between atoms: C_8  and  N_9 
REMARK    3  A    between atoms: C_13  and  C_14 
REMARK    4  A    between atoms: C_14  and  C_15 
REMARK    5  A    between atoms: C_15  and  C_16 
REMARK    6  A    between atoms: N_26  and  C_27 
REMARK    7  A    between atoms: C_27  and  C_28 
ROOT
HETATM    1  C   UNL     1       6.992  25.422  55.114  1.00  0.00     0.123 C 
HETATM    2  N   UNL     1       5.804  24.730  54.637  1.00  0.00    -0.324 N 
HETATM    3  C   UNL     1       5.306  25.250  53.465  1.00  0.00     0.326 C 
HETATM    4  O   UNL     1       4.382  24.755  52.848  1.00  0.00    -0.247 OA
HETATM    5  N   UNL     1       5.987  26.391  53.188  1.00  0.00    -0.268 N 
HETATM    6  C   UNL     1       6.930  26.622  54.145  1.00  0.00     0.257 C 
HETATM    7  O   UNL     1       7.628  27.623  54.234  1.00  0.00    -0.270 OA
HETATM    8  H   UNL     1       5.471  23.828  54.964  1.00  0.00     0.165 HD
ENDROOT
BRANCH   1   9
HETATM    9  C   UNL     1       6.829  25.791  56.626  1.00  0.00     0.027 C 
HETATM   10  C   UNL     1       5.622  26.694  56.953  1.00  0.00     0.035 C 
HETATM   11  C   UNL     1       5.854  28.172  56.684  1.00  0.00     0.235 C 
HETATM   12  N   UNL     1       7.049  28.667  57.452  1.00  0.00    -0.067 N 
HETATM   13  H   UNL     1       6.796  28.641  58.447  1.00  0.00     0.280 HD
HETATM   14  C   UNL     1       8.302  27.856  57.269  1.00  0.00     0.235 C 
HETATM   15  C   UNL     1       8.057  26.357  57.361  1.00  0.00     0.035 C 
BRANCH  12  16
HETATM   16  C   UNL     1       7.361  30.127  57.145  1.00  0.00     0.277 C 
BRANCH  16  17
HETATM   17  C   UNL     1       7.860  30.900  58.307  1.00  0.00     0.011 A 
HETATM   18  C   UNL     1       9.210  31.254  58.589  1.00  0.00     0.060 A 
HETATM   19  C   UNL     1      10.439  30.929  57.817  1.00  0.00     0.073 C 
HETATM   20  N   UNL     1       9.300  31.994  59.694  1.00  0.00    -0.178 NA
HETATM   21  N   UNL     1       8.048  32.053  60.170  1.00  0.00    -0.284 N 
HETATM   22  C   UNL     1       7.786  32.738  61.414  1.00  0.00     0.179 C 
HETATM   23  C   UNL     1       7.139  31.438  59.356  1.00  0.00     0.122 A 
ENDBRANCH  16  17
ENDBRANCH  12  16
ENDBRANCH   1   9
BRANCH   1  24
HETATM   24  C   UNL     1       8.284  24.631  54.735  1.00  0.00     0.082 C 
BRANCH  24  25
HETATM   25  C   UNL     1       8.126  23.139  54.504  1.00  0.00    -0.034 A 
HETATM   26  C   UNL     1       8.117  22.181  55.533  1.00  0.00     0.040 A 
HETATM   27 CL   UNL     1       8.310  22.597  57.195  1.00  0.00    -0.084 Cl
HETATM   28  C   UNL     1       7.980  20.817  55.243  1.00  0.00     0.024 A 
HETATM   29  C   UNL     1       7.862  20.384  53.925  1.00  0.00     0.002 A 
HETATM   30  C   UNL     1       7.898  21.312  52.891  1.00  0.00     0.001 A 
HETATM   31  C   UNL     1       8.041  22.671  53.177  1.00  0.00     0.009 A 
ENDBRANCH  24  25
ENDBRANCH   1  24
BRANCH   5  32
HETATM   32  C   UNL     1       5.701  27.265  52.070  1.00  0.00     0.141 C 
BRANCH  32  33
HETATM   33  C   UNL     1       4.908  28.449  52.534  1.00  0.00     0.004 A 
HETATM   34  C   UNL     1       3.523  28.705  51.995  1.00  0.00     0.007 A 
HETATM   35  C   UNL     1       3.704  28.259  53.421  1.00  0.00     0.007 A 
ENDBRANCH  32  33
ENDBRANCH   5  32
TORSDOF 7
ENDMDL
MODEL 2
REMARK VINA RESULT:      -9.9      0.748      1.193
REMARK  7 active torsions:
REMARK  status: ('A' for Active; 'I' for Inactive)
REMARK    1  A    between atoms: C_7  and  C_8 
REMARK    2  A    between atoms: C_8  and  N_9 
REMARK    3  A    between atoms: C_13  and  C_14 
REMARK    4  A    between atoms: C_14  and  C_15 
REMARK    5  A    between atoms: C_15  and  C_16 
REMARK    6  A    between atoms: N_26  and  C_27 
REMARK    7  A    between atoms: C_27  and  C_28 
ROOT
HETATM    1  C   UNL     1       6.873  25.332  55.071  1.00  0.00     0.123 C 
HETATM    2  N   UNL     1       5.730  24.647  54.487  1.00  0.00    -0.324 N 
HETATM    3  C   UNL     1       5.294  25.219  53.314  1.00  0.00     0.326 C 
HETATM    4  O   UNL     1       4.420  24.741  52.617  1.00  0.00    -0.247 OA
HETATM    5  N   UNL     1       5.968  26.384  53.138  1.00  0.00    -0.268 N 
HETATM    6  C   UNL     1       6.846  26.581  54.163  1.00  0.00     0.257 C 
HETATM    7  O   UNL     1       7.519  27.587  54.345  1.00  0.00    -0.270 OA
HETATM    8  H   UNL     1       5.396  23.724  54.747  1.00  0.00     0.165 HD
ENDROOT
BRANCH   1   9
HETATM    9  C   UNL     1       6.611  25.621  56.587  1.00  0.00     0.027 C 
HETATM   10  C   UNL     1       5.402  26.533  56.881  1.00  0.00     0.035 C 
HETATM   11  C   UNL     1       5.682  28.017  56.714  1.00  0.00     0.235 C 
HETATM   12  N   UNL     1       6.830  28.440  57.591  1.00  0.00    -0.067 N 
HETATM   13  H   UNL     1       6.506  28.364  58.562  1.00  0.00     0.280 HD
HETATM   14  C   UNL     1       8.075  27.610  57.448  1.00  0.00     0.235 C 
HETATM   15  C   UNL     1       7.795  26.115  57.437  1.00  0.00     0.035 C 
BRANCH  12  16
HETATM   16  C   UNL     1       7.192  29.907  57.390  1.00  0.00     0.277 C 
BRANCH  16  17
HETATM   17  C   UNL     1       7.371  30.667  58.650  1.00  0.00     0.011 A 
HETATM   18  C   UNL     1       6.617  31.791  59.091  1.00  0.00     0.060 A 
HETATM   19  C   UNL     1       5.495  32.486  58.406  1.00  0.00     0.073 C 
HETATM   20  N   UNL     1       7.014  32.203  60.295  1.00  0.00    -0.178 NA
HETATM   21  N   UNL     1       8.058  31.418  60.598  1.00  0.00    -0.284 N 
HETATM   22  C   UNL     1       8.781  31.634  61.830  1.00  0.00     0.179 C 
HETATM   23  C   UNL     1       8.295  30.457  59.657  1.00  0.00     0.122 A 
ENDBRANCH  16  17
ENDBRANCH  12  16
ENDBRANCH   1   9
BRANCH   1  24
HETATM   24  C   UNL     1       8.201  24.584  54.733  1.00  0.00     0.082 C 
BRANCH  24  25
HETATM   25  C   UNL     1       8.096  23.091  54.480  1.00  0.00    -0.034 A 
HETATM   26  C   UNL     1       8.116  22.118  55.495  1.00  0.00     0.040 A 
HETATM   27 CL   UNL     1       8.291  22.516  57.164  1.00  0.00    -0.084 Cl
HETATM   28  C   UNL     1       8.028  20.755  55.185  1.00  0.00     0.024 A 
HETATM   29  C   UNL     1       7.929  20.337  53.860  1.00  0.00     0.002 A 
HETATM   30  C   UNL     1       7.936  21.280  52.840  1.00  0.00     0.001 A 
HETATM   31  C   UNL     1       8.031  22.640  53.146  1.00  0.00     0.009 A 
ENDBRANCH  24  25
ENDBRANCH   1  24
BRANCH   5  32
HETATM   32  C   UNL     1       5.734  27.310  52.050  1.00  0.00     0.141 C 
BRANCH  32  33
HETATM   33  C   UNL     1       4.918  28.470  52.532  1.00  0.00     0.004 A 
HETATM   34  C   UNL     1       3.637  28.853  51.833  1.00  0.00     0.007 A 
HETATM   35  C   UNL     1       3.591  28.241  53.207  1.00  0.00     0.007 A 
ENDBRANCH  32  33
ENDBRANCH   5  32
TORSDOF 7
ENDMDL
MODEL 3
REMARK VINA RESULT:      -9.2      2.871      7.410
REMARK  7 active torsions:
REMARK  status: ('A' for Active; 'I' for Inactive)
REMARK    1  A    between atoms: C_7  and  C_8 
REMARK    2  A    between atoms: C_8  and  N_9 
REMARK    3  A    between atoms: C_13  and  C_14 
REMARK    4  A    between atoms: C_14  and  C_15 
REMARK    5  A    between atoms: C_15  and  C_16 
REMARK    6  A    between atoms: N_26  and  C_27 
REMARK    7  A    between atoms: C_27  and  C_28 
ROOT
HETATM    1  C   UNL     1       5.827  26.325  54.726  1.00  0.00     0.123 C 
HETATM    2  N   UNL     1       6.942  26.696  53.868  1.00  0.00    -0.324 N 
HETATM    3  C   UNL     1       7.688  27.739  54.366  1.00  0.00     0.326 C 
HETATM    4  O   UNL     1       8.718  28.134  53.854  1.00  0.00    -0.247 OA
HETATM    5  N   UNL     1       7.043  28.238  55.451  1.00  0.00    -0.268 N 
HETATM    6  C   UNL     1       5.897  27.535  55.683  1.00  0.00     0.257 C 
HETATM    7  O   UNL     1       5.048  27.809  56.520  1.00  0.00    -0.270 OA
HETATM    8  H   UNL     1       7.309  26.143  53.099  1.00  0.00     0.165 HD
ENDROOT
BRANCH   1   9
HETATM    9  C   UNL     1       4.510  26.231  53.886  1.00  0.00     0.027 C 
HETATM   10  C   UNL     1       4.556  25.239  52.705  1.00  0.00     0.035 C 
HETATM   11  C   UNL     1       5.235  25.781  51.458  1.00  0.00     0.235 C 
HETATM   12  N   UNL     1       4.564  27.047  50.999  1.00  0.00    -0.067 N 
HETATM   13  H   UNL     1       3.628  26.785  50.668  1.00  0.00     0.280 HD
HETATM   14  C   UNL     1       4.406  28.101  52.059  1.00  0.00     0.235 C 
HETATM   15  C   UNL     1       3.889  27.545  53.378  1.00  0.00     0.035 C 
BRANCH  12  16
HETATM   16  C   UNL     1       5.268  27.663  49.796  1.00  0.00     0.277 C 
BRANCH  16  17
HETATM   17  C   UNL     1       4.357  28.078  48.704  1.00  0.00     0.011 A 
HETATM   18  C   UNL     1       3.541  27.234  47.898  1.00  0.00     0.060 A 
HETATM   19  C   UNL     1       3.413  25.752  47.933  1.00  0.00     0.073 C 
HETATM   20  N   UNL     1       2.807  27.940  47.038  1.00  0.00    -0.178 NA
HETATM   21  N   UNL     1       3.195  29.211  47.221  1.00  0.00    -0.284 N 
HETATM   22  C   UNL     1       2.636  30.256  46.395  1.00  0.00     0.179 C 
HETATM   23  C   UNL     1       4.102  29.352  48.232  1.00  0.00     0.122 A 
ENDBRANCH  16  17
ENDBRANCH  12  16
ENDBRANCH   1   9
BRANCH   1  24
HETATM   24  C   UNL     1       6.183  25.074  55.589  1.00  0.00     0.082 C 
BRANCH  24  25
HETATM   25  C   UNL     1       7.196  24.107  55.003  1.00  0.00    -0.034 A 
HETATM   26  C   UNL     1       8.438  23.816  55.594  1.00  0.00     0.040 A 
HETATM   27 CL   UNL     1       8.968  24.554  57.061  1.00  0.00    -0.084 Cl
HETATM   28  C   UNL     1       9.330  22.922  54.988  1.00  0.00     0.024 A 
HETATM   29  C   UNL     1       9.005  22.312  53.779  1.00  0.00     0.002 A 
HETATM   30  C   UNL     1       7.796  22.608  53.163  1.00  0.00     0.001 A 
HETATM   31  C   UNL     1       6.908  23.504  53.762  1.00  0.00     0.009 A 
ENDBRANCH  24  25
ENDBRANCH   1  24
BRANCH   5  32
HETATM   32  C   UNL     1       7.481  29.393  56.206  1.00  0.00     0.141 C 
BRANCH  32  33
HETATM   33  C   UNL     1       8.495  28.981  57.229  1.00  0.00     0.004 A 
HETATM   34  C   UNL     1       9.957  29.293  57.032  1.00  0.00     0.007 A 
HETATM   35  C   UNL     1       9.170  30.014  58.093  1.00  0.00     0.007 A 
ENDBRANCH  32  33
ENDBRANCH   5  32
TORSDOF 7
ENDMDL
MODEL 4
REMARK VINA RESULT:      -9.1      3.290      7.849
REMARK  7 active torsions:
REMARK  status: ('A' for Active; 'I' for Inactive)
REMARK    1  A    between atoms: C_7  and  C_8 
REMARK    2  A    between atoms: C_8  and  N_9 
REMARK    3  A    between atoms: C_13  and  C_14 
REMARK    4  A    between atoms: C_14  and  C_15 
REMARK    5  A    between atoms: C_15  and  C_16 
REMARK    6  A    between atoms: N_26  and  C_27 
REMARK    7  A    between atoms: C_27  and  C_28 
ROOT
HETATM    1  C   UNL     1       4.922  27.722  52.797  1.00  0.00     0.123 C 
HETATM    2  N   UNL     1       3.929  27.939  53.839  1.00  0.00    -0.324 N 
HETATM    3  C   UNL     1       4.453  28.496  54.982  1.00  0.00     0.326 C 
HETATM    4  O   UNL     1       3.777  28.851  55.929  1.00  0.00    -0.247 OA
HETATM    5  N   UNL     1       5.805  28.517  54.859  1.00  0.00    -0.268 N 
HETATM    6  C   UNL     1       6.177  27.998  53.653  1.00  0.00     0.257 C 
HETATM    7  O   UNL     1       7.325  27.783  53.291  1.00  0.00    -0.270 OA
HETATM    8  H   UNL     1       2.921  27.914  53.712  1.00  0.00     0.165 HD
ENDROOT
BRANCH   1   9
HETATM    9  C   UNL     1       4.813  26.260  52.247  1.00  0.00     0.027 C 
HETATM   10  C   UNL     1       4.678  25.164  53.324  1.00  0.00     0.035 C 
HETATM   11  C   UNL     1       5.992  24.754  53.969  1.00  0.00     0.235 C 
HETATM   12  N   UNL     1       6.970  24.288  52.926  1.00  0.00    -0.067 N 
HETATM   13  H   UNL     1       6.604  23.406  52.547  1.00  0.00     0.280 HD
HETATM   14  C   UNL     1       7.176  25.239  51.780  1.00  0.00     0.235 C 
HETATM   15  C   UNL     1       5.872  25.798  51.230  1.00  0.00     0.035 C 
BRANCH  12  16
HETATM   16  C   UNL     1       8.328  23.944  53.528  1.00  0.00     0.277 C 
BRANCH  16  17
HETATM   17  C   UNL     1       8.290  22.858  54.534  1.00  0.00     0.011 A 
HETATM   18  C   UNL     1       8.108  21.466  54.291  1.00  0.00     0.060 A 
HETATM   19  C   UNL     1       7.896  20.767  52.996  1.00  0.00     0.073 C 
HETATM   20  N   UNL     1       8.172  20.761  55.421  1.00  0.00    -0.178 NA
HETATM   21  N   UNL     1       8.310  21.678  56.389  1.00  0.00    -0.284 N 
HETATM   22  C   UNL     1       8.351  21.259  57.771  1.00  0.00     0.179 C 
HETATM   23  C   UNL     1       8.417  22.951  55.908  1.00  0.00     0.122 A 
ENDBRANCH  16  17
ENDBRANCH  12  16
ENDBRANCH   1   9
BRANCH   1  24
HETATM   24  C   UNL     1       4.868  28.863  51.732  1.00  0.00     0.082 C 
BRANCH  24  25
HETATM   25  C   UNL     1       3.750  28.787  50.708  1.00  0.00    -0.034 A 
HETATM   26  C   UNL     1       3.953  28.521  49.342  1.00  0.00     0.040 A 
HETATM   27 CL   UNL     1       5.518  28.271  48.663  1.00  0.00    -0.084 Cl
HETATM   28  C   UNL     1       2.873  28.479  48.451  1.00  0.00     0.024 A 
HETATM   29  C   UNL     1       1.576  28.712  48.902  1.00  0.00     0.002 A 
HETATM   30  C   UNL     1       1.357  29.006  50.243  1.00  0.00     0.001 A 
HETATM   31  C   UNL     1       2.433  29.055  51.132  1.00  0.00     0.009 A 
ENDBRANCH  24  25
ENDBRANCH   1  24
BRANCH   5  32
HETATM   32  C   UNL     1       6.716  28.965  55.891  1.00  0.00     0.141 C 
BRANCH  32  33
HETATM   33  C   UNL     1       6.997  27.846  56.846  1.00  0.00     0.004 A 
HETATM   34  C   UNL     1       8.396  27.303  57.004  1.00  0.00     0.007 A 
HETATM   35  C   UNL     1       7.769  28.102  58.114  1.00  0.00     0.007 A 
ENDBRANCH  32  33
ENDBRANCH   5  32
TORSDOF 7
ENDMDL
MODEL 5
REMARK VINA RESULT:      -8.9      2.775      7.019
REMARK  7 active torsions:
REMARK  status: ('A' for Active; 'I' for Inactive)
REMARK    1  A    between atoms: C_7  and  C_8 
REMARK    2  A    between atoms: C_8  and  N_9 
REMARK    3  A    between atoms: C_13  and  C_14 
REMARK    4  A    between atoms: C_14  and  C_15 
REMARK    5  A    between atoms: C_15  and  C_16 
REMARK    6  A    between atoms: N_26  and  C_27 
REMARK    7  A    between atoms: C_27  and  C_28 
ROOT
HETATM    1  C   UNL     1       7.119  25.412  54.234  1.00  0.00     0.123 C 
HETATM    2  N   UNL     1       7.497  26.743  53.783  1.00  0.00    -0.324 N 
HETATM    3  C   UNL     1       7.500  27.678  54.791  1.00  0.00     0.326 C 
HETATM    4  O   UNL     1       7.884  28.823  54.646  1.00  0.00    -0.247 OA
HETATM    5  N   UNL     1       6.969  27.104  55.901  1.00  0.00    -0.268 N 
HETATM    6  C   UNL     1       6.631  25.807  55.645  1.00  0.00     0.257 C 
HETATM    7  O   UNL     1       6.034  25.060  56.408  1.00  0.00    -0.270 OA
HETATM    8  H   UNL     1       7.934  26.966  52.894  1.00  0.00     0.165 HD
ENDROOT
BRANCH   1   9
HETATM    9  C   UNL     1       6.012  24.821  53.300  1.00  0.00     0.027 C 
HETATM   10  C   UNL     1       6.349  24.833  51.795  1.00  0.00     0.035 C 
HETATM   11  C   UNL     1       6.120  26.171  51.112  1.00  0.00     0.235 C 
HETATM   12  N   UNL     1       4.694  26.617  51.290  1.00  0.00    -0.067 N 
HETATM   13  H   UNL     1       4.109  25.968  50.750  1.00  0.00     0.280 HD
HETATM   14  C   UNL     1       4.202  26.616  52.711  1.00  0.00     0.235 C 
HETATM   15  C   UNL     1       4.576  25.351  53.468  1.00  0.00     0.035 C 
BRANCH  12  16
HETATM   16  C   UNL     1       4.446  27.995  50.686  1.00  0.00     0.277 C 
BRANCH  16  17
HETATM   17  C   UNL     1       3.644  27.977  49.440  1.00  0.00     0.011 A 
HETATM   18  C   UNL     1       4.132  27.906  48.105  1.00  0.00     0.060 A 
HETATM   19  C   UNL     1       5.540  27.851  47.629  1.00  0.00     0.073 C 
HETATM   20  N   UNL     1       3.134  27.863  47.222  1.00  0.00    -0.178 NA
HETATM   21  N   UNL     1       2.020  27.987  47.958  1.00  0.00    -0.284 N 
HETATM   22  C   UNL     1       0.733  28.042  47.306  1.00  0.00     0.179 C 
HETATM   23  C   UNL     1       2.270  28.028  49.301  1.00  0.00     0.122 A 
ENDBRANCH  16  17
ENDBRANCH  12  16
ENDBRANCH   1   9
BRANCH   1  24
HETATM   24  C   UNL     1       8.383  24.520  54.452  1.00  0.00     0.082 C 
BRANCH  24  25
HETATM   25  C   UNL     1       8.170  23.017  54.423  1.00  0.00    -0.034 A 
HETATM   26  C   UNL     1       8.100  22.211  55.572  1.00  0.00     0.040 A 
HETATM   27 CL   UNL     1       8.277  22.844  57.167  1.00  0.00    -0.084 Cl
HETATM   28  C   UNL     1       7.914  20.826  55.468  1.00  0.00     0.024 A 
HETATM   29  C   UNL     1       7.806  20.221  54.219  1.00  0.00     0.002 A 
HETATM   30  C   UNL     1       7.901  20.996  53.069  1.00  0.00     0.001 A 
HETATM   31  C   UNL     1       8.093  22.375  53.170  1.00  0.00     0.009 A 
ENDBRANCH  24  25
ENDBRANCH   1  24
BRANCH   5  32
HETATM   32  C   UNL     1       6.738  27.795  57.151  1.00  0.00     0.141 C 
BRANCH  32  33
HETATM   33  C   UNL     1       5.297  28.193  57.257  1.00  0.00     0.004 A 
HETATM   34  C   UNL     1       4.906  29.647  57.348  1.00  0.00     0.007 A 
HETATM   35  C   UNL     1       4.605  28.864  56.099  1.00  0.00     0.007 A 
ENDBRANCH  32  33
ENDBRANCH   5  32
TORSDOF 7
ENDMDL
MODEL 6
REMARK VINA RESULT:      -8.6      2.350      3.023
REMARK  7 active torsions:
REMARK  status: ('A' for Active; 'I' for Inactive)
REMARK    1  A    between atoms: C_7  and  C_8 
REMARK    2  A    between atoms: C_8  and  N_9 
REMARK    3  A    between atoms: C_13  and  C_14 
REMARK    4  A    between atoms: C_14  and  C_15 
REMARK    5  A    between atoms: C_15  and  C_16 
REMARK    6  A    between atoms: N_26  and  C_27 
REMARK    7  A    between atoms: C_27  and  C_28 
ROOT
HETATM    1  C   UNL     1       7.147  25.441  54.737  1.00  0.00     0.123 C 
HETATM    2  N   UNL     1       5.863  24.792  54.514  1.00  0.00    -0.324 N 
HETATM    3  C   UNL     1       5.327  25.058  53.276  1.00  0.00     0.326 C 
HETATM    4  O   UNL     1       4.315  24.533  52.854  1.00  0.00    -0.247 OA
HETATM    5  N   UNL     1       6.091  26.010  52.681  1.00  0.00    -0.268 N 
HETATM    6  C   UNL     1       7.125  26.363  53.498  1.00  0.00     0.257 C 
HETATM    7  O   UNL     1       7.922  27.268  53.292  1.00  0.00    -0.270 OA
HETATM    8  H   UNL     1       5.472  24.043  55.078  1.00  0.00     0.165 HD
ENDROOT
BRANCH   1   9
HETATM    9  C   UNL     1       7.140  26.190  56.111  1.00  0.00     0.027 C 
HETATM   10  C   UNL     1       5.909  25.917  57.000  1.00  0.00     0.035 C 
HETATM   11  C   UNL     1       4.676  26.724  56.628  1.00  0.00     0.235 C 
HETATM   12  N   UNL     1       4.979  28.197  56.663  1.00  0.00    -0.067 N 
HETATM   13  H   UNL     1       5.140  28.445  57.646  1.00  0.00     0.280 HD
HETATM   14  C   UNL     1       6.187  28.615  55.871  1.00  0.00     0.235 C 
HETATM   15  C   UNL     1       7.388  27.710  56.099  1.00  0.00     0.035 C 
BRANCH  12  16
HETATM   16  C   UNL     1       3.786  29.036  56.217  1.00  0.00     0.277 C 
BRANCH  16  17
HETATM   17  C   UNL     1       3.665  30.339  56.912  1.00  0.00     0.011 A 
HETATM   18  C   UNL     1       3.117  31.544  56.390  1.00  0.00     0.060 A 
HETATM   19  C   UNL     1       2.556  31.804  55.037  1.00  0.00     0.073 C 
HETATM   20  N   UNL     1       3.120  32.517  57.302  1.00  0.00    -0.178 NA
HETATM   21  N   UNL     1       3.732  31.984  58.369  1.00  0.00    -0.284 N 
HETATM   22  C   UNL     1       3.965  32.796  59.541  1.00  0.00     0.179 C 
HETATM   23  C   UNL     1       4.052  30.667  58.198  1.00  0.00     0.122 A 
ENDBRANCH  16  17
ENDBRANCH  12  16
ENDBRANCH   1   9
BRANCH   1  24
HETATM   24  C   UNL     1       8.322  24.440  54.506  1.00  0.00     0.082 C 
BRANCH  24  25
HETATM   25  C   UNL     1       8.180  23.065  55.134  1.00  0.00    -0.034 A 
HETATM   26  C   UNL     1       8.425  22.792  56.492  1.00  0.00     0.040 A 
HETATM   27 CL   UNL     1       8.946  24.002  57.606  1.00  0.00    -0.084 Cl
HETATM   28  C   UNL     1       8.286  21.495  57.000  1.00  0.00     0.024 A 
HETATM   29  C   UNL     1       7.912  20.446  56.164  1.00  0.00     0.002 A 
HETATM   30  C   UNL     1       7.693  20.688  54.813  1.00  0.00     0.001 A 
HETATM   31  C   UNL     1       7.838  21.979  54.303  1.00  0.00     0.009 A 
ENDBRANCH  24  25
ENDBRANCH   1  24
BRANCH   5  32
HETATM   32  C   UNL     1       5.805  26.606  51.394  1.00  0.00     0.141 C 
BRANCH  32  33
HETATM   33  C   UNL     1       4.964  27.833  51.574  1.00  0.00     0.004 A 
HETATM   34  C   UNL     1       5.432  29.169  51.052  1.00  0.00     0.007 A 
HETATM   35  C   UNL     1       4.277  28.466  50.392  1.00  0.00     0.007 A 
ENDBRANCH  32  33
ENDBRANCH   5  32
TORSDOF 7
ENDMDL
MODEL 7
REMARK VINA RESULT:      -8.4      3.278      8.428
REMARK  7 active torsions:
REMARK  status: ('A' for Active; 'I' for Inactive)
REMARK    1  A    between atoms: C_7  and  C_8 
REMARK    2  A    between atoms: C_8  and  N_9 
REMARK    3  A    between atoms: C_13  and  C_14 
REMARK    4  A    between atoms: C_14  and  C_15 
REMARK    5  A    between atoms: C_15  and  C_16 
REMARK    6  A    between atoms: N_26  and  C_27 
REMARK    7  A    between atoms: C_27  and  C_28 
ROOT
HETATM    1  C   UNL     1       6.222  26.177  54.347  1.00  0.00     0.123 C 
HETATM    2  N   UNL     1       6.136  25.701  55.719  1.00  0.00    -0.324 N 
HETATM    3  C   UNL     1       7.066  24.733  56.019  1.00  0.00     0.326 C 
HETATM    4  O   UNL     1       7.228  24.279  57.135  1.00  0.00    -0.247 OA
HETATM    5  N   UNL     1       7.689  24.377  54.867  1.00  0.00    -0.268 N 
HETATM    6  C   UNL     1       7.197  25.101  53.821  1.00  0.00     0.257 C 
HETATM    7  O   UNL     1       7.479  24.935  52.642  1.00  0.00    -0.270 OA
HETATM    8  H   UNL     1       5.624  26.152  56.472  1.00  0.00     0.165 HD
ENDROOT
BRANCH   1   9
HETATM    9  C   UNL     1       4.806  26.158  53.680  1.00  0.00     0.027 C 
HETATM   10  C   UNL     1       4.651  25.179  52.498  1.00  0.00     0.035 C 
HETATM   11  C   UNL     1       5.194  25.701  51.178  1.00  0.00     0.235 C 
HETATM   12  N   UNL     1       4.536  27.004  50.814  1.00  0.00    -0.067 N 
HETATM   13  H   UNL     1       3.553  26.793  50.604  1.00  0.00     0.280 HD
HETATM   14  C   UNL     1       4.568  28.052  51.891  1.00  0.00     0.235 C 
HETATM   15  C   UNL     1       4.194  27.507  53.262  1.00  0.00     0.035 C 
BRANCH  12  16
HETATM   16  C   UNL     1       5.113  27.598  49.534  1.00  0.00     0.277 C 
BRANCH  16  17
HETATM   17  C   UNL     1       4.095  27.979  48.528  1.00  0.00     0.011 A 
HETATM   18  C   UNL     1       3.272  27.104  47.764  1.00  0.00     0.060 A 
HETATM   19  C   UNL     1       3.238  25.617  47.767  1.00  0.00     0.073 C 
HETATM   20  N   UNL     1       2.431  27.782  46.983  1.00  0.00    -0.178 NA
HETATM   21  N   UNL     1       2.753  29.070  47.170  1.00  0.00    -0.284 N 
HETATM   22  C   UNL     1       2.068  30.096  46.420  1.00  0.00     0.179 C 
HETATM   23  C   UNL     1       3.727  29.245  48.113  1.00  0.00     0.122 A 
ENDBRANCH  16  17
ENDBRANCH  12  16
ENDBRANCH   1   9
BRANCH   1  24
HETATM   24  C   UNL     1       6.998  27.530  54.276  1.00  0.00     0.082 C 
BRANCH  24  25
HETATM   25  C   UNL     1       7.276  28.226  55.596  1.00  0.00    -0.034 A 
HETATM   26  C   UNL     1       6.363  29.077  56.244  1.00  0.00     0.040 A 
HETATM   27 CL   UNL     1       4.812  29.450  55.589  1.00  0.00    -0.084 Cl
HETATM   28  C   UNL     1       6.694  29.695  57.456  1.00  0.00     0.024 A 
HETATM   29  C   UNL     1       7.942  29.487  58.037  1.00  0.00     0.002 A 
HETATM   30  C   UNL     1       8.870  28.673  57.399  1.00  0.00     0.001 A 
HETATM   31  C   UNL     1       8.545  28.060  56.187  1.00  0.00     0.009 A 
ENDBRANCH  24  25
ENDBRANCH   1  24
BRANCH   5  32
HETATM   32  C   UNL     1       8.684  23.331  54.763  1.00  0.00     0.141 C 
BRANCH  32  33
HETATM   33  C   UNL     1       8.021  22.020  54.470  1.00  0.00     0.004 A 
HETATM   34  C   UNL     1       8.370  21.242  53.226  1.00  0.00     0.007 A 
HETATM   35  C   UNL     1       8.796  20.733  54.577  1.00  0.00     0.007 A 
ENDBRANCH  32  33
ENDBRANCH   5  32
TORSDOF 7
ENDMDL
MODEL 8
REMARK VINA RESULT:      -8.1      3.473      6.575
REMARK  7 active torsions:
REMARK  status: ('A' for Active; 'I' for Inactive)
REMARK    1  A    between atoms: C_7  and  C_8 
REMARK    2  A    between atoms: C_8  and  N_9 
REMARK    3  A    between atoms: C_13  and  C_14 
REMARK    4  A    between atoms: C_14  and  C_15 
REMARK    5  A    between atoms: C_15  and  C_16 
REMARK    6  A    between atoms: N_26  and  C_27 
REMARK    7  A    between atoms: C_27  and  C_28 
ROOT
HETATM    1  C   UNL     1       5.074  27.445  51.175  1.00  0.00     0.123 C 
HETATM    2  N   UNL     1       5.911  28.635  51.145  1.00  0.00    -0.324 N 
HETATM    3  C   UNL     1       5.783  29.361  49.984  1.00  0.00     0.326 C 
HETATM    4  O   UNL     1       6.315  30.439  49.803  1.00  0.00    -0.247 OA
HETATM    5  N   UNL     1       5.026  28.640  49.118  1.00  0.00    -0.268 N 
HETATM    6  C   UNL     1       4.644  27.464  49.692  1.00  0.00     0.257 C 
HETATM    7  O   UNL     1       4.048  26.555  49.130  1.00  0.00    -0.270 OA
HETATM    8  H   UNL     1       6.379  29.051  51.945  1.00  0.00     0.165 HD
ENDROOT
BRANCH   1   9
HETATM    9  C   UNL     1       5.925  26.200  51.593  1.00  0.00     0.027 C 
HETATM   10  C   UNL     1       5.114  25.006  52.139  1.00  0.00     0.035 C 
HETATM   11  C   UNL     1       4.709  25.139  53.598  1.00  0.00     0.235 C 
HETATM   12  N   UNL     1       5.922  25.336  54.467  1.00  0.00    -0.067 N 
HETATM   13  H   UNL     1       6.452  24.456  54.443  1.00  0.00     0.280 HD
HETATM   14  C   UNL     1       6.840  26.444  54.032  1.00  0.00     0.235 C 
HETATM   15  C   UNL     1       7.119  26.433  52.537  1.00  0.00     0.035 C 
BRANCH  12  16
HETATM   16  C   UNL     1       5.549  25.552  55.929  1.00  0.00     0.277 C 
BRANCH  16  17
HETATM   17  C   UNL     1       6.499  26.406  56.679  1.00  0.00     0.011 A 
HETATM   18  C   UNL     1       7.791  26.043  57.154  1.00  0.00     0.060 A 
HETATM   19  C   UNL     1       8.494  24.737  57.037  1.00  0.00     0.073 C 
HETATM   20  N   UNL     1       8.398  27.069  57.750  1.00  0.00    -0.178 NA
HETATM   21  N   UNL     1       7.492  28.057  57.739  1.00  0.00    -0.284 N 
HETATM   22  C   UNL     1       7.801  29.319  58.369  1.00  0.00     0.179 C 
HETATM   23  C   UNL     1       6.344  27.721  57.079  1.00  0.00     0.122 A 
ENDBRANCH  16  17
ENDBRANCH  12  16
ENDBRANCH   1   9
BRANCH   1  24
HETATM   24  C   UNL     1       3.775  27.700  52.002  1.00  0.00     0.082 C 
BRANCH  24  25
HETATM   25  C   UNL     1       3.760  28.935  52.884  1.00  0.00    -0.034 A 
HETATM   26  C   UNL     1       3.201  30.167  52.502  1.00  0.00     0.040 A 
HETATM   27 CL   UNL     1       2.482  30.424  50.955  1.00  0.00    -0.084 Cl
HETATM   28  C   UNL     1       3.235  31.270  53.365  1.00  0.00     0.024 A 
HETATM   29  C   UNL     1       3.836  31.168  54.617  1.00  0.00     0.002 A 
HETATM   30  C   UNL     1       4.420  29.968  55.003  1.00  0.00     0.001 A 
HETATM   31  C   UNL     1       4.393  28.869  54.142  1.00  0.00     0.009 A 
ENDBRANCH  24  25
ENDBRANCH   1  24
BRANCH   5  32
HETATM   32  C   UNL     1       4.729  29.041  47.759  1.00  0.00     0.141 C 
BRANCH  32  33
HETATM   33  C   UNL     1       3.393  29.718  47.705  1.00  0.00     0.004 A 
HETATM   34  C   UNL     1       2.875  30.295  46.411  1.00  0.00     0.007 A 
HETATM   35  C   UNL     1       2.236  29.065  46.996  1.00  0.00     0.007 A 
ENDBRANCH  32  33
ENDBRANCH   5  32
TORSDOF 7
ENDMDL
MODEL 9
REMARK VINA RESULT:      -8.1      2.225      5.283
REMARK  7 active torsions:
REMARK  status: ('A' for Active; 'I' for Inactive)
REMARK    1  A    between atoms: C_7  and  C_8 
REMARK    2  A    between atoms: C_8  and  N_9 
REMARK    3  A    between atoms: C_13  and  C_14 
REMARK    4  A    between atoms: C_14  and  C_15 
REMARK    5  A    between atoms: C_15  and  C_16 
REMARK    6  A    between atoms: N_26  and  C_27 
REMARK    7  A    between atoms: C_27  and  C_28 
ROOT
HETATM    1  C   UNL     1       4.966  27.858  54.514  1.00  0.00     0.123 C 
HETATM    2  N   UNL     1       6.182  28.587  54.186  1.00  0.00    -0.324 N 
HETATM    3  C   UNL     1       7.265  27.767  53.966  1.00  0.00     0.326 C 
HETATM    4  O   UNL     1       8.345  28.170  53.580  1.00  0.00    -0.247 OA
HETATM    5  N   UNL     1       6.909  26.500  54.299  1.00  0.00    -0.268 N 
HETATM    6  C   UNL     1       5.612  26.470  54.720  1.00  0.00     0.257 C 
HETATM    7  O   UNL     1       5.035  25.498  55.188  1.00  0.00    -0.270 OA
HETATM    8  H   UNL     1       6.233  29.564  53.915  1.00  0.00     0.165 HD
ENDROOT
BRANCH   1   9
HETATM    9  C   UNL     1       4.303  28.467  55.794  1.00  0.00     0.027 C 
HETATM   10  C   UNL     1       4.067  29.990  55.748  1.00  0.00     0.035 C 
HETATM   11  C   UNL     1       5.297  30.825  56.068  1.00  0.00     0.235 C 
HETATM   12  N   UNL     1       5.844  30.462  57.422  1.00  0.00    -0.067 N 
HETATM   13  H   UNL     1       5.154  30.776  58.115  1.00  0.00     0.280 HD
HETATM   14  C   UNL     1       6.086  28.994  57.635  1.00  0.00     0.235 C 
HETATM   15  C   UNL     1       4.932  28.126  57.158  1.00  0.00     0.035 C 
BRANCH  12  16
HETATM   16  C   UNL     1       7.125  31.223  57.743  1.00  0.00     0.277 C 
BRANCH  16  17
HETATM   17  C   UNL     1       7.519  31.175  59.170  1.00  0.00     0.011 A 
HETATM   18  C   UNL     1       6.904  31.861  60.256  1.00  0.00     0.060 A 
HETATM   19  C   UNL     1       5.746  32.794  60.232  1.00  0.00     0.073 C 
HETATM   20  N   UNL     1       7.483  31.556  61.417  1.00  0.00    -0.178 NA
HETATM   21  N   UNL     1       8.507  30.755  61.089  1.00  0.00    -0.284 N 
HETATM   22  C   UNL     1       9.401  30.278  62.118  1.00  0.00     0.179 C 
HETATM   23  C   UNL     1       8.555  30.469  59.754  1.00  0.00     0.122 A 
ENDBRANCH  16  17
ENDBRANCH  12  16
ENDBRANCH   1   9
BRANCH   1  24
HETATM   24  C   UNL     1       4.045  27.721  53.261  1.00  0.00     0.082 C 
BRANCH  24  25
HETATM   25  C   UNL     1       4.465  28.488  52.020  1.00  0.00    -0.034 A 
HETATM   26  C   UNL     1       5.129  27.907  50.925  1.00  0.00     0.040 A 
HETATM   27 CL   UNL     1       5.569  26.240  50.879  1.00  0.00    -0.084 Cl
HETATM   28  C   UNL     1       5.498  28.681  49.816  1.00  0.00     0.024 A 
HETATM   29  C   UNL     1       5.222  30.045  49.785  1.00  0.00     0.002 A 
HETATM   30  C   UNL     1       4.593  30.645  50.869  1.00  0.00     0.001 A 
HETATM   31  C   UNL     1       4.231  29.877  51.978  1.00  0.00     0.009 A 
ENDBRANCH  24  25
ENDBRANCH   1  24
BRANCH   5  32
HETATM   32  C   UNL     1       7.804  25.363  54.272  1.00  0.00     0.141 C 
BRANCH  32  33
HETATM   33  C   UNL     1       7.219  24.270  53.431  1.00  0.00     0.004 A 
HETATM   34  C   UNL     1       8.111  23.343  52.645  1.00  0.00     0.007 A 
HETATM   35  C   UNL     1       7.364  22.829  53.845  1.00  0.00     0.007 A 
ENDBRANCH  32  33
ENDBRANCH   5  32
TORSDOF 7
ENDMDL
MODEL 10
REMARK VINA RESULT:      -7.6      3.300      7.336
REMARK  7 active torsions:
REMARK  status: ('A' for Active; 'I' for Inactive)
REMARK    1  A    between atoms: C_7  and  C_8 
REMARK    2  A    between atoms: C_8  and  N_9 
REMARK    3  A    between atoms: C_13  and  C_14 
REMARK    4  A    between atoms: C_14  and  C_15 
REMARK    5  A    between atoms: C_15  and  C_16 
REMARK    6  A    between atoms: N_26  and  C_27 
REMARK    7  A    between atoms: C_27  and  C_28 
ROOT
HETATM    1  C   UNL     1       6.172  26.911  53.970  1.00  0.00     0.123 C 
HETATM    2  N   UNL     1       5.573  26.419  55.202  1.00  0.00    -0.324 N 
HETATM    3  C   UNL     1       6.263  25.368  55.759  1.00  0.00     0.326 C 
HETATM    4  O   UNL     1       5.988  24.880  56.839  1.00  0.00    -0.247 OA
HETATM    5  N   UNL     1       7.222  24.980  54.881  1.00  0.00    -0.268 N 
HETATM    6  C   UNL     1       7.185  25.764  53.765  1.00  0.00     0.257 C 
HETATM    7  O   UNL     1       7.849  25.597  52.751  1.00  0.00    -0.270 OA
HETATM    8  H   UNL     1       4.865  26.899  55.750  1.00  0.00     0.165 HD
ENDROOT
BRANCH   1   9
HETATM    9  C   UNL     1       5.083  27.030  52.852  1.00  0.00     0.027 C 
HETATM   10  C   UNL     1       5.562  27.676  51.537  1.00  0.00     0.035 C 
HETATM   11  C   UNL     1       5.605  29.196  51.564  1.00  0.00     0.235 C 
HETATM   12  N   UNL     1       4.253  29.756  51.913  1.00  0.00    -0.067 N 
HETATM   13  H   UNL     1       3.632  29.548  51.122  1.00  0.00     0.280 HD
HETATM   14  C   UNL     1       3.632  29.186  53.157  1.00  0.00     0.235 C 
HETATM   15  C   UNL     1       3.735  27.670  53.231  1.00  0.00     0.035 C 
BRANCH  12  16
HETATM   16  C   UNL     1       4.277  31.276  52.029  1.00  0.00     0.277 C 
BRANCH  16  17
HETATM   17  C   UNL     1       4.644  31.976  50.775  1.00  0.00     0.011 A 
HETATM   18  C   UNL     1       5.369  33.195  50.651  1.00  0.00     0.060 A 
HETATM   19  C   UNL     1       5.916  34.067  51.725  1.00  0.00     0.073 C 
HETATM   20  N   UNL     1       5.564  33.519  49.373  1.00  0.00    -0.178 NA
HETATM   21  N   UNL     1       4.910  32.578  48.677  1.00  0.00    -0.284 N 
HETATM   22  C   UNL     1       4.861  32.657  47.236  1.00  0.00     0.179 C 
HETATM   23  C   UNL     1       4.365  31.609  49.472  1.00  0.00     0.122 A 
ENDBRANCH  16  17
ENDBRANCH  12  16
ENDBRANCH   1   9
BRANCH   1  24
HETATM   24  C   UNL     1       7.023  28.192  54.239  1.00  0.00     0.082 C 
BRANCH  24  25
HETATM   25  C   UNL     1       6.721  28.954  55.517  1.00  0.00    -0.034 A 
HETATM   26  C   UNL     1       7.404  28.755  56.730  1.00  0.00     0.040 A 
HETATM   27 CL   UNL     1       8.661  27.589  56.912  1.00  0.00    -0.084 Cl
HETATM   28  C   UNL     1       7.062  29.488  57.875  1.00  0.00     0.024 A 
HETATM   29  C   UNL     1       6.029  30.420  57.833  1.00  0.00     0.002 A 
HETATM   30  C   UNL     1       5.323  30.612  56.652  1.00  0.00     0.001 A 
HETATM   31  C   UNL     1       5.657  29.879  55.512  1.00  0.00     0.009 A 
ENDBRANCH  24  25
ENDBRANCH   1  24
BRANCH   5  32
HETATM   32  C   UNL     1       8.108  23.853  55.079  1.00  0.00     0.141 C 
BRANCH  32  33
HETATM   33  C   UNL     1       7.491  22.610  54.513  1.00  0.00     0.004 A 
HETATM   34  C   UNL     1       7.994  22.023  53.218  1.00  0.00     0.007 A 
HETATM   35  C   UNL     1       8.253  21.311  54.518  1.00  0.00     0.007 A 
ENDBRANCH  32  33
ENDBRANCH   5  32
TORSDOF 7
ENDMDL
