MODEL 1
REMARK VINA RESULT:      -9.1      0.000      0.000
REMARK  7 active torsions:
REMARK  status: ('A' for Active; 'I' for Inactive)
REMARK    1  A    between atoms: C_3  and  N_4 
REMARK       I    between atoms: N_4  and  C_5 
REMARK    2  A    between atoms: C_5  and  C_6 
REMARK    3  A    between atoms: C_7  and  C_8 
REMARK    4  A    between atoms: C_19  and  C_20 
REMARK    5  A    between atoms: C_20  and  C_21 
REMARK    6  A    between atoms: C_21  and  C_22 
REMARK    7  A    between atoms: C_22  and  O_23 
ROOT
HETATM    1  C   UNL     1       7.216  31.977  61.264  1.00  0.00     0.062 A 
HETATM    2  C   UNL     1       5.820  32.171  61.844  1.00  0.00     0.202 A 
HETATM    3  N   UNL     1       5.879  32.691  63.216  1.00  0.00    -0.083 N 
HETATM    4  C   UNL     1       7.043  32.892  63.908  1.00  0.00     0.726 A 
HETATM    5  N   UNL     1       8.221  32.630  63.313  1.00  0.00    -0.192 N 
HETATM    6  N   UNL     1       4.801  32.927  63.994  1.00  0.00    -0.140 NA
HETATM    7  C   UNL     1       5.393  33.363  65.116  1.00  0.00     0.166 A 
HETATM    8  N   UNL     1       6.767  33.334  65.107  1.00  0.00    -0.046 NA
HETATM    9  C   UNL     1       8.334  32.210  61.994  1.00  0.00     0.037 A 
HETATM   10  C   UNL     1       9.741  32.042  61.477  1.00  0.00     0.070 C 
HETATM   11  H   UNL     1       9.079  32.838  63.818  1.00  0.00     0.184 HD
ENDROOT
BRANCH   1  12
HETATM   12  C   UNL     1       7.318  31.648  59.819  1.00  0.00     0.256 C 
HETATM   13  N   UNL     1       7.595  30.318  59.588  1.00  0.00    -0.323 N 
HETATM   14  H   UNL     1       7.772  29.737  60.394  1.00  0.00     0.169 HD
HETATM   15  O   UNL     1       7.175  32.544  58.997  1.00  0.00    -0.267 OA
BRANCH  13  16
HETATM   16  C   UNL     1       7.703  29.673  58.330  1.00  0.00     0.041 A 
HETATM   17  C   UNL     1       8.935  29.723  57.639  1.00  0.00    -0.035 A 
HETATM   18  C   UNL     1      10.146  30.427  58.190  1.00  0.00     0.050 C 
HETATM   19  C   UNL     1       9.056  29.078  56.394  1.00  0.00     0.009 A 
HETATM   20  C   UNL     1       7.979  28.397  55.832  1.00  0.00     0.001 A 
HETATM   21  C   UNL     1       6.769  28.346  56.511  1.00  0.00     0.002 A 
HETATM   22  C   UNL     1       6.634  28.978  57.750  1.00  0.00     0.030 A 
ENDBRANCH  13  16
ENDBRANCH   1  12
BRANCH   2  23
HETATM   23  C   UNL     1       4.904  33.029  60.982  1.00  0.00    -0.025 A 
HETATM   24  C   UNL     1       5.036  34.428  61.003  1.00  0.00     0.052 A 
HETATM   25  C   UNL     1       4.195  35.221  60.230  1.00  0.00     0.117 A 
HETATM   26  F   UNL     1       4.334  36.554  60.264  1.00  0.00    -0.206 F 
HETATM   27  C   UNL     1       3.214  34.656  59.427  1.00  0.00     0.042 A 
HETATM   28  C   UNL     1       3.074  33.269  59.391  1.00  0.00     0.004 A 
HETATM   29  C   UNL     1       3.914  32.460  60.160  1.00  0.00     0.010 A 
ENDBRANCH   2  23
BRANCH   7  30
HETATM   30  C   UNL     1       4.624  33.860  66.286  1.00  0.00     0.085 C 
BRANCH  30  31
HETATM   31  C   UNL     1       5.422  34.826  67.158  1.00  0.00     0.034 C 
BRANCH  31  32
HETATM   32  C   UNL     1       5.633  34.313  68.579  1.00  0.00     0.164 C 
BRANCH  32  33
HETATM   33  O   UNL     1       4.702  33.270  68.851  1.00  0.00    -0.401 OA
HETATM   34  H   UNL     1       4.983  32.486  68.349  1.00  0.00     0.209 HD
ENDBRANCH  32  33
ENDBRANCH  31  32
ENDBRANCH  30  31
ENDBRANCH   7  30
TORSDOF 7
ENDMDL
MODEL 2
REMARK VINA RESULT:      -9.1      6.629     10.513
REMARK  7 active torsions:
REMARK  status: ('A' for Active; 'I' for Inactive)
REMARK    1  A    between atoms: C_3  and  N_4 
REMARK       I    between atoms: N_4  and  C_5 
REMARK    2  A    between atoms: C_5  and  C_6 
REMARK    3  A    between atoms: C_7  and  C_8 
REMARK    4  A    between atoms: C_19  and  C_20 
REMARK    5  A    between atoms: C_20  and  C_21 
REMARK    6  A    between atoms: C_21  and  C_22 
REMARK    7  A    between atoms: C_22  and  O_23 
ROOT
HETATM    1  C   UNL     1       5.552  28.166  53.330  1.00  0.00     0.062 A 
HETATM    2  C   UNL     1       7.007  27.766  53.544  1.00  0.00     0.202 A 
HETATM    3  N   UNL     1       7.573  28.423  54.729  1.00  0.00    -0.083 N 
HETATM    4  C   UNL     1       6.900  29.341  55.490  1.00  0.00     0.726 A 
HETATM    5  N   UNL     1       5.633  29.663  55.170  1.00  0.00    -0.192 N 
HETATM    6  N   UNL     1       8.851  28.287  55.145  1.00  0.00    -0.140 NA
HETATM    7  C   UNL     1       8.848  29.083  56.224  1.00  0.00     0.166 A 
HETATM    8  N   UNL     1       7.676  29.762  56.453  1.00  0.00    -0.046 NA
HETATM    9  C   UNL     1       4.932  29.070  54.129  1.00  0.00     0.037 A 
HETATM   10  C   UNL     1       3.496  29.503  53.972  1.00  0.00     0.070 C 
HETATM   11  H   UNL     1       5.125  30.302  55.777  1.00  0.00     0.184 HD
ENDROOT
BRANCH   1  12
HETATM   12  C   UNL     1       4.785  27.432  52.292  1.00  0.00     0.256 C 
HETATM   13  N   UNL     1       4.747  28.092  51.083  1.00  0.00    -0.323 N 
HETATM   14  H   UNL     1       5.162  29.012  51.047  1.00  0.00     0.169 HD
HETATM   15  O   UNL     1       4.261  26.366  52.587  1.00  0.00    -0.267 OA
BRANCH  13  16
HETATM   16  C   UNL     1       4.147  27.641  49.880  1.00  0.00     0.041 A 
HETATM   17  C   UNL     1       2.914  28.202  49.478  1.00  0.00    -0.035 A 
HETATM   18  C   UNL     1       2.213  29.271  50.272  1.00  0.00     0.050 C 
HETATM   19  C   UNL     1       2.315  27.768  48.281  1.00  0.00     0.009 A 
HETATM   20  C   UNL     1       2.916  26.791  47.491  1.00  0.00     0.001 A 
HETATM   21  C   UNL     1       4.128  26.240  47.885  1.00  0.00     0.002 A 
HETATM   22  C   UNL     1       4.738  26.664  49.068  1.00  0.00     0.030 A 
ENDBRANCH  13  16
ENDBRANCH   1  12
BRANCH   2  23
HETATM   23  C   UNL     1       7.235  26.261  53.603  1.00  0.00    -0.025 A 
HETATM   24  C   UNL     1       6.860  25.544  54.751  1.00  0.00     0.052 A 
HETATM   25  C   UNL     1       7.077  24.172  54.820  1.00  0.00     0.117 A 
HETATM   26  F   UNL     1       6.715  23.504  55.924  1.00  0.00    -0.206 F 
HETATM   27  C   UNL     1       7.663  23.485  53.765  1.00  0.00     0.042 A 
HETATM   28  C   UNL     1       8.034  24.182  52.617  1.00  0.00     0.004 A 
HETATM   29  C   UNL     1       7.820  25.560  52.533  1.00  0.00     0.010 A 
ENDBRANCH   2  23
BRANCH   7  30
HETATM   30  C   UNL     1      10.022  29.214  57.125  1.00  0.00     0.085 C 
BRANCH  30  31
HETATM   31  C   UNL     1      10.310  30.659  57.526  1.00  0.00     0.034 C 
BRANCH  31  32
HETATM   32  C   UNL     1       9.770  31.014  58.907  1.00  0.00     0.164 C 
BRANCH  32  33
HETATM   33  O   UNL     1       9.481  32.408  58.962  1.00  0.00    -0.401 OA
HETATM   34  H   UNL     1      10.070  32.855  58.331  1.00  0.00     0.209 HD
ENDBRANCH  32  33
ENDBRANCH  31  32
ENDBRANCH  30  31
ENDBRANCH   7  30
TORSDOF 7
ENDMDL
MODEL 3
REMARK VINA RESULT:      -9.1      3.307      5.135
REMARK  7 active torsions:
REMARK  status: ('A' for Active; 'I' for Inactive)
REMARK    1  A    between atoms: C_3  and  N_4 
REMARK       I    between atoms: N_4  and  C_5 
REMARK    2  A    between atoms: C_5  and  C_6 
REMARK    3  A    between atoms: C_7  and  C_8 
REMARK    4  A    between atoms: C_19  and  C_20 
REMARK    5  A    between atoms: C_20  and  C_21 
REMARK    6  A    between atoms: C_21  and  C_22 
REMARK    7  A    between atoms: C_22  and  O_23 
ROOT
HETATM    1  C   UNL     1       8.508  29.391  57.366  1.00  0.00     0.062 A 
HETATM    2  C   UNL     1       7.315  29.825  58.209  1.00  0.00     0.202 A 
HETATM    3  N   UNL     1       7.674  30.922  59.118  1.00  0.00    -0.083 N 
HETATM    4  C   UNL     1       8.940  31.425  59.246  1.00  0.00     0.726 A 
HETATM    5  N   UNL     1       9.932  30.922  58.489  1.00  0.00    -0.192 N 
HETATM    6  N   UNL     1       6.831  31.487  60.010  1.00  0.00    -0.140 NA
HETATM    7  C   UNL     1       7.639  32.394  60.577  1.00  0.00     0.166 A 
HETATM    8  N   UNL     1       8.945  32.370  60.149  1.00  0.00    -0.046 NA
HETATM    9  C   UNL     1       9.737  29.940  57.527  1.00  0.00     0.037 A 
HETATM   10  C   UNL     1      10.953  29.557  56.722  1.00  0.00     0.070 C 
HETATM   11  H   UNL     1      10.855  31.344  58.553  1.00  0.00     0.184 HD
ENDROOT
BRANCH   1  12
HETATM   12  C   UNL     1       8.253  28.431  56.262  1.00  0.00     0.256 C 
HETATM   13  N   UNL     1       7.889  27.180  56.709  1.00  0.00    -0.323 N 
HETATM   14  H   UNL     1       7.908  27.023  57.706  1.00  0.00     0.169 HD
HETATM   15  O   UNL     1       8.399  28.807  55.106  1.00  0.00    -0.267 OA
BRANCH  13  16
HETATM   16  C   UNL     1       7.528  26.060  55.918  1.00  0.00     0.041 A 
HETATM   17  C   UNL     1       8.072  24.794  56.235  1.00  0.00    -0.035 A 
HETATM   18  C   UNL     1       9.014  24.583  57.390  1.00  0.00     0.050 C 
HETATM   19  C   UNL     1       7.713  23.674  55.462  1.00  0.00     0.009 A 
HETATM   20  C   UNL     1       6.836  23.797  54.387  1.00  0.00     0.001 A 
HETATM   21  C   UNL     1       6.301  25.039  54.076  1.00  0.00     0.002 A 
HETATM   22  C   UNL     1       6.644  26.160  54.836  1.00  0.00     0.030 A 
ENDBRANCH  13  16
ENDBRANCH   1  12
BRANCH   2  23
HETATM   23  C   UNL     1       6.078  30.184  57.396  1.00  0.00    -0.025 A 
HETATM   24  C   UNL     1       6.037  31.396  56.687  1.00  0.00     0.052 A 
HETATM   25  C   UNL     1       4.907  31.739  55.953  1.00  0.00     0.117 A 
HETATM   26  F   UNL     1       4.885  32.899  55.283  1.00  0.00    -0.206 F 
HETATM   27  C   UNL     1       3.802  30.900  55.904  1.00  0.00     0.042 A 
HETATM   28  C   UNL     1       3.829  29.691  56.598  1.00  0.00     0.004 A 
HETATM   29  C   UNL     1       4.959  29.333  57.337  1.00  0.00     0.010 A 
ENDBRANCH   2  23
BRANCH   7  30
HETATM   30  C   UNL     1       7.160  33.373  61.586  1.00  0.00     0.085 C 
BRANCH  30  31
HETATM   31  C   UNL     1       7.086  32.791  62.996  1.00  0.00     0.034 C 
BRANCH  31  32
HETATM   32  C   UNL     1       5.672  32.395  63.406  1.00  0.00     0.164 C 
BRANCH  32  33
HETATM   33  O   UNL     1       5.331  31.152  62.801  1.00  0.00    -0.401 OA
HETATM   34  H   UNL     1       5.756  30.447  63.317  1.00  0.00     0.209 HD
ENDBRANCH  32  33
ENDBRANCH  31  32
ENDBRANCH  30  31
ENDBRANCH   7  30
TORSDOF 7
ENDMDL
MODEL 4
REMARK VINA RESULT:      -9.1      7.299     10.101
REMARK  7 active torsions:
REMARK  status: ('A' for Active; 'I' for Inactive)
REMARK    1  A    between atoms: C_3  and  N_4 
REMARK       I    between atoms: N_4  and  C_5 
REMARK    2  A    between atoms: C_5  and  C_6 
REMARK    3  A    between atoms: C_7  and  C_8 
REMARK    4  A    between atoms: C_19  and  C_20 
REMARK    5  A    between atoms: C_20  and  C_21 
REMARK    6  A    between atoms: C_21  and  C_22 
REMARK    7  A    between atoms: C_22  and  O_23 
ROOT
HETATM    1  C   UNL     1       6.179  26.343  53.012  1.00  0.00     0.062 A 
HETATM    2  C   UNL     1       6.393  27.658  53.753  1.00  0.00     0.202 A 
HETATM    3  N   UNL     1       5.192  28.502  53.701  1.00  0.00    -0.083 N 
HETATM    4  C   UNL     1       4.060  28.179  53.001  1.00  0.00     0.726 A 
HETATM    5  N   UNL     1       4.006  27.014  52.332  1.00  0.00    -0.192 N 
HETATM    6  N   UNL     1       5.099  29.738  54.239  1.00  0.00    -0.140 NA
HETATM    7  C   UNL     1       3.841  30.061  53.904  1.00  0.00     0.166 A 
HETATM    8  N   UNL     1       3.182  29.139  53.127  1.00  0.00    -0.046 NA
HETATM    9  C   UNL     1       5.027  26.073  52.351  1.00  0.00     0.037 A 
HETATM   10  C   UNL     1       4.754  24.792  51.604  1.00  0.00     0.070 C 
HETATM   11  H   UNL     1       3.139  26.760  51.865  1.00  0.00     0.184 HD
ENDROOT
BRANCH   1  12
HETATM   12  C   UNL     1       7.230  25.303  53.146  1.00  0.00     0.256 C 
HETATM   13  N   UNL     1       6.783  24.165  53.781  1.00  0.00    -0.323 N 
HETATM   14  H   UNL     1       5.843  24.181  54.148  1.00  0.00     0.169 HD
HETATM   15  O   UNL     1       8.354  25.539  52.721  1.00  0.00    -0.267 OA
BRANCH  13  16
HETATM   16  C   UNL     1       7.515  22.974  54.018  1.00  0.00     0.041 A 
HETATM   17  C   UNL     1       8.087  22.765  55.294  1.00  0.00    -0.035 A 
HETATM   18  C   UNL     1       7.942  23.754  56.419  1.00  0.00     0.050 C 
HETATM   19  C   UNL     1       8.808  21.582  55.543  1.00  0.00     0.009 A 
HETATM   20  C   UNL     1       8.970  20.619  54.550  1.00  0.00     0.001 A 
HETATM   21  C   UNL     1       8.407  20.823  53.298  1.00  0.00     0.002 A 
HETATM   22  C   UNL     1       7.685  21.990  53.036  1.00  0.00     0.030 A 
ENDBRANCH  13  16
ENDBRANCH   1  12
BRANCH   2  23
HETATM   23  C   UNL     1       6.870  27.490  55.190  1.00  0.00    -0.025 A 
HETATM   24  C   UNL     1       8.121  28.000  55.573  1.00  0.00     0.052 A 
HETATM   25  C   UNL     1       8.572  27.839  56.879  1.00  0.00     0.117 A 
HETATM   26  F   UNL     1       9.769  28.331  57.227  1.00  0.00    -0.206 F 
HETATM   27  C   UNL     1       7.802  27.178  57.826  1.00  0.00     0.042 A 
HETATM   28  C   UNL     1       6.555  26.672  57.463  1.00  0.00     0.004 A 
HETATM   29  C   UNL     1       6.090  26.828  56.155  1.00  0.00     0.010 A 
ENDBRANCH   2  23
BRANCH   7  30
HETATM   30  C   UNL     1       3.192  31.320  54.352  1.00  0.00     0.085 C 
BRANCH  30  31
HETATM   31  C   UNL     1       3.449  31.633  55.825  1.00  0.00     0.034 C 
BRANCH  31  32
HETATM   32  C   UNL     1       2.933  30.549  56.765  1.00  0.00     0.164 C 
BRANCH  32  33
HETATM   33  O   UNL     1       4.028  29.777  57.247  1.00  0.00    -0.401 OA
HETATM   34  H   UNL     1       4.567  30.354  57.816  1.00  0.00     0.209 HD
ENDBRANCH  32  33
ENDBRANCH  31  32
ENDBRANCH  30  31
ENDBRANCH   7  30
TORSDOF 7
ENDMDL
MODEL 5
REMARK VINA RESULT:      -9.1      4.825      8.188
REMARK  7 active torsions:
REMARK  status: ('A' for Active; 'I' for Inactive)
REMARK    1  A    between atoms: C_3  and  N_4 
REMARK       I    between atoms: N_4  and  C_5 
REMARK    2  A    between atoms: C_5  and  C_6 
REMARK    3  A    between atoms: C_7  and  C_8 
REMARK    4  A    between atoms: C_19  and  C_20 
REMARK    5  A    between atoms: C_20  and  C_21 
REMARK    6  A    between atoms: C_21  and  C_22 
REMARK    7  A    between atoms: C_22  and  O_23 
ROOT
HETATM    1  C   UNL     1       5.352  29.568  55.000  1.00  0.00     0.062 A 
HETATM    2  C   UNL     1       6.588  28.971  55.662  1.00  0.00     0.202 A 
HETATM    3  N   UNL     1       6.903  29.655  56.923  1.00  0.00    -0.083 N 
HETATM    4  C   UNL     1       6.219  30.744  57.393  1.00  0.00     0.726 A 
HETATM    5  N   UNL     1       5.177  31.225  56.692  1.00  0.00    -0.192 N 
HETATM    6  N   UNL     1       7.962  29.366  57.709  1.00  0.00    -0.140 NA
HETATM    7  C   UNL     1       7.797  30.265  58.691  1.00  0.00     0.166 A 
HETATM    8  N   UNL     1       6.752  31.140  58.519  1.00  0.00    -0.046 NA
HETATM    9  C   UNL     1       4.706  30.639  55.524  1.00  0.00     0.037 A 
HETATM   10  C   UNL     1       3.478  31.273  54.920  1.00  0.00     0.070 C 
HETATM   11  H   UNL     1       4.643  31.997  57.081  1.00  0.00     0.184 HD
ENDROOT
BRANCH   1  12
HETATM   12  C   UNL     1       4.793  28.856  53.824  1.00  0.00     0.256 C 
HETATM   13  N   UNL     1       5.564  28.999  52.691  1.00  0.00    -0.323 N 
HETATM   14  H   UNL     1       6.360  29.615  52.750  1.00  0.00     0.169 HD
HETATM   15  O   UNL     1       3.737  28.248  53.947  1.00  0.00    -0.267 OA
BRANCH  13  16
HETATM   16  C   UNL     1       5.339  28.406  51.423  1.00  0.00     0.041 A 
HETATM   17  C   UNL     1       5.313  29.231  50.276  1.00  0.00    -0.035 A 
HETATM   18  C   UNL     1       5.525  30.720  50.344  1.00  0.00     0.050 C 
HETATM   19  C   UNL     1       5.100  28.652  49.011  1.00  0.00     0.009 A 
HETATM   20  C   UNL     1       4.910  27.279  48.875  1.00  0.00     0.001 A 
HETATM   21  C   UNL     1       4.937  26.467  50.000  1.00  0.00     0.002 A 
HETATM   22  C   UNL     1       5.151  27.027  51.262  1.00  0.00     0.030 A 
ENDBRANCH  13  16
ENDBRANCH   1  12
BRANCH   2  23
HETATM   23  C   UNL     1       6.512  27.464  55.872  1.00  0.00    -0.025 A 
HETATM   24  C   UNL     1       5.529  26.927  56.721  1.00  0.00     0.052 A 
HETATM   25  C   UNL     1       5.461  25.554  56.931  1.00  0.00     0.117 A 
HETATM   26  F   UNL     1       4.518  25.060  57.745  1.00  0.00    -0.206 F 
HETATM   27  C   UNL     1       6.353  24.689  56.312  1.00  0.00     0.042 A 
HETATM   28  C   UNL     1       7.329  25.206  55.462  1.00  0.00     0.004 A 
HETATM   29  C   UNL     1       7.408  26.583  55.241  1.00  0.00     0.010 A 
ENDBRANCH   2  23
BRANCH   7  30
HETATM   30  C   UNL     1       8.669  30.306  59.893  1.00  0.00     0.085 C 
BRANCH  30  31
HETATM   31  C   UNL     1       8.195  31.311  60.940  1.00  0.00     0.034 C 
BRANCH  31  32
HETATM   32  C   UNL     1       8.391  30.821  62.370  1.00  0.00     0.164 C 
BRANCH  32  33
HETATM   33  O   UNL     1       9.084  29.577  62.356  1.00  0.00    -0.401 OA
HETATM   34  H   UNL     1       9.643  29.560  61.561  1.00  0.00     0.209 HD
ENDBRANCH  32  33
ENDBRANCH  31  32
ENDBRANCH  30  31
ENDBRANCH   7  30
TORSDOF 7
ENDMDL
MODEL 6
REMARK VINA RESULT:      -9.0      3.956      8.924
REMARK  7 active torsions:
REMARK  status: ('A' for Active; 'I' for Inactive)
REMARK    1  A    between atoms: C_3  and  N_4 
REMARK       I    between atoms: N_4  and  C_5 
REMARK    2  A    between atoms: C_5  and  C_6 
REMARK    3  A    between atoms: C_7  and  C_8 
REMARK    4  A    between atoms: C_19  and  C_20 
REMARK    5  A    between atoms: C_20  and  C_21 
REMARK    6  A    between atoms: C_21  and  C_22 
REMARK    7  A    between atoms: C_22  and  O_23 
ROOT
HETATM    1  C   UNL     1       5.407  29.995  57.640  1.00  0.00     0.062 A 
HETATM    2  C   UNL     1       6.468  28.914  57.815  1.00  0.00     0.202 A 
HETATM    3  N   UNL     1       6.149  27.719  57.022  1.00  0.00    -0.083 N 
HETATM    4  C   UNL     1       5.002  27.571  56.291  1.00  0.00     0.726 A 
HETATM    5  N   UNL     1       4.104  28.572  56.257  1.00  0.00    -0.192 N 
HETATM    6  N   UNL     1       6.889  26.589  57.007  1.00  0.00    -0.140 NA
HETATM    7  C   UNL     1       6.171  25.833  56.164  1.00  0.00     0.166 A 
HETATM    8  N   UNL     1       4.997  26.394  55.722  1.00  0.00    -0.046 NA
HETATM    9  C   UNL     1       4.298  29.794  56.887  1.00  0.00     0.037 A 
HETATM   10  C   UNL     1       3.217  30.823  56.672  1.00  0.00     0.070 C 
HETATM   11  H   UNL     1       3.284  28.472  55.664  1.00  0.00     0.184 HD
ENDROOT
BRANCH   1  12
HETATM   12  C   UNL     1       5.691  31.332  58.218  1.00  0.00     0.256 C 
HETATM   13  N   UNL     1       5.311  31.440  59.538  1.00  0.00    -0.323 N 
HETATM   14  H   UNL     1       4.824  30.655  59.944  1.00  0.00     0.169 HD
HETATM   15  O   UNL     1       6.194  32.191  57.505  1.00  0.00    -0.267 OA
BRANCH  13  16
HETATM   16  C   UNL     1       5.490  32.559  60.391  1.00  0.00     0.041 A 
HETATM   17  C   UNL     1       6.568  32.557  61.305  1.00  0.00    -0.035 A 
HETATM   18  C   UNL     1       7.544  31.416  61.404  1.00  0.00     0.050 C 
HETATM   19  C   UNL     1       6.760  33.666  62.150  1.00  0.00     0.009 A 
HETATM   20  C   UNL     1       5.901  34.761  62.102  1.00  0.00     0.001 A 
HETATM   21  C   UNL     1       4.843  34.765  61.203  1.00  0.00     0.002 A 
HETATM   22  C   UNL     1       4.642  33.673  60.355  1.00  0.00     0.030 A 
ENDBRANCH  13  16
ENDBRANCH   1  12
BRANCH   2  23
HETATM   23  C   UNL     1       7.888  29.386  57.529  1.00  0.00    -0.025 A 
HETATM   24  C   UNL     1       8.410  29.279  56.229  1.00  0.00     0.052 A 
HETATM   25  C   UNL     1       9.709  29.694  55.961  1.00  0.00     0.117 A 
HETATM   26  F   UNL     1      10.191  29.582  54.715  1.00  0.00    -0.206 F 
HETATM   27  C   UNL     1      10.515  30.220  56.962  1.00  0.00     0.042 A 
HETATM   28  C   UNL     1      10.009  30.339  58.255  1.00  0.00     0.004 A 
HETATM   29  C   UNL     1       8.704  29.927  58.538  1.00  0.00     0.010 A 
ENDBRANCH   2  23
BRANCH   7  30
HETATM   30  C   UNL     1       6.616  24.487  55.719  1.00  0.00     0.085 C 
BRANCH  30  31
HETATM   31  C   UNL     1       8.127  24.292  55.824  1.00  0.00     0.034 C 
BRANCH  31  32
HETATM   32  C   UNL     1       8.537  23.443  57.022  1.00  0.00     0.164 C 
BRANCH  32  33
HETATM   33  O   UNL     1       8.678  24.276  58.169  1.00  0.00    -0.401 OA
HETATM   34  H   UNL     1       7.934  24.085  58.764  1.00  0.00     0.209 HD
ENDBRANCH  32  33
ENDBRANCH  31  32
ENDBRANCH  30  31
ENDBRANCH   7  30
TORSDOF 7
ENDMDL
MODEL 7
REMARK VINA RESULT:      -8.9      7.573     11.362
REMARK  7 active torsions:
REMARK  status: ('A' for Active; 'I' for Inactive)
REMARK    1  A    between atoms: C_3  and  N_4 
REMARK       I    between atoms: N_4  and  C_5 
REMARK    2  A    between atoms: C_5  and  C_6 
REMARK    3  A    between atoms: C_7  and  C_8 
REMARK    4  A    between atoms: C_19  and  C_20 
REMARK    5  A    between atoms: C_20  and  C_21 
REMARK    6  A    between atoms: C_21  and  C_22 
REMARK    7  A    between atoms: C_22  and  O_23 
ROOT
HETATM    1  C   UNL     1       7.596  26.848  55.771  1.00  0.00     0.062 A 
HETATM    2  C   UNL     1       7.836  25.671  54.834  1.00  0.00     0.202 A 
HETATM    3  N   UNL     1       8.084  24.433  55.585  1.00  0.00    -0.083 N 
HETATM    4  C   UNL     1       8.172  24.370  56.949  1.00  0.00     0.726 A 
HETATM    5  N   UNL     1       8.001  25.490  57.675  1.00  0.00    -0.192 N 
HETATM    6  N   UNL     1       8.362  23.237  55.021  1.00  0.00    -0.140 NA
HETATM    7  C   UNL     1       8.514  22.475  56.115  1.00  0.00     0.166 A 
HETATM    8  N   UNL     1       8.425  23.141  57.314  1.00  0.00    -0.046 NA
HETATM    9  C   UNL     1       7.681  26.721  57.118  1.00  0.00     0.037 A 
HETATM   10  C   UNL     1       7.451  27.845  58.097  1.00  0.00     0.070 C 
HETATM   11  H   UNL     1       8.012  25.419  58.690  1.00  0.00     0.184 HD
ENDROOT
BRANCH   1  12
HETATM   12  C   UNL     1       7.135  28.123  55.166  1.00  0.00     0.256 C 
HETATM   13  N   UNL     1       5.849  28.458  55.529  1.00  0.00    -0.323 N 
HETATM   14  H   UNL     1       5.339  27.790  56.088  1.00  0.00     0.169 HD
HETATM   15  O   UNL     1       7.890  28.729  54.416  1.00  0.00    -0.267 OA
BRANCH  13  16
HETATM   16  C   UNL     1       5.136  29.630  55.170  1.00  0.00     0.041 A 
HETATM   17  C   UNL     1       4.192  29.561  54.120  1.00  0.00    -0.035 A 
HETATM   18  C   UNL     1       3.904  28.288  53.371  1.00  0.00     0.050 C 
HETATM   19  C   UNL     1       3.472  30.716  53.761  1.00  0.00     0.009 A 
HETATM   20  C   UNL     1       3.680  31.924  54.421  1.00  0.00     0.001 A 
HETATM   21  C   UNL     1       4.605  31.992  55.453  1.00  0.00     0.002 A 
HETATM   22  C   UNL     1       5.325  30.854  55.825  1.00  0.00     0.030 A 
ENDBRANCH  13  16
ENDBRANCH   1  12
BRANCH   2  23
HETATM   23  C   UNL     1       6.733  25.463  53.804  1.00  0.00    -0.025 A 
HETATM   24  C   UNL     1       6.940  25.861  52.472  1.00  0.00     0.052 A 
HETATM   25  C   UNL     1       5.934  25.688  51.527  1.00  0.00     0.117 A 
HETATM   26  F   UNL     1       6.148  26.075  50.262  1.00  0.00    -0.206 F 
HETATM   27  C   UNL     1       4.714  25.125  51.874  1.00  0.00     0.042 A 
HETATM   28  C   UNL     1       4.496  24.720  53.190  1.00  0.00     0.004 A 
HETATM   29  C   UNL     1       5.498  24.885  54.149  1.00  0.00     0.010 A 
ENDBRANCH   2  23
BRANCH   7  30
HETATM   30  C   UNL     1       8.744  21.009  56.044  1.00  0.00     0.085 C 
BRANCH  30  31
HETATM   31  C   UNL     1       8.004  20.344  54.885  1.00  0.00     0.034 C 
BRANCH  31  32
HETATM   32  C   UNL     1       8.892  20.104  53.669  1.00  0.00     0.164 C 
BRANCH  32  33
HETATM   33  O   UNL     1       8.082  19.995  52.503  1.00  0.00    -0.401 OA
HETATM   34  H   UNL     1       7.367  19.366  52.698  1.00  0.00     0.209 HD
ENDBRANCH  32  33
ENDBRANCH  31  32
ENDBRANCH  30  31
ENDBRANCH   7  30
TORSDOF 7
ENDMDL
MODEL 8
REMARK VINA RESULT:      -8.9      6.481     10.864
REMARK  7 active torsions:
REMARK  status: ('A' for Active; 'I' for Inactive)
REMARK    1  A    between atoms: C_3  and  N_4 
REMARK       I    between atoms: N_4  and  C_5 
REMARK    2  A    between atoms: C_5  and  C_6 
REMARK    3  A    between atoms: C_7  and  C_8 
REMARK    4  A    between atoms: C_19  and  C_20 
REMARK    5  A    between atoms: C_20  and  C_21 
REMARK    6  A    between atoms: C_21  and  C_22 
REMARK    7  A    between atoms: C_22  and  O_23 
ROOT
HETATM    1  C   UNL     1       4.821  28.067  54.936  1.00  0.00     0.062 A 
HETATM    2  C   UNL     1       5.856  27.245  55.694  1.00  0.00     0.202 A 
HETATM    3  N   UNL     1       6.356  26.131  54.877  1.00  0.00    -0.083 N 
HETATM    4  C   UNL     1       5.885  25.827  53.628  1.00  0.00     0.726 A 
HETATM    5  N   UNL     1       4.923  26.591  53.080  1.00  0.00    -0.192 N 
HETATM    6  N   UNL     1       7.253  25.213  55.298  1.00  0.00    -0.140 NA
HETATM    7  C   UNL     1       7.347  24.437  54.208  1.00  0.00     0.166 A 
HETATM    8  N   UNL     1       6.506  24.771  53.173  1.00  0.00    -0.046 NA
HETATM    9  C   UNL     1       4.405  27.725  53.692  1.00  0.00     0.037 A 
HETATM   10  C   UNL     1       3.390  28.499  52.889  1.00  0.00     0.070 C 
HETATM   11  H   UNL     1       4.623  26.389  52.129  1.00  0.00     0.184 HD
ENDROOT
BRANCH   1  12
HETATM   12  C   UNL     1       4.372  29.341  55.553  1.00  0.00     0.256 C 
HETATM   13  N   UNL     1       5.093  30.433  55.122  1.00  0.00    -0.323 N 
HETATM   14  H   UNL     1       5.877  30.255  54.512  1.00  0.00     0.169 HD
HETATM   15  O   UNL     1       3.458  29.313  56.368  1.00  0.00    -0.267 OA
BRANCH  13  16
HETATM   16  C   UNL     1       4.884  31.790  55.475  1.00  0.00     0.041 A 
HETATM   17  C   UNL     1       4.397  32.684  54.495  1.00  0.00    -0.035 A 
HETATM   18  C   UNL     1       4.081  32.252  53.089  1.00  0.00     0.050 C 
HETATM   19  C   UNL     1       4.177  34.032  54.838  1.00  0.00     0.009 A 
HETATM   20  C   UNL     1       4.437  34.496  56.125  1.00  0.00     0.001 A 
HETATM   21  C   UNL     1       4.913  33.617  57.088  1.00  0.00     0.002 A 
HETATM   22  C   UNL     1       5.133  32.276  56.765  1.00  0.00     0.030 A 
ENDBRANCH  13  16
ENDBRANCH   1  12
BRANCH   2  23
HETATM   23  C   UNL     1       7.012  28.064  56.251  1.00  0.00    -0.025 A 
HETATM   24  C   UNL     1       8.027  28.513  55.390  1.00  0.00     0.052 A 
HETATM   25  C   UNL     1       9.095  29.251  55.891  1.00  0.00     0.117 A 
HETATM   26  F   UNL     1      10.054  29.669  55.055  1.00  0.00    -0.206 F 
HETATM   27  C   UNL     1       9.182  29.557  57.242  1.00  0.00     0.042 A 
HETATM   28  C   UNL     1       8.180  29.124  58.109  1.00  0.00     0.004 A 
HETATM   29  C   UNL     1       7.101  28.384  57.618  1.00  0.00     0.010 A 
ENDBRANCH   2  23
BRANCH   7  30
HETATM   30  C   UNL     1       8.303  23.305  54.111  1.00  0.00     0.085 C 
BRANCH  30  31
HETATM   31  C   UNL     1       7.909  22.279  53.051  1.00  0.00     0.034 C 
BRANCH  31  32
HETATM   32  C   UNL     1       7.924  20.846  53.572  1.00  0.00     0.164 C 
BRANCH  32  33
HETATM   33  O   UNL     1       8.130  19.947  52.486  1.00  0.00    -0.401 OA
HETATM   34  H   UNL     1       8.440  20.469  51.727  1.00  0.00     0.209 HD
ENDBRANCH  32  33
ENDBRANCH  31  32
ENDBRANCH  30  31
ENDBRANCH   7  30
TORSDOF 7
ENDMDL
MODEL 9
REMARK VINA RESULT:      -8.9      0.897      1.542
REMARK  7 active torsions:
REMARK  status: ('A' for Active; 'I' for Inactive)
REMARK    1  A    between atoms: C_3  and  N_4 
REMARK       I    between atoms: N_4  and  C_5 
REMARK    2  A    between atoms: C_5  and  C_6 
REMARK    3  A    between atoms: C_7  and  C_8 
REMARK    4  A    between atoms: C_19  and  C_20 
REMARK    5  A    between atoms: C_20  and  C_21 
REMARK    6  A    between atoms: C_21  and  C_22 
REMARK    7  A    between atoms: C_22  and  O_23 
ROOT
HETATM    1  C   UNL     1       7.195  31.995  61.256  1.00  0.00     0.062 A 
HETATM    2  C   UNL     1       5.798  32.188  61.832  1.00  0.00     0.202 A 
HETATM    3  N   UNL     1       5.853  32.684  63.214  1.00  0.00    -0.083 N 
HETATM    4  C   UNL     1       7.015  32.865  63.915  1.00  0.00     0.726 A 
HETATM    5  N   UNL     1       8.194  32.604  63.321  1.00  0.00    -0.192 N 
HETATM    6  N   UNL     1       4.773  32.914  63.991  1.00  0.00    -0.140 NA
HETATM    7  C   UNL     1       5.362  33.326  65.123  1.00  0.00     0.166 A 
HETATM    8  N   UNL     1       6.736  33.288  65.120  1.00  0.00    -0.046 NA
HETATM    9  C   UNL     1       8.311  32.207  61.996  1.00  0.00     0.037 A 
HETATM   10  C   UNL     1       9.719  32.038  61.483  1.00  0.00     0.070 C 
HETATM   11  H   UNL     1       9.051  32.798  63.834  1.00  0.00     0.184 HD
ENDROOT
BRANCH   1  12
HETATM   12  C   UNL     1       7.302  31.691  59.807  1.00  0.00     0.256 C 
HETATM   13  N   UNL     1       7.419  30.343  59.546  1.00  0.00    -0.323 N 
HETATM   14  H   UNL     1       7.497  29.725  60.341  1.00  0.00     0.169 HD
HETATM   15  O   UNL     1       7.297  32.617  59.006  1.00  0.00    -0.267 OA
BRANCH  13  16
HETATM   16  C   UNL     1       7.487  29.720  58.274  1.00  0.00     0.041 A 
HETATM   17  C   UNL     1       6.309  29.618  57.499  1.00  0.00    -0.035 A 
HETATM   18  C   UNL     1       4.983  30.155  57.966  1.00  0.00     0.050 C 
HETATM   19  C   UNL     1       6.367  29.010  56.231  1.00  0.00     0.009 A 
HETATM   20  C   UNL     1       7.564  28.504  55.733  1.00  0.00     0.001 A 
HETATM   21  C   UNL     1       8.722  28.605  56.493  1.00  0.00     0.002 A 
HETATM   22  C   UNL     1       8.682  29.209  57.752  1.00  0.00     0.030 A 
ENDBRANCH  13  16
ENDBRANCH   1  12
BRANCH   2  23
HETATM   23  C   UNL     1       4.891  33.069  60.982  1.00  0.00    -0.025 A 
HETATM   24  C   UNL     1       5.067  34.463  60.988  1.00  0.00     0.052 A 
HETATM   25  C   UNL     1       4.236  35.276  60.226  1.00  0.00     0.117 A 
HETATM   26  F   UNL     1       4.418  36.603  60.246  1.00  0.00    -0.206 F 
HETATM   27  C   UNL     1       3.223  34.735  59.447  1.00  0.00     0.042 A 
HETATM   28  C   UNL     1       3.039  33.354  59.424  1.00  0.00     0.004 A 
HETATM   29  C   UNL     1       3.868  32.524  60.184  1.00  0.00     0.010 A 
ENDBRANCH   2  23
BRANCH   7  30
HETATM   30  C   UNL     1       4.591  33.808  66.298  1.00  0.00     0.085 C 
BRANCH  30  31
HETATM   31  C   UNL     1       5.038  35.185  66.781  1.00  0.00     0.034 C 
BRANCH  31  32
HETATM   32  C   UNL     1       3.937  36.236  66.691  1.00  0.00     0.164 C 
BRANCH  32  33
HETATM   33  O   UNL     1       2.667  35.610  66.841  1.00  0.00    -0.401 OA
HETATM   34  H   UNL     1       2.104  35.905  66.106  1.00  0.00     0.209 HD
ENDBRANCH  32  33
ENDBRANCH  31  32
ENDBRANCH  30  31
ENDBRANCH   7  30
TORSDOF 7
ENDMDL
MODEL 10
REMARK VINA RESULT:      -8.6      7.237      9.544
REMARK  7 active torsions:
REMARK  status: ('A' for Active; 'I' for Inactive)
REMARK    1  A    between atoms: C_3  and  N_4 
REMARK       I    between atoms: N_4  and  C_5 
REMARK    2  A    between atoms: C_5  and  C_6 
REMARK    3  A    between atoms: C_7  and  C_8 
REMARK    4  A    between atoms: C_19  and  C_20 
REMARK    5  A    between atoms: C_20  and  C_21 
REMARK    6  A    between atoms: C_21  and  C_22 
REMARK    7  A    between atoms: C_22  and  O_23 
ROOT
HETATM    1  C   UNL     1       6.606  27.945  54.688  1.00  0.00     0.062 A 
HETATM    2  C   UNL     1       5.239  28.217  54.073  1.00  0.00     0.202 A 
HETATM    3  N   UNL     1       4.683  29.491  54.549  1.00  0.00    -0.083 N 
HETATM    4  C   UNL     1       5.283  30.284  55.490  1.00  0.00     0.726 A 
HETATM    5  N   UNL     1       6.467  29.912  56.010  1.00  0.00    -0.192 N 
HETATM    6  N   UNL     1       3.471  29.976  54.203  1.00  0.00    -0.140 NA
HETATM    7  C   UNL     1       3.449  31.119  54.904  1.00  0.00     0.166 A 
HETATM    8  N   UNL     1       4.535  31.329  55.721  1.00  0.00    -0.046 NA
HETATM    9  C   UNL     1       7.158  28.778  55.604  1.00  0.00     0.037 A 
HETATM   10  C   UNL     1       8.507  28.566  56.245  1.00  0.00     0.070 C 
HETATM   11  H   UNL     1       6.929  30.538  56.665  1.00  0.00     0.184 HD
ENDROOT
BRANCH   1  12
HETATM   12  C   UNL     1       7.382  26.798  54.153  1.00  0.00     0.256 C 
HETATM   13  N   UNL     1       7.081  25.606  54.776  1.00  0.00    -0.323 N 
HETATM   14  H   UNL     1       6.445  25.643  55.558  1.00  0.00     0.169 HD
HETATM   15  O   UNL     1       8.197  26.999  53.261  1.00  0.00    -0.267 OA
BRANCH  13  16
HETATM   16  C   UNL     1       7.603  24.324  54.468  1.00  0.00     0.041 A 
HETATM   17  C   UNL     1       8.430  23.677  55.413  1.00  0.00    -0.035 A 
HETATM   18  C   UNL     1       8.775  24.290  56.743  1.00  0.00     0.050 C 
HETATM   19  C   UNL     1       8.945  22.400  55.121  1.00  0.00     0.009 A 
HETATM   20  C   UNL     1       8.656  21.769  53.913  1.00  0.00     0.001 A 
HETATM   21  C   UNL     1       7.841  22.404  52.986  1.00  0.00     0.002 A 
HETATM   22  C   UNL     1       7.319  23.669  53.262  1.00  0.00     0.030 A 
ENDBRANCH  13  16
ENDBRANCH   1  12
BRANCH   2  23
HETATM   23  C   UNL     1       5.220  28.158  52.551  1.00  0.00    -0.025 A 
HETATM   24  C   UNL     1       4.828  26.974  51.904  1.00  0.00     0.052 A 
HETATM   25  C   UNL     1       4.821  26.906  50.515  1.00  0.00     0.117 A 
HETATM   26  F   UNL     1       4.446  25.767  49.916  1.00  0.00    -0.206 F 
HETATM   27  C   UNL     1       5.198  27.995  49.742  1.00  0.00     0.042 A 
HETATM   28  C   UNL     1       5.583  29.179  50.369  1.00  0.00     0.004 A 
HETATM   29  C   UNL     1       5.593  29.262  51.763  1.00  0.00     0.010 A 
ENDBRANCH   2  23
BRANCH   7  30
HETATM   30  C   UNL     1       2.342  32.103  54.798  1.00  0.00     0.085 C 
BRANCH  30  31
HETATM   31  C   UNL     1       2.828  33.550  54.783  1.00  0.00     0.034 C 
BRANCH  31  32
HETATM   32  C   UNL     1       2.466  34.315  56.051  1.00  0.00     0.164 C 
BRANCH  32  33
HETATM   33  O   UNL     1       2.670  33.479  57.186  1.00  0.00    -0.401 OA
HETATM   34  H   UNL     1       3.628  33.355  57.291  1.00  0.00     0.209 HD
ENDBRANCH  32  33
ENDBRANCH  31  32
ENDBRANCH  30  31
ENDBRANCH   7  30
TORSDOF 7
ENDMDL
