MODEL 1
REMARK VINA RESULT:      -8.8      0.000      0.000
REMARK  9 active torsions:
REMARK  status: ('A' for Active; 'I' for Inactive)
REMARK       I    between atoms: N_2  and  C_3 
REMARK    1  A    between atoms: C_3  and  C_4 
REMARK    2  A    between atoms: C_7  and  N_8 
REMARK       I    between atoms: N_8  and  C_9 
REMARK    3  A    between atoms: C_9  and  C_10 
REMARK    4  A    between atoms: C_10  and  O_11 
REMARK    5  A    between atoms: O_11  and  C_12 
REMARK    6  A    between atoms: C_12  and  C_13 
REMARK    7  A    between atoms: C_14  and  N_15 
REMARK    8  A    between atoms: N_15  and  C_16 
REMARK    9  A    between atoms: C_16  and  C_17 
ROOT
HETATM    1  O   UNL     1       8.564  29.361  58.337  1.00  0.00    -0.308 OA
ENDROOT
BRANCH   1   2
HETATM    2  C   UNL     1       9.536  30.336  58.731  1.00  0.00     0.282 C 
BRANCH   2   3
HETATM    3  C   UNL     1       8.895  31.472  59.533  1.00  0.00     0.246 C 
HETATM    4  N   UNL     1       7.976  31.021  60.465  1.00  0.00    -0.325 N 
HETATM    5  H   UNL     1       7.747  30.027  60.426  1.00  0.00     0.169 HD
HETATM    6  O   UNL     1       9.209  32.641  59.329  1.00  0.00    -0.271 OA
BRANCH   4   7
HETATM    7  C   UNL     1       7.363  31.755  61.498  1.00  0.00     0.034 A 
HETATM    8  C   UNL     1       7.992  32.084  62.702  1.00  0.00     0.030 A 
HETATM    9  C   UNL     1       7.300  32.782  63.696  1.00  0.00     0.019 A 
HETATM   10  C   UNL     1       5.972  33.165  63.482  1.00  0.00     0.032 A 
HETATM   11  C   UNL     1       5.326  32.821  62.295  1.00  0.00     0.019 A 
HETATM   12  C   UNL     1       6.026  32.127  61.303  1.00  0.00     0.030 A 
BRANCH  10  13
HETATM   13  C   UNL     1       5.210  33.873  64.534  1.00  0.00     0.253 C 
HETATM   14  N   UNL     1       5.283  35.262  64.599  1.00  0.00    -0.357 N 
HETATM   15  C   UNL     1       4.667  35.938  65.728  1.00  0.00     0.152 C 
HETATM   16  C   UNL     1       5.797  36.120  63.540  1.00  0.00     0.152 C 
HETATM   17  O   UNL     1       4.549  33.186  65.311  1.00  0.00    -0.267 OA
ENDBRANCH  10  13
ENDBRANCH   4   7
ENDBRANCH   2   3
ENDBRANCH   1   2
BRANCH   1  18
HETATM   18  C   UNL     1       8.391  29.219  57.001  1.00  0.00     0.295 C 
HETATM   19  O   UNL     1       9.261  29.340  56.151  1.00  0.00    -0.259 OA
BRANCH  18  20
HETATM   20  C   UNL     1       6.967  28.982  56.693  1.00  0.00     0.060 A 
HETATM   21  C   UNL     1       6.595  28.062  55.688  1.00  0.00     0.025 A 
HETATM   22  C   UNL     1       5.219  27.909  55.455  1.00  0.00     0.024 A 
HETATM   23  C   UNL     1       4.266  28.685  56.128  1.00  0.00     0.002 A 
HETATM   24  C   UNL     1       4.662  29.615  57.082  1.00  0.00     0.001 A 
HETATM   25  C   UNL     1       6.012  29.761  57.373  1.00  0.00     0.019 A 
BRANCH  21  26
HETATM   26  N   UNL     1       7.557  27.238  55.080  1.00  0.00    -0.286 NA
HETATM   27  H   UNL     1       8.506  27.548  55.300  1.00  0.00     0.128 HD
BRANCH  26  28
HETATM   28  C   UNL     1       7.433  26.860  53.672  1.00  0.00     0.157 C 
BRANCH  28  29
HETATM   29  C   UNL     1       7.619  25.400  53.419  1.00  0.00     0.065 A 
HETATM   30  O   UNL     1       7.713  24.596  54.518  1.00  0.00    -0.326 OA
HETATM   31  C   UNL     1       7.906  23.329  54.067  1.00  0.00     0.142 A 
HETATM   32  C   UNL     1       7.939  23.307  52.693  1.00  0.00     0.027 A 
HETATM   33  C   UNL     1       7.755  24.645  52.272  1.00  0.00     0.036 A 
ENDBRANCH  28  29
ENDBRANCH  26  28
ENDBRANCH  21  26
ENDBRANCH  18  20
ENDBRANCH   1  18
TORSDOF 9
ENDMDL
MODEL 2
REMARK VINA RESULT:      -8.7      2.611      9.349
REMARK  9 active torsions:
REMARK  status: ('A' for Active; 'I' for Inactive)
REMARK       I    between atoms: N_2  and  C_3 
REMARK    1  A    between atoms: C_3  and  C_4 
REMARK    2  A    between atoms: C_7  and  N_8 
REMARK       I    between atoms: N_8  and  C_9 
REMARK    3  A    between atoms: C_9  and  C_10 
REMARK    4  A    between atoms: C_10  and  O_11 
REMARK    5  A    between atoms: O_11  and  C_12 
REMARK    6  A    between atoms: C_12  and  C_13 
REMARK    7  A    between atoms: C_14  and  N_15 
REMARK    8  A    between atoms: N_15  and  C_16 
REMARK    9  A    between atoms: C_16  and  C_17 
ROOT
HETATM    1  O   UNL     1       6.139  31.145  58.611  1.00  0.00    -0.308 OA
ENDROOT
BRANCH   1   2
HETATM    2  C   UNL     1       5.085  30.590  57.816  1.00  0.00     0.282 C 
BRANCH   2   3
HETATM    3  C   UNL     1       5.625  29.573  56.805  1.00  0.00     0.246 C 
HETATM    4  N   UNL     1       5.886  28.337  57.372  1.00  0.00    -0.325 N 
HETATM    5  H   UNL     1       5.810  28.284  58.388  1.00  0.00     0.169 HD
HETATM    6  O   UNL     1       5.782  29.880  55.627  1.00  0.00    -0.271 OA
BRANCH   4   7
HETATM    7  C   UNL     1       6.187  27.131  56.711  1.00  0.00     0.034 A 
HETATM    8  C   UNL     1       5.321  26.492  55.819  1.00  0.00     0.030 A 
HETATM    9  C   UNL     1       5.678  25.273  55.234  1.00  0.00     0.019 A 
HETATM   10  C   UNL     1       6.915  24.693  55.533  1.00  0.00     0.032 A 
HETATM   11  C   UNL     1       7.776  25.309  56.440  1.00  0.00     0.019 A 
HETATM   12  C   UNL     1       7.416  26.530  57.018  1.00  0.00     0.030 A 
BRANCH  10  13
HETATM   13  C   UNL     1       7.298  23.387  54.953  1.00  0.00     0.253 C 
HETATM   14  N   UNL     1       7.667  23.328  53.612  1.00  0.00    -0.357 N 
HETATM   15  C   UNL     1       7.883  22.025  53.007  1.00  0.00     0.152 C 
HETATM   16  C   UNL     1       8.009  24.481  52.790  1.00  0.00     0.152 C 
HETATM   17  O   UNL     1       7.262  22.408  55.696  1.00  0.00    -0.267 OA
ENDBRANCH  10  13
ENDBRANCH   4   7
ENDBRANCH   2   3
ENDBRANCH   1   2
BRANCH   1  18
HETATM   18  C   UNL     1       5.831  32.289  59.266  1.00  0.00     0.295 C 
HETATM   19  O   UNL     1       5.133  33.196  58.834  1.00  0.00    -0.259 OA
BRANCH  18  20
HETATM   20  C   UNL     1       6.533  32.339  60.564  1.00  0.00     0.060 A 
HETATM   21  C   UNL     1       7.944  32.367  60.613  1.00  0.00     0.025 A 
HETATM   22  C   UNL     1       8.527  32.402  61.891  1.00  0.00     0.024 A 
HETATM   23  C   UNL     1       7.754  32.333  63.057  1.00  0.00     0.002 A 
HETATM   24  C   UNL     1       6.367  32.262  62.979  1.00  0.00     0.001 A 
HETATM   25  C   UNL     1       5.754  32.272  61.733  1.00  0.00     0.019 A 
BRANCH  21  26
HETATM   26  N   UNL     1       8.700  32.515  59.438  1.00  0.00    -0.286 NA
HETATM   27  H   UNL     1       8.125  32.369  58.604  1.00  0.00     0.128 HD
BRANCH  26  28
HETATM   28  C   UNL     1      10.006  31.870  59.304  1.00  0.00     0.157 C 
BRANCH  28  29
HETATM   29  C   UNL     1      10.032  30.757  58.311  1.00  0.00     0.065 A 
HETATM   30  O   UNL     1      11.153  30.652  57.538  1.00  0.00    -0.326 OA
HETATM   31  C   UNL     1      10.958  29.606  56.694  1.00  0.00     0.142 A 
HETATM   32  C   UNL     1       9.726  29.036  56.911  1.00  0.00     0.027 A 
HETATM   33  C   UNL     1       9.125  29.779  57.955  1.00  0.00     0.036 A 
ENDBRANCH  28  29
ENDBRANCH  26  28
ENDBRANCH  21  26
ENDBRANCH  18  20
ENDBRANCH   1  18
TORSDOF 9
ENDMDL
MODEL 3
REMARK VINA RESULT:      -8.6      2.813     10.380
REMARK  9 active torsions:
REMARK  status: ('A' for Active; 'I' for Inactive)
REMARK       I    between atoms: N_2  and  C_3 
REMARK    1  A    between atoms: C_3  and  C_4 
REMARK    2  A    between atoms: C_7  and  N_8 
REMARK       I    between atoms: N_8  and  C_9 
REMARK    3  A    between atoms: C_9  and  C_10 
REMARK    4  A    between atoms: C_10  and  O_11 
REMARK    5  A    between atoms: O_11  and  C_12 
REMARK    6  A    between atoms: C_12  and  C_13 
REMARK    7  A    between atoms: C_14  and  N_15 
REMARK    8  A    between atoms: N_15  and  C_16 
REMARK    9  A    between atoms: C_16  and  C_17 
ROOT
HETATM    1  O   UNL     1       8.367  29.997  59.387  1.00  0.00    -0.308 OA
ENDROOT
BRANCH   1   2
HETATM    2  C   UNL     1       7.606  29.680  58.216  1.00  0.00     0.282 C 
BRANCH   2   3
HETATM    3  C   UNL     1       8.141  28.422  57.526  1.00  0.00     0.246 C 
HETATM    4  N   UNL     1       7.328  27.317  57.714  1.00  0.00    -0.325 N 
HETATM    5  H   UNL     1       6.557  27.434  58.372  1.00  0.00     0.169 HD
HETATM    6  O   UNL     1       9.186  28.454  56.882  1.00  0.00    -0.271 OA
BRANCH   4   7
HETATM    7  C   UNL     1       7.401  26.071  57.063  1.00  0.00     0.034 A 
HETATM    8  C   UNL     1       6.433  25.596  56.173  1.00  0.00     0.030 A 
HETATM    9  C   UNL     1       6.559  24.328  55.598  1.00  0.00     0.019 A 
HETATM   10  C   UNL     1       7.666  23.531  55.905  1.00  0.00     0.032 A 
HETATM   11  C   UNL     1       8.626  23.984  56.811  1.00  0.00     0.019 A 
HETATM   12  C   UNL     1       8.496  25.255  57.378  1.00  0.00     0.030 A 
BRANCH  10  13
HETATM   13  C   UNL     1       7.802  22.172  55.336  1.00  0.00     0.253 C 
HETATM   14  N   UNL     1       7.902  22.028  53.955  1.00  0.00    -0.357 N 
HETATM   15  C   UNL     1       7.870  20.689  53.392  1.00  0.00     0.152 C 
HETATM   16  C   UNL     1       8.196  23.108  53.023  1.00  0.00     0.152 C 
HETATM   17  O   UNL     1       7.810  21.229  56.124  1.00  0.00    -0.267 OA
ENDBRANCH  10  13
ENDBRANCH   4   7
ENDBRANCH   2   3
ENDBRANCH   1   2
BRANCH   1  18
HETATM   18  C   UNL     1       8.610  31.315  59.583  1.00  0.00     0.295 C 
HETATM   19  O   UNL     1       9.313  32.024  58.878  1.00  0.00    -0.259 OA
BRANCH  18  20
HETATM   20  C   UNL     1       7.973  31.771  60.834  1.00  0.00     0.060 A 
HETATM   21  C   UNL     1       6.615  32.160  60.846  1.00  0.00     0.025 A 
HETATM   22  C   UNL     1       6.096  32.592  62.077  1.00  0.00     0.024 A 
HETATM   23  C   UNL     1       6.901  32.706  63.218  1.00  0.00     0.002 A 
HETATM   24  C   UNL     1       8.246  32.358  63.168  1.00  0.00     0.001 A 
HETATM   25  C   UNL     1       8.783  31.883  61.978  1.00  0.00     0.019 A 
BRANCH  21  26
HETATM   26  N   UNL     1       5.804  31.965  59.715  1.00  0.00    -0.286 NA
HETATM   27  H   UNL     1       6.202  32.417  58.888  1.00  0.00     0.128 HD
BRANCH  26  28
HETATM   28  C   UNL     1       4.357  32.169  59.789  1.00  0.00     0.157 C 
BRANCH  28  29
HETATM   29  C   UNL     1       3.891  33.433  59.147  1.00  0.00     0.065 A 
HETATM   30  O   UNL     1       2.638  33.862  59.478  1.00  0.00    -0.326 OA
HETATM   31  C   UNL     1       2.406  34.996  58.769  1.00  0.00     0.142 A 
HETATM   32  C   UNL     1       3.491  35.304  57.983  1.00  0.00     0.027 A 
HETATM   33  C   UNL     1       4.452  34.295  58.225  1.00  0.00     0.036 A 
ENDBRANCH  28  29
ENDBRANCH  26  28
ENDBRANCH  21  26
ENDBRANCH  18  20
ENDBRANCH   1  18
TORSDOF 9
ENDMDL
MODEL 4
REMARK VINA RESULT:      -8.6      2.719      9.584
REMARK  9 active torsions:
REMARK  status: ('A' for Active; 'I' for Inactive)
REMARK       I    between atoms: N_2  and  C_3 
REMARK    1  A    between atoms: C_3  and  C_4 
REMARK    2  A    between atoms: C_7  and  N_8 
REMARK       I    between atoms: N_8  and  C_9 
REMARK    3  A    between atoms: C_9  and  C_10 
REMARK    4  A    between atoms: C_10  and  O_11 
REMARK    5  A    between atoms: O_11  and  C_12 
REMARK    6  A    between atoms: C_12  and  C_13 
REMARK    7  A    between atoms: C_14  and  N_15 
REMARK    8  A    between atoms: N_15  and  C_16 
REMARK    9  A    between atoms: C_16  and  C_17 
ROOT
HETATM    1  O   UNL     1       8.813  30.004  59.201  1.00  0.00    -0.308 OA
ENDROOT
BRANCH   1   2
HETATM    2  C   UNL     1       7.766  29.525  58.350  1.00  0.00     0.282 C 
BRANCH   2   3
HETATM    3  C   UNL     1       8.223  28.315  57.529  1.00  0.00     0.246 C 
HETATM    4  N   UNL     1       7.511  27.165  57.822  1.00  0.00    -0.325 N 
HETATM    5  H   UNL     1       6.869  27.223  58.613  1.00  0.00     0.169 HD
HETATM    6  O   UNL     1       9.129  28.419  56.706  1.00  0.00    -0.271 OA
BRANCH   4   7
HETATM    7  C   UNL     1       7.521  25.942  57.124  1.00  0.00     0.034 A 
HETATM    8  C   UNL     1       6.481  25.506  56.298  1.00  0.00     0.030 A 
HETATM    9  C   UNL     1       6.549  24.257  55.671  1.00  0.00     0.019 A 
HETATM   10  C   UNL     1       7.670  23.443  55.861  1.00  0.00     0.032 A 
HETATM   11  C   UNL     1       8.703  23.858  56.702  1.00  0.00     0.019 A 
HETATM   12  C   UNL     1       8.630  25.109  57.322  1.00  0.00     0.030 A 
BRANCH  10  13
HETATM   13  C   UNL     1       7.748  22.105  55.236  1.00  0.00     0.253 C 
HETATM   14  N   UNL     1       7.801  22.012  53.847  1.00  0.00    -0.357 N 
HETATM   15  C   UNL     1       7.712  20.698  53.235  1.00  0.00     0.152 C 
HETATM   16  C   UNL     1       8.096  23.120  52.949  1.00  0.00     0.152 C 
HETATM   17  O   UNL     1       7.754  21.131  55.987  1.00  0.00    -0.267 OA
ENDBRANCH  10  13
ENDBRANCH   4   7
ENDBRANCH   2   3
ENDBRANCH   1   2
BRANCH   1  18
HETATM   18  C   UNL     1       8.859  31.348  59.365  1.00  0.00     0.295 C 
HETATM   19  O   UNL     1       9.576  32.120  58.744  1.00  0.00    -0.259 OA
BRANCH  18  20
HETATM   20  C   UNL     1       7.976  31.756  60.475  1.00  0.00     0.060 A 
HETATM   21  C   UNL     1       6.802  32.499  60.220  1.00  0.00     0.025 A 
HETATM   22  C   UNL     1       6.029  32.855  61.338  1.00  0.00     0.024 A 
HETATM   23  C   UNL     1       6.440  32.557  62.644  1.00  0.00     0.002 A 
HETATM   24  C   UNL     1       7.623  31.862  62.869  1.00  0.00     0.001 A 
HETATM   25  C   UNL     1       8.390  31.454  61.785  1.00  0.00     0.019 A 
BRANCH  21  26
HETATM   26  N   UNL     1       6.365  32.720  58.903  1.00  0.00    -0.286 NA
HETATM   27  H   UNL     1       6.690  33.623  58.549  1.00  0.00     0.128 HD
BRANCH  26  28
HETATM   28  C   UNL     1       4.974  32.470  58.526  1.00  0.00     0.157 C 
BRANCH  28  29
HETATM   29  C   UNL     1       4.812  31.444  57.455  1.00  0.00     0.065 A 
HETATM   30  O   UNL     1       4.413  30.201  57.853  1.00  0.00    -0.326 OA
HETATM   31  C   UNL     1       4.359  29.425  56.741  1.00  0.00     0.142 A 
HETATM   32  C   UNL     1       4.720  30.150  55.630  1.00  0.00     0.027 A 
HETATM   33  C   UNL     1       5.015  31.455  56.089  1.00  0.00     0.036 A 
ENDBRANCH  28  29
ENDBRANCH  26  28
ENDBRANCH  21  26
ENDBRANCH  18  20
ENDBRANCH   1  18
TORSDOF 9
ENDMDL
MODEL 5
REMARK VINA RESULT:      -8.5      2.166     11.020
REMARK  9 active torsions:
REMARK  status: ('A' for Active; 'I' for Inactive)
REMARK       I    between atoms: N_2  and  C_3 
REMARK    1  A    between atoms: C_3  and  C_4 
REMARK    2  A    between atoms: C_7  and  N_8 
REMARK       I    between atoms: N_8  and  C_9 
REMARK    3  A    between atoms: C_9  and  C_10 
REMARK    4  A    between atoms: C_10  and  O_11 
REMARK    5  A    between atoms: O_11  and  C_12 
REMARK    6  A    between atoms: C_12  and  C_13 
REMARK    7  A    between atoms: C_14  and  N_15 
REMARK    8  A    between atoms: N_15  and  C_16 
REMARK    9  A    between atoms: C_16  and  C_17 
ROOT
HETATM    1  O   UNL     1       7.511  30.664  58.093  1.00  0.00    -0.308 OA
ENDROOT
BRANCH   1   2
HETATM    2  C   UNL     1       6.525  29.680  57.759  1.00  0.00     0.282 C 
BRANCH   2   3
HETATM    3  C   UNL     1       7.130  28.543  56.931  1.00  0.00     0.246 C 
HETATM    4  N   UNL     1       6.830  27.290  57.437  1.00  0.00    -0.325 N 
HETATM    5  H   UNL     1       6.361  27.272  58.343  1.00  0.00     0.169 HD
HETATM    6  O   UNL     1       7.798  28.781  55.929  1.00  0.00    -0.271 OA
BRANCH   4   7
HETATM    7  C   UNL     1       7.040  26.039  56.826  1.00  0.00     0.034 A 
HETATM    8  C   UNL     1       6.103  25.402  56.008  1.00  0.00     0.030 A 
HETATM    9  C   UNL     1       6.374  24.139  55.471  1.00  0.00     0.019 A 
HETATM   10  C   UNL     1       7.594  23.513  55.743  1.00  0.00     0.032 A 
HETATM   11  C   UNL     1       8.526  24.128  56.579  1.00  0.00     0.019 A 
HETATM   12  C   UNL     1       8.252  25.392  57.108  1.00  0.00     0.030 A 
BRANCH  10  13
HETATM   13  C   UNL     1       7.885  22.162  55.215  1.00  0.00     0.253 C 
HETATM   14  N   UNL     1       7.907  21.969  53.835  1.00  0.00    -0.357 N 
HETATM   15  C   UNL     1       8.032  20.614  53.325  1.00  0.00     0.152 C 
HETATM   16  C   UNL     1       7.972  23.036  52.846  1.00  0.00     0.152 C 
HETATM   17  O   UNL     1       8.088  21.268  56.033  1.00  0.00    -0.267 OA
ENDBRANCH  10  13
ENDBRANCH   4   7
ENDBRANCH   2   3
ENDBRANCH   1   2
BRANCH   1  18
HETATM   18  C   UNL     1       7.042  31.762  58.733  1.00  0.00     0.295 C 
HETATM   19  O   UNL     1       6.308  32.612  58.249  1.00  0.00    -0.259 OA
BRANCH  18  20
HETATM   20  C   UNL     1       7.615  31.846  60.090  1.00  0.00     0.060 A 
HETATM   21  C   UNL     1       6.787  32.110  61.203  1.00  0.00     0.025 A 
HETATM   22  C   UNL     1       7.421  32.184  62.454  1.00  0.00     0.024 A 
HETATM   23  C   UNL     1       8.812  32.080  62.584  1.00  0.00     0.002 A 
HETATM   24  C   UNL     1       9.609  31.863  61.466  1.00  0.00     0.001 A 
HETATM   25  C   UNL     1       9.013  31.739  60.218  1.00  0.00     0.019 A 
BRANCH  21  26
HETATM   26  N   UNL     1       5.389  32.133  61.066  1.00  0.00    -0.286 NA
HETATM   27  H   UNL     1       5.084  32.924  60.494  1.00  0.00     0.128 HD
BRANCH  26  28
HETATM   28  C   UNL     1       4.522  31.952  62.230  1.00  0.00     0.157 C 
BRANCH  28  29
HETATM   29  C   UNL     1       4.551  33.094  63.191  1.00  0.00     0.065 A 
HETATM   30  O   UNL     1       4.622  32.777  64.517  1.00  0.00    -0.326 OA
HETATM   31  C   UNL     1       4.607  33.947  65.206  1.00  0.00     0.142 A 
HETATM   32  C   UNL     1       4.527  35.014  64.344  1.00  0.00     0.027 A 
HETATM   33  C   UNL     1       4.489  34.465  63.040  1.00  0.00     0.036 A 
ENDBRANCH  28  29
ENDBRANCH  26  28
ENDBRANCH  21  26
ENDBRANCH  18  20
ENDBRANCH   1  18
TORSDOF 9
ENDMDL
MODEL 6
REMARK VINA RESULT:      -8.5      5.969     11.564
REMARK  9 active torsions:
REMARK  status: ('A' for Active; 'I' for Inactive)
REMARK       I    between atoms: N_2  and  C_3 
REMARK    1  A    between atoms: C_3  and  C_4 
REMARK    2  A    between atoms: C_7  and  N_8 
REMARK       I    between atoms: N_8  and  C_9 
REMARK    3  A    between atoms: C_9  and  C_10 
REMARK    4  A    between atoms: C_10  and  O_11 
REMARK    5  A    between atoms: O_11  and  C_12 
REMARK    6  A    between atoms: C_12  and  C_13 
REMARK    7  A    between atoms: C_14  and  N_15 
REMARK    8  A    between atoms: N_15  and  C_16 
REMARK    9  A    between atoms: C_16  and  C_17 
ROOT
HETATM    1  O   UNL     1       6.310  24.923  53.567  1.00  0.00    -0.308 OA
ENDROOT
BRANCH   1   2
HETATM    2  C   UNL     1       5.270  24.830  52.587  1.00  0.00     0.282 C 
BRANCH   2   3
HETATM    3  C   UNL     1       4.972  26.194  51.958  1.00  0.00     0.246 C 
HETATM    4  N   UNL     1       5.412  26.291  50.648  1.00  0.00    -0.325 N 
HETATM    5  H   UNL     1       5.976  25.513  50.305  1.00  0.00     0.169 HD
HETATM    6  O   UNL     1       4.395  27.070  52.597  1.00  0.00    -0.271 OA
BRANCH   4   7
HETATM    7  C   UNL     1       5.126  27.305  49.715  1.00  0.00     0.034 A 
HETATM    8  C   UNL     1       5.425  28.656  49.913  1.00  0.00     0.030 A 
HETATM    9  C   UNL     1       5.071  29.609  48.952  1.00  0.00     0.019 A 
HETATM   10  C   UNL     1       4.424  29.208  47.779  1.00  0.00     0.032 A 
HETATM   11  C   UNL     1       4.099  27.866  47.581  1.00  0.00     0.019 A 
HETATM   12  C   UNL     1       4.460  26.918  48.543  1.00  0.00     0.030 A 
BRANCH  10  13
HETATM   13  C   UNL     1       4.010  30.203  46.766  1.00  0.00     0.253 C 
HETATM   14  N   UNL     1       2.667  30.566  46.689  1.00  0.00    -0.357 N 
HETATM   15  C   UNL     1       2.239  31.416  45.591  1.00  0.00     0.152 C 
HETATM   16  C   UNL     1       1.670  30.290  47.714  1.00  0.00     0.152 C 
HETATM   17  O   UNL     1       4.883  30.657  46.029  1.00  0.00    -0.267 OA
ENDBRANCH  10  13
ENDBRANCH   4   7
ENDBRANCH   2   3
ENDBRANCH   1   2
BRANCH   1  18
HETATM   18  C   UNL     1       7.493  24.366  53.213  1.00  0.00     0.295 C 
HETATM   19  O   UNL     1       8.314  24.855  52.451  1.00  0.00    -0.259 OA
BRANCH  18  20
HETATM   20  C   UNL     1       7.623  23.023  53.811  1.00  0.00     0.060 A 
HETATM   21  C   UNL     1       7.539  22.851  55.210  1.00  0.00     0.025 A 
HETATM   22  C   UNL     1       7.687  21.540  55.692  1.00  0.00     0.024 A 
HETATM   23  C   UNL     1       7.981  20.469  54.838  1.00  0.00     0.002 A 
HETATM   24  C   UNL     1       8.102  20.673  53.468  1.00  0.00     0.001 A 
HETATM   25  C   UNL     1       7.916  21.949  52.951  1.00  0.00     0.019 A 
BRANCH  21  26
HETATM   26  N   UNL     1       7.167  23.920  56.043  1.00  0.00    -0.286 NA
HETATM   27  H   UNL     1       6.494  24.536  55.580  1.00  0.00     0.128 HD
BRANCH  26  28
HETATM   28  C   UNL     1       8.178  24.688  56.770  1.00  0.00     0.157 C 
BRANCH  28  29
HETATM   29  C   UNL     1       7.911  26.156  56.809  1.00  0.00     0.065 A 
HETATM   30  O   UNL     1       7.910  26.745  58.040  1.00  0.00    -0.326 OA
HETATM   31  C   UNL     1       7.621  28.058  57.852  1.00  0.00     0.142 A 
HETATM   32  C   UNL     1       7.433  28.323  56.516  1.00  0.00     0.027 A 
HETATM   33  C   UNL     1       7.620  27.095  55.840  1.00  0.00     0.036 A 
ENDBRANCH  28  29
ENDBRANCH  26  28
ENDBRANCH  21  26
ENDBRANCH  18  20
ENDBRANCH   1  18
TORSDOF 9
ENDMDL
MODEL 7
REMARK VINA RESULT:      -8.5      5.245      7.990
REMARK  9 active torsions:
REMARK  status: ('A' for Active; 'I' for Inactive)
REMARK       I    between atoms: N_2  and  C_3 
REMARK    1  A    between atoms: C_3  and  C_4 
REMARK    2  A    between atoms: C_7  and  N_8 
REMARK       I    between atoms: N_8  and  C_9 
REMARK    3  A    between atoms: C_9  and  C_10 
REMARK    4  A    between atoms: C_10  and  O_11 
REMARK    5  A    between atoms: O_11  and  C_12 
REMARK    6  A    between atoms: C_12  and  C_13 
REMARK    7  A    between atoms: C_14  and  N_15 
REMARK    8  A    between atoms: N_15  and  C_16 
REMARK    9  A    between atoms: C_16  and  C_17 
ROOT
HETATM    1  O   UNL     1       5.778  24.367  53.238  1.00  0.00    -0.308 OA
ENDROOT
BRANCH   1   2
HETATM    2  C   UNL     1       5.082  25.076  52.207  1.00  0.00     0.282 C 
BRANCH   2   3
HETATM    3  C   UNL     1       5.132  26.589  52.438  1.00  0.00     0.246 C 
HETATM    4  N   UNL     1       4.140  27.036  53.296  1.00  0.00    -0.325 N 
HETATM    5  H   UNL     1       3.438  26.347  53.566  1.00  0.00     0.169 HD
HETATM    6  O   UNL     1       5.990  27.281  51.897  1.00  0.00    -0.271 OA
BRANCH   4   7
HETATM    7  C   UNL     1       4.017  28.308  53.885  1.00  0.00     0.034 A 
HETATM    8  C   UNL     1       3.795  29.485  53.164  1.00  0.00     0.030 A 
HETATM    9  C   UNL     1       3.726  30.717  53.821  1.00  0.00     0.019 A 
HETATM   10  C   UNL     1       3.867  30.774  55.211  1.00  0.00     0.032 A 
HETATM   11  C   UNL     1       4.113  29.609  55.938  1.00  0.00     0.019 A 
HETATM   12  C   UNL     1       4.177  28.380  55.276  1.00  0.00     0.030 A 
BRANCH  10  13
HETATM   13  C   UNL     1       3.832  32.070  55.923  1.00  0.00     0.253 C 
HETATM   14  N   UNL     1       2.766  32.936  55.692  1.00  0.00    -0.357 N 
HETATM   15  C   UNL     1       2.819  34.271  56.265  1.00  0.00     0.152 C 
HETATM   16  C   UNL     1       1.515  32.565  55.045  1.00  0.00     0.152 C 
HETATM   17  O   UNL     1       4.763  32.320  56.686  1.00  0.00    -0.267 OA
ENDBRANCH  10  13
ENDBRANCH   4   7
ENDBRANCH   2   3
ENDBRANCH   1   2
BRANCH   1  18
HETATM   18  C   UNL     1       7.053  24.017  52.944  1.00  0.00     0.295 C 
HETATM   19  O   UNL     1       7.783  24.582  52.144  1.00  0.00    -0.259 OA
BRANCH  18  20
HETATM   20  C   UNL     1       7.422  22.783  53.667  1.00  0.00     0.060 A 
HETATM   21  C   UNL     1       7.426  22.754  55.078  1.00  0.00     0.025 A 
HETATM   22  C   UNL     1       7.803  21.542  55.680  1.00  0.00     0.024 A 
HETATM   23  C   UNL     1       8.227  20.442  54.923  1.00  0.00     0.002 A 
HETATM   24  C   UNL     1       8.255  20.512  53.534  1.00  0.00     0.001 A 
HETATM   25  C   UNL     1       7.846  21.680  52.903  1.00  0.00     0.019 A 
BRANCH  21  26
HETATM   26  N   UNL     1       6.924  23.836  55.819  1.00  0.00    -0.286 NA
HETATM   27  H   UNL     1       6.405  24.487  55.224  1.00  0.00     0.128 HD
BRANCH  26  28
HETATM   28  C   UNL     1       7.776  24.551  56.770  1.00  0.00     0.157 C 
BRANCH  28  29
HETATM   29  C   UNL     1       7.844  26.023  56.534  1.00  0.00     0.065 A 
HETATM   30  O   UNL     1       8.337  26.784  57.555  1.00  0.00    -0.326 OA
HETATM   31  C   UNL     1       8.284  28.078  57.147  1.00  0.00     0.142 A 
HETATM   32  C   UNL     1       7.762  28.162  55.878  1.00  0.00     0.027 A 
HETATM   33  C   UNL     1       7.477  26.835  55.480  1.00  0.00     0.036 A 
ENDBRANCH  28  29
ENDBRANCH  26  28
ENDBRANCH  21  26
ENDBRANCH  18  20
ENDBRANCH   1  18
TORSDOF 9
ENDMDL
MODEL 8
REMARK VINA RESULT:      -8.3      3.121      6.619
REMARK  9 active torsions:
REMARK  status: ('A' for Active; 'I' for Inactive)
REMARK       I    between atoms: N_2  and  C_3 
REMARK    1  A    between atoms: C_3  and  C_4 
REMARK    2  A    between atoms: C_7  and  N_8 
REMARK       I    between atoms: N_8  and  C_9 
REMARK    3  A    between atoms: C_9  and  C_10 
REMARK    4  A    between atoms: C_10  and  O_11 
REMARK    5  A    between atoms: O_11  and  C_12 
REMARK    6  A    between atoms: C_12  and  C_13 
REMARK    7  A    between atoms: C_14  and  N_15 
REMARK    8  A    between atoms: N_15  and  C_16 
REMARK    9  A    between atoms: C_16  and  C_17 
ROOT
HETATM    1  O   UNL     1       6.083  26.346  52.804  1.00  0.00    -0.308 OA
ENDROOT
BRANCH   1   2
HETATM    2  C   UNL     1       5.110  27.232  52.239  1.00  0.00     0.282 C 
BRANCH   2   3
HETATM    3  C   UNL     1       4.401  28.047  53.325  1.00  0.00     0.246 C 
HETATM    4  N   UNL     1       5.267  28.517  54.297  1.00  0.00    -0.325 N 
HETATM    5  H   UNL     1       6.226  28.173  54.248  1.00  0.00     0.169 HD
HETATM    6  O   UNL     1       3.188  28.235  53.279  1.00  0.00    -0.271 OA
BRANCH   4   7
HETATM    7  C   UNL     1       5.000  29.457  55.310  1.00  0.00     0.034 A 
HETATM    8  C   UNL     1       5.239  30.829  55.186  1.00  0.00     0.030 A 
HETATM    9  C   UNL     1       4.984  31.693  56.255  1.00  0.00     0.019 A 
HETATM   10  C   UNL     1       4.474  31.186  57.454  1.00  0.00     0.032 A 
HETATM   11  C   UNL     1       4.254  29.816  57.598  1.00  0.00     0.019 A 
HETATM   12  C   UNL     1       4.507  28.958  56.524  1.00  0.00     0.030 A 
BRANCH  10  13
HETATM   13  C   UNL     1       4.230  32.077  58.610  1.00  0.00     0.253 C 
HETATM   14  N   UNL     1       5.257  32.287  59.527  1.00  0.00    -0.357 N 
HETATM   15  C   UNL     1       4.963  33.028  60.741  1.00  0.00     0.152 C 
HETATM   16  C   UNL     1       6.657  31.956  59.299  1.00  0.00     0.152 C 
HETATM   17  O   UNL     1       3.115  32.585  58.704  1.00  0.00    -0.267 OA
ENDBRANCH  10  13
ENDBRANCH   4   7
ENDBRANCH   2   3
ENDBRANCH   1   2
BRANCH   1  18
HETATM   18  C   UNL     1       5.706  25.048  52.892  1.00  0.00     0.295 C 
HETATM   19  O   UNL     1       4.642  24.585  52.507  1.00  0.00    -0.259 OA
BRANCH  18  20
HETATM   20  C   UNL     1       6.734  24.266  53.607  1.00  0.00     0.060 A 
HETATM   21  C   UNL     1       7.130  24.628  54.913  1.00  0.00     0.025 A 
HETATM   22  C   UNL     1       8.122  23.835  55.511  1.00  0.00     0.024 A 
HETATM   23  C   UNL     1       8.744  22.786  54.821  1.00  0.00     0.002 A 
HETATM   24  C   UNL     1       8.366  22.478  53.519  1.00  0.00     0.001 A 
HETATM   25  C   UNL     1       7.355  23.212  52.912  1.00  0.00     0.019 A 
BRANCH  21  26
HETATM   26  N   UNL     1       6.442  25.630  55.618  1.00  0.00    -0.286 NA
HETATM   27  H   UNL     1       6.210  26.421  55.011  1.00  0.00     0.128 HD
BRANCH  26  28
HETATM   28  C   UNL     1       6.918  26.084  56.925  1.00  0.00     0.157 C 
BRANCH  28  29
HETATM   29  C   UNL     1       7.583  27.420  56.896  1.00  0.00     0.065 A 
HETATM   30  O   UNL     1       7.994  27.873  55.676  1.00  0.00    -0.326 OA
HETATM   31  C   UNL     1       8.592  29.075  55.879  1.00  0.00     0.142 A 
HETATM   32  C   UNL     1       8.574  29.403  57.214  1.00  0.00     0.027 A 
HETATM   33  C   UNL     1       7.923  28.334  57.874  1.00  0.00     0.036 A 
ENDBRANCH  28  29
ENDBRANCH  26  28
ENDBRANCH  21  26
ENDBRANCH  18  20
ENDBRANCH   1  18
TORSDOF 9
ENDMDL
MODEL 9
REMARK VINA RESULT:      -8.3      2.340      9.643
REMARK  9 active torsions:
REMARK  status: ('A' for Active; 'I' for Inactive)
REMARK       I    between atoms: N_2  and  C_3 
REMARK    1  A    between atoms: C_3  and  C_4 
REMARK    2  A    between atoms: C_7  and  N_8 
REMARK       I    between atoms: N_8  and  C_9 
REMARK    3  A    between atoms: C_9  and  C_10 
REMARK    4  A    between atoms: C_10  and  O_11 
REMARK    5  A    between atoms: O_11  and  C_12 
REMARK    6  A    between atoms: C_12  and  C_13 
REMARK    7  A    between atoms: C_14  and  N_15 
REMARK    8  A    between atoms: N_15  and  C_16 
REMARK    9  A    between atoms: C_16  and  C_17 
ROOT
HETATM    1  O   UNL     1       7.978  31.383  61.960  1.00  0.00    -0.308 OA
ENDROOT
BRANCH   1   2
HETATM    2  C   UNL     1       9.096  31.838  61.189  1.00  0.00     0.282 C 
BRANCH   2   3
HETATM    3  C   UNL     1       8.963  31.430  59.719  1.00  0.00     0.246 C 
HETATM    4  N   UNL     1       8.297  30.227  59.552  1.00  0.00    -0.325 N 
HETATM    5  H   UNL     1       8.089  29.707  60.404  1.00  0.00     0.169 HD
HETATM    6  O   UNL     1       9.415  32.140  58.825  1.00  0.00    -0.271 OA
BRANCH   4   7
HETATM    7  C   UNL     1       7.821  29.663  58.353  1.00  0.00     0.034 A 
HETATM    8  C   UNL     1       6.569  29.947  57.799  1.00  0.00     0.030 A 
HETATM    9  C   UNL     1       6.154  29.313  56.624  1.00  0.00     0.019 A 
HETATM   10  C   UNL     1       6.999  28.397  55.990  1.00  0.00     0.032 A 
HETATM   11  C   UNL     1       8.240  28.088  56.547  1.00  0.00     0.019 A 
HETATM   12  C   UNL     1       8.652  28.729  57.719  1.00  0.00     0.030 A 
BRANCH  10  13
HETATM   13  C   UNL     1       6.565  27.689  54.766  1.00  0.00     0.253 C 
HETATM   14  N   UNL     1       6.012  26.416  54.885  1.00  0.00    -0.357 N 
HETATM   15  C   UNL     1       5.740  25.661  53.674  1.00  0.00     0.152 C 
HETATM   16  C   UNL     1       5.533  25.829  56.129  1.00  0.00     0.152 C 
HETATM   17  O   UNL     1       6.726  28.266  53.693  1.00  0.00    -0.267 OA
ENDBRANCH  10  13
ENDBRANCH   4   7
ENDBRANCH   2   3
ENDBRANCH   1   2
BRANCH   1  18
HETATM   18  C   UNL     1       6.864  32.150  61.876  1.00  0.00     0.295 C 
HETATM   19  O   UNL     1       6.248  32.405  60.851  1.00  0.00    -0.259 OA
BRANCH  18  20
HETATM   20  C   UNL     1       6.537  32.720  63.198  1.00  0.00     0.060 A 
HETATM   21  C   UNL     1       5.192  32.942  63.569  1.00  0.00     0.025 A 
HETATM   22  C   UNL     1       4.976  33.499  64.840  1.00  0.00     0.024 A 
HETATM   23  C   UNL     1       6.038  33.887  65.666  1.00  0.00     0.002 A 
HETATM   24  C   UNL     1       7.353  33.698  65.258  1.00  0.00     0.001 A 
HETATM   25  C   UNL     1       7.606  33.107  64.026  1.00  0.00     0.019 A 
BRANCH  21  26
HETATM   26  N   UNL     1       4.140  32.475  62.763  1.00  0.00    -0.286 NA
HETATM   27  H   UNL     1       4.490  31.925  61.974  1.00  0.00     0.128 HD
BRANCH  26  28
HETATM   28  C   UNL     1       3.062  33.373  62.349  1.00  0.00     0.157 C 
BRANCH  28  29
HETATM   29  C   UNL     1       3.292  34.027  61.027  1.00  0.00     0.065 A 
HETATM   30  O   UNL     1       2.737  33.418  59.938  1.00  0.00    -0.326 OA
HETATM   31  C   UNL     1       3.090  34.151  58.851  1.00  0.00     0.142 A 
HETATM   32  C   UNL     1       3.866  35.223  59.224  1.00  0.00     0.027 A 
HETATM   33  C   UNL     1       4.000  35.144  60.630  1.00  0.00     0.036 A 
ENDBRANCH  28  29
ENDBRANCH  26  28
ENDBRANCH  21  26
ENDBRANCH  18  20
ENDBRANCH   1  18
TORSDOF 9
ENDMDL
MODEL 10
REMARK VINA RESULT:      -8.2      2.365     10.533
REMARK  9 active torsions:
REMARK  status: ('A' for Active; 'I' for Inactive)
REMARK       I    between atoms: N_2  and  C_3 
REMARK    1  A    between atoms: C_3  and  C_4 
REMARK    2  A    between atoms: C_7  and  N_8 
REMARK       I    between atoms: N_8  and  C_9 
REMARK    3  A    between atoms: C_9  and  C_10 
REMARK    4  A    between atoms: C_10  and  O_11 
REMARK    5  A    between atoms: O_11  and  C_12 
REMARK    6  A    between atoms: C_12  and  C_13 
REMARK    7  A    between atoms: C_14  and  N_15 
REMARK    8  A    between atoms: N_15  and  C_16 
REMARK    9  A    between atoms: C_16  and  C_17 
ROOT
HETATM    1  O   UNL     1       6.013  31.658  58.413  1.00  0.00    -0.308 OA
ENDROOT
BRANCH   1   2
HETATM    2  C   UNL     1       4.820  30.912  58.145  1.00  0.00     0.282 C 
BRANCH   2   3
HETATM    3  C   UNL     1       5.056  29.851  57.066  1.00  0.00     0.246 C 
HETATM    4  N   UNL     1       5.806  28.779  57.520  1.00  0.00    -0.325 N 
HETATM    5  H   UNL     1       6.207  28.875  58.453  1.00  0.00     0.169 HD
HETATM    6  O   UNL     1       4.597  29.990  55.936  1.00  0.00    -0.271 OA
BRANCH   4   7
HETATM    7  C   UNL     1       6.033  27.550  56.874  1.00  0.00     0.034 A 
HETATM    8  C   UNL     1       5.178  26.447  56.970  1.00  0.00     0.030 A 
HETATM    9  C   UNL     1       5.497  25.245  56.329  1.00  0.00     0.019 A 
HETATM   10  C   UNL     1       6.671  25.147  55.577  1.00  0.00     0.032 A 
HETATM   11  C   UNL     1       7.543  26.232  55.494  1.00  0.00     0.019 A 
HETATM   12  C   UNL     1       7.217  27.432  56.133  1.00  0.00     0.030 A 
BRANCH  10  13
HETATM   13  C   UNL     1       7.045  23.875  54.920  1.00  0.00     0.253 C 
HETATM   14  N   UNL     1       7.927  23.016  55.570  1.00  0.00    -0.357 N 
HETATM   15  C   UNL     1       8.417  21.850  54.853  1.00  0.00     0.152 C 
HETATM   16  C   UNL     1       8.287  23.101  56.979  1.00  0.00     0.152 C 
HETATM   17  O   UNL     1       6.555  23.645  53.816  1.00  0.00    -0.267 OA
ENDBRANCH  10  13
ENDBRANCH   4   7
ENDBRANCH   2   3
ENDBRANCH   1   2
BRANCH   1  18
HETATM   18  C   UNL     1       5.990  32.402  59.544  1.00  0.00     0.295 C 
HETATM   19  O   UNL     1       5.149  33.243  59.830  1.00  0.00    -0.259 OA
BRANCH  18  20
HETATM   20  C   UNL     1       7.187  32.124  60.363  1.00  0.00     0.060 A 
HETATM   21  C   UNL     1       7.060  31.808  61.733  1.00  0.00     0.025 A 
HETATM   22  C   UNL     1       8.252  31.570  62.436  1.00  0.00     0.024 A 
HETATM   23  C   UNL     1       9.507  31.714  61.830  1.00  0.00     0.002 A 
HETATM   24  C   UNL     1       9.605  32.068  60.490  1.00  0.00     0.001 A 
HETATM   25  C   UNL     1       8.445  32.267  59.751  1.00  0.00     0.019 A 
BRANCH  21  26
HETATM   26  N   UNL     1       5.794  31.591  62.304  1.00  0.00    -0.286 NA
HETATM   27  H   UNL     1       5.060  31.587  61.592  1.00  0.00     0.128 HD
BRANCH  26  28
HETATM   28  C   UNL     1       5.376  32.330  63.495  1.00  0.00     0.157 C 
BRANCH  28  29
HETATM   29  C   UNL     1       4.479  33.488  63.206  1.00  0.00     0.065 A 
HETATM   30  O   UNL     1       3.136  33.250  63.260  1.00  0.00    -0.326 OA
HETATM   31  C   UNL     1       2.513  34.413  62.939  1.00  0.00     0.142 A 
HETATM   32  C   UNL     1       3.436  35.397  62.676  1.00  0.00     0.027 A 
HETATM   33  C   UNL     1       4.707  34.801  62.847  1.00  0.00     0.036 A 
ENDBRANCH  28  29
ENDBRANCH  26  28
ENDBRANCH  21  26
ENDBRANCH  18  20
ENDBRANCH   1  18
TORSDOF 9
ENDMDL
