MODEL 1
REMARK VINA RESULT:      -9.5      0.000      0.000
REMARK  10 active torsions:
REMARK  status: ('A' for Active; 'I' for Inactive)
REMARK    1  A    between atoms: O_2  and  C_3 
REMARK    2  A    between atoms: C_3  and  C_4 
REMARK    3  A    between atoms: C_6  and  C_7 
REMARK    4  A    between atoms: C_7  and  C_8 
REMARK    5  A    between atoms: C_8  and  N_9 
REMARK       I    between atoms: N_9  and  C_10 
REMARK       I    between atoms: C_10  and  N_17 
REMARK    6  A    between atoms: N_17  and  CA_18 
REMARK    7  A    between atoms: CA_18  and  C_19 
REMARK    8  A    between atoms: CA_18  and  CB_21 
REMARK    9  A    between atoms: C_19  and  O_20 
REMARK   10  A    between atoms: CB_21  and  CG_22 
ROOT
HETATM    1  N   UNK A   0       4.582  27.478  55.393  1.00  0.00    -0.343 N 
HETATM    2  C   UNK A   0       5.337  26.947  54.379  1.00  0.00     0.316 C 
HETATM    3  O   UNK A   0       6.199  27.557  53.766  1.00  0.00    -0.248 OA
HETATM    4  H   UNK A   0       4.200  26.806  56.042  1.00  0.00     0.164 HD
ATOM      5  N   TRP A   1       5.006  25.633  54.167  1.00  0.00    -0.336 N 
ATOM      6  H   TRP A   1       4.015  25.476  54.303  1.00  0.00     0.164 HD
ENDROOT
BRANCH   5   7
ATOM      7  CA  TRP A   1       5.592  24.866  53.052  1.00  0.00     0.114 C 
BRANCH   7   8
ATOM      8  C   TRP A   1       5.140  25.415  51.682  1.00  0.00     0.189 C 
BRANCH   8   9
ATOM      9  O   TRP A   1       6.198  26.142  51.058  1.00  0.00    -0.399 OA
ATOM     10  H   TRP A   1       6.974  26.004  51.633  1.00  0.00     0.209 HD
ENDBRANCH   8   9
ENDBRANCH   7   8
BRANCH   7  11
ATOM     11  CB  TRP A   1       7.136  24.888  53.122  1.00  0.00     0.068 C 
BRANCH  11  12
ATOM     12  CG  TRP A   1       7.691  24.004  54.202  1.00  0.00    -0.028 A 
ATOM     13  CD2 TRP A   1       8.009  22.611  54.094  1.00  0.00    -0.002 A 
ATOM     14  CE2 TRP A   1       8.520  22.201  55.324  1.00  0.00     0.042 A 
ATOM     15  CE3 TRP A   1       7.919  21.661  53.054  1.00  0.00     0.014 A 
ATOM     16  CZ2 TRP A   1       8.952  20.892  55.569  1.00  0.00     0.030 A 
ATOM     17  NE1 TRP A   1       8.491  23.294  56.159  1.00  0.00    -0.365 N 
ATOM     18  CH2 TRP A   1       8.859  19.973  54.520  1.00  0.00     0.002 A 
ATOM     19  CZ3 TRP A   1       8.349  20.349  53.280  1.00  0.00     0.001 A 
ATOM     20  HE1 TRP A   1       8.794  23.287  57.123  1.00  0.00     0.165 HD
ATOM     21  CD1 TRP A   1       7.996  24.385  55.495  1.00  0.00     0.096 A 
ENDBRANCH  11  12
ENDBRANCH   7  11
ENDBRANCH   5   7
BRANCH   1  22
HETATM   22  C   UNK A   0       4.853  28.809  55.905  1.00  0.00     0.129 C 
BRANCH  22  23
HETATM   23  C   UNK A   0       5.351  28.800  57.353  1.00  0.00     0.058 C 
BRANCH  23  24
HETATM   24  C   UNK A   0       6.843  29.021  57.420  1.00  0.00    -0.056 A 
HETATM   25  C   UNK A   0       7.368  30.188  57.996  1.00  0.00     0.024 A 
HETATM   26  C   UNK A   0       8.755  30.380  58.087  1.00  0.00     0.040 A 
HETATM   27  C   UNK A   0       9.621  29.394  57.599  1.00  0.00     0.017 A 
HETATM   28  C   UNK A   0       9.104  28.229  57.028  1.00  0.00     0.002 A 
HETATM   29  C   UNK A   0       7.725  28.043  56.940  1.00  0.00     0.007 A 
BRANCH  26  30
HETATM   30  C   UNK A   0       9.249  31.639  58.712  1.00  0.00     0.292 C 
HETATM   31  O   UNK A   0      10.401  32.033  58.614  1.00  0.00    -0.259 OA
BRANCH  30  32
HETATM   32  O   UNK A   0       8.251  32.266  59.384  1.00  0.00    -0.323 OA
HETATM   33  C   UNK A   0       8.516  32.451  60.775  1.00  0.00     0.213 C 
ENDBRANCH  30  32
ENDBRANCH  26  30
ENDBRANCH  23  24
ENDBRANCH  22  23
ENDBRANCH   1  22
TORSDOF 10
ENDMDL
MODEL 2
REMARK VINA RESULT:      -9.2      3.051      4.734
REMARK  10 active torsions:
REMARK  status: ('A' for Active; 'I' for Inactive)
REMARK    1  A    between atoms: O_2  and  C_3 
REMARK    2  A    between atoms: C_3  and  C_4 
REMARK    3  A    between atoms: C_6  and  C_7 
REMARK    4  A    between atoms: C_7  and  C_8 
REMARK    5  A    between atoms: C_8  and  N_9 
REMARK       I    between atoms: N_9  and  C_10 
REMARK       I    between atoms: C_10  and  N_17 
REMARK    6  A    between atoms: N_17  and  CA_18 
REMARK    7  A    between atoms: CA_18  and  C_19 
REMARK    8  A    between atoms: CA_18  and  CB_21 
REMARK    9  A    between atoms: C_19  and  O_20 
REMARK   10  A    between atoms: CB_21  and  CG_22 
ROOT
HETATM    1  N   UNK A   0       7.558  28.981  58.360  1.00  0.00    -0.343 N 
HETATM    2  C   UNK A   0       8.203  28.105  57.525  1.00  0.00     0.316 C 
HETATM    3  O   UNK A   0       9.163  28.394  56.827  1.00  0.00    -0.248 OA
HETATM    4  H   UNK A   0       7.059  28.555  59.126  1.00  0.00     0.164 HD
ATOM      5  N   TRP A   1       7.636  26.859  57.600  1.00  0.00    -0.336 N 
ATOM      6  H   TRP A   1       6.634  26.917  57.726  1.00  0.00     0.164 HD
ENDROOT
BRANCH   5   7
ATOM      7  CA  TRP A   1       8.071  25.765  56.712  1.00  0.00     0.114 C 
BRANCH   7   8
ATOM      8  C   TRP A   1       8.831  24.668  57.487  1.00  0.00     0.189 C 
BRANCH   8   9
ATOM      9  O   TRP A   1       8.695  24.862  58.894  1.00  0.00    -0.399 OA
ATOM     10  H   TRP A   1       9.468  25.396  59.153  1.00  0.00     0.209 HD
ENDBRANCH   8   9
ENDBRANCH   7   8
BRANCH   7  11
ATOM     11  CB  TRP A   1       6.860  25.129  55.991  1.00  0.00     0.068 C 
BRANCH  11  12
ATOM     12  CG  TRP A   1       7.244  24.355  54.763  1.00  0.00    -0.028 A 
ATOM     13  CD2 TRP A   1       7.520  22.950  54.683  1.00  0.00    -0.002 A 
ATOM     14  CE2 TRP A   1       7.806  22.654  53.352  1.00  0.00     0.042 A 
ATOM     15  CE3 TRP A   1       7.541  21.899  55.624  1.00  0.00     0.014 A 
ATOM     16  CZ2 TRP A   1       8.107  21.361  52.909  1.00  0.00     0.030 A 
ATOM     17  NE1 TRP A   1       7.733  23.835  52.650  1.00  0.00    -0.365 N 
ATOM     18  CH2 TRP A   1       8.114  20.336  53.860  1.00  0.00     0.002 A 
ATOM     19  CZ3 TRP A   1       7.838  20.599  55.199  1.00  0.00     0.001 A 
ATOM     20  HE1 TRP A   1       7.905  23.923  51.658  1.00  0.00     0.165 HD
ATOM     21  CD1 TRP A   1       7.394  24.864  53.487  1.00  0.00     0.096 A 
ENDBRANCH  11  12
ENDBRANCH   7  11
ENDBRANCH   5   7
BRANCH   1  22
HETATM   22  C   UNK A   0       8.070  30.323  58.571  1.00  0.00     0.129 C 
BRANCH  22  23
HETATM   23  C   UNK A   0       6.988  31.309  59.022  1.00  0.00     0.058 C 
BRANCH  23  24
HETATM   24  C   UNK A   0       7.202  31.740  60.453  1.00  0.00    -0.056 A 
HETATM   25  C   UNK A   0       6.128  32.201  61.228  1.00  0.00     0.024 A 
HETATM   26  C   UNK A   0       6.320  32.574  62.568  1.00  0.00     0.040 A 
HETATM   27  C   UNK A   0       7.599  32.481  63.133  1.00  0.00     0.017 A 
HETATM   28  C   UNK A   0       8.670  32.020  62.365  1.00  0.00     0.002 A 
HETATM   29  C   UNK A   0       8.474  31.650  61.034  1.00  0.00     0.007 A 
BRANCH  26  30
HETATM   30  C   UNK A   0       5.139  33.051  63.339  1.00  0.00     0.292 C 
HETATM   31  O   UNK A   0       4.857  32.649  64.457  1.00  0.00    -0.259 OA
BRANCH  30  32
HETATM   32  O   UNK A   0       4.447  33.980  62.632  1.00  0.00    -0.323 OA
HETATM   33  C   UNK A   0       3.030  33.809  62.684  1.00  0.00     0.213 C 
ENDBRANCH  30  32
ENDBRANCH  26  30
ENDBRANCH  23  24
ENDBRANCH  22  23
ENDBRANCH   1  22
TORSDOF 10
ENDMDL
MODEL 3
REMARK VINA RESULT:      -9.1      2.414      3.818
REMARK  10 active torsions:
REMARK  status: ('A' for Active; 'I' for Inactive)
REMARK    1  A    between atoms: O_2  and  C_3 
REMARK    2  A    between atoms: C_3  and  C_4 
REMARK    3  A    between atoms: C_6  and  C_7 
REMARK    4  A    between atoms: C_7  and  C_8 
REMARK    5  A    between atoms: C_8  and  N_9 
REMARK       I    between atoms: N_9  and  C_10 
REMARK       I    between atoms: C_10  and  N_17 
REMARK    6  A    between atoms: N_17  and  CA_18 
REMARK    7  A    between atoms: CA_18  and  C_19 
REMARK    8  A    between atoms: CA_18  and  CB_21 
REMARK    9  A    between atoms: C_19  and  O_20 
REMARK   10  A    between atoms: CB_21  and  CG_22 
ROOT
HETATM    1  N   UNK A   0       8.543  29.291  56.926  1.00  0.00    -0.343 N 
HETATM    2  C   UNK A   0       7.910  28.080  57.043  1.00  0.00     0.316 C 
HETATM    3  O   UNK A   0       7.832  27.437  58.078  1.00  0.00    -0.248 OA
HETATM    4  H   UNK A   0       8.224  29.871  56.164  1.00  0.00     0.164 HD
ATOM      5  N   TRP A   1       7.359  27.705  55.845  1.00  0.00    -0.336 N 
ATOM      6  H   TRP A   1       7.940  27.989  55.066  1.00  0.00     0.164 HD
ENDROOT
BRANCH   5   7
ATOM      7  CA  TRP A   1       6.723  26.386  55.673  1.00  0.00     0.114 C 
BRANCH   7   8
ATOM      8  C   TRP A   1       5.303  26.508  55.080  1.00  0.00     0.189 C 
BRANCH   8   9
ATOM      9  O   TRP A   1       4.509  27.402  55.859  1.00  0.00    -0.399 OA
ATOM     10  H   TRP A   1       4.734  27.200  56.786  1.00  0.00     0.209 HD
ENDBRANCH   8   9
ENDBRANCH   7   8
BRANCH   7  11
ATOM     11  CB  TRP A   1       7.578  25.479  54.758  1.00  0.00     0.068 C 
BRANCH  11  12
ATOM     12  CG  TRP A   1       7.888  24.144  55.372  1.00  0.00    -0.028 A 
ATOM     13  CD2 TRP A   1       7.997  22.889  54.690  1.00  0.00    -0.002 A 
ATOM     14  CE2 TRP A   1       8.323  21.923  55.640  1.00  0.00     0.042 A 
ATOM     15  CE3 TRP A   1       7.857  22.486  53.344  1.00  0.00     0.014 A 
ATOM     16  CZ2 TRP A   1       8.525  20.576  55.315  1.00  0.00     0.030 A 
ATOM     17  NE1 TRP A   1       8.387  22.558  56.858  1.00  0.00    -0.365 N 
ATOM     18  CH2 TRP A   1       8.388  20.206  53.974  1.00  0.00     0.002 A 
ATOM     19  CZ3 TRP A   1       8.057  21.145  53.001  1.00  0.00     0.001 A 
ATOM     20  HE1 TRP A   1       8.596  22.099  57.734  1.00  0.00     0.165 HD
ATOM     21  CD1 TRP A   1       8.129  23.895  56.710  1.00  0.00     0.096 A 
ENDBRANCH  11  12
ENDBRANCH   7  11
ENDBRANCH   5   7
BRANCH   1  22
HETATM   22  C   UNK A   0       9.072  29.971  58.094  1.00  0.00     0.129 C 
BRANCH  22  23
HETATM   23  C   UNK A   0       8.190  31.133  58.559  1.00  0.00     0.058 C 
BRANCH  23  24
HETATM   24  C   UNK A   0       8.124  31.202  60.066  1.00  0.00    -0.056 A 
HETATM   25  C   UNK A   0       7.009  31.763  60.707  1.00  0.00     0.024 A 
HETATM   26  C   UNK A   0       6.932  31.800  62.108  1.00  0.00     0.040 A 
HETATM   27  C   UNK A   0       7.980  31.269  62.870  1.00  0.00     0.017 A 
HETATM   28  C   UNK A   0       9.091  30.707  62.236  1.00  0.00     0.002 A 
HETATM   29  C   UNK A   0       9.162  30.672  60.843  1.00  0.00     0.007 A 
BRANCH  26  30
HETATM   30  C   UNK A   0       5.721  32.405  62.728  1.00  0.00     0.292 C 
HETATM   31  O   UNK A   0       5.071  31.861  63.607  1.00  0.00    -0.259 OA
BRANCH  30  32
HETATM   32  O   UNK A   0       5.461  33.622  62.186  1.00  0.00    -0.323 OA
HETATM   33  C   UNK A   0       6.024  34.713  62.916  1.00  0.00     0.213 C 
ENDBRANCH  30  32
ENDBRANCH  26  30
ENDBRANCH  23  24
ENDBRANCH  22  23
ENDBRANCH   1  22
TORSDOF 10
ENDMDL
MODEL 4
REMARK VINA RESULT:      -9.0      1.371      2.004
REMARK  10 active torsions:
REMARK  status: ('A' for Active; 'I' for Inactive)
REMARK    1  A    between atoms: O_2  and  C_3 
REMARK    2  A    between atoms: C_3  and  C_4 
REMARK    3  A    between atoms: C_6  and  C_7 
REMARK    4  A    between atoms: C_7  and  C_8 
REMARK    5  A    between atoms: C_8  and  N_9 
REMARK       I    between atoms: N_9  and  C_10 
REMARK       I    between atoms: C_10  and  N_17 
REMARK    6  A    between atoms: N_17  and  CA_18 
REMARK    7  A    between atoms: CA_18  and  C_19 
REMARK    8  A    between atoms: CA_18  and  CB_21 
REMARK    9  A    between atoms: C_19  and  O_20 
REMARK   10  A    between atoms: CB_21  and  CG_22 
ROOT
HETATM    1  N   UNK A   0       5.638  26.551  55.855  1.00  0.00    -0.343 N 
HETATM    2  C   UNK A   0       6.226  26.225  54.660  1.00  0.00     0.316 C 
HETATM    3  O   UNK A   0       7.122  26.865  54.133  1.00  0.00    -0.248 OA
HETATM    4  H   UNK A   0       5.208  25.781  56.346  1.00  0.00     0.164 HD
ATOM      5  N   TRP A   1       5.683  25.073  54.152  1.00  0.00    -0.336 N 
ATOM      6  H   TRP A   1       4.693  25.011  54.354  1.00  0.00     0.164 HD
ENDROOT
BRANCH   5   7
ATOM      7  CA  TRP A   1       6.060  24.571  52.817  1.00  0.00     0.114 C 
BRANCH   7   8
ATOM      8  C   TRP A   1       5.813  25.628  51.720  1.00  0.00     0.189 C 
BRANCH   8   9
ATOM      9  O   TRP A   1       4.563  25.395  51.070  1.00  0.00    -0.399 OA
ATOM     10  H   TRP A   1       4.499  24.426  50.985  1.00  0.00     0.209 HD
ENDBRANCH   8   9
ENDBRANCH   7   8
BRANCH   7  11
ATOM     11  CB  TRP A   1       7.548  24.150  52.789  1.00  0.00     0.068 C 
BRANCH  11  12
ATOM     12  CG  TRP A   1       7.785  22.783  53.364  1.00  0.00    -0.028 A 
ATOM     13  CD2 TRP A   1       8.003  22.456  54.742  1.00  0.00    -0.002 A 
ATOM     14  CE2 TRP A   1       8.150  21.072  54.826  1.00  0.00     0.042 A 
ATOM     15  CE3 TRP A   1       8.077  23.212  55.931  1.00  0.00     0.014 A 
ATOM     16  CZ2 TRP A   1       8.362  20.403  56.037  1.00  0.00     0.030 A 
ATOM     17  NE1 TRP A   1       8.052  20.576  53.547  1.00  0.00    -0.365 N 
ATOM     18  CH2 TRP A   1       8.424  21.175  57.201  1.00  0.00     0.002 A 
ATOM     19  CZ3 TRP A   1       8.286  22.560  57.151  1.00  0.00     0.001 A 
ATOM     20  HE1 TRP A   1       8.131  19.598  53.303  1.00  0.00     0.165 HD
ATOM     21  CD1 TRP A   1       7.830  21.595  52.659  1.00  0.00     0.096 A 
ENDBRANCH  11  12
ENDBRANCH   7  11
ENDBRANCH   5   7
BRANCH   1  22
HETATM   22  C   UNK A   0       6.146  27.646  56.661  1.00  0.00     0.129 C 
BRANCH  22  23
HETATM   23  C   UNK A   0       7.385  27.261  57.475  1.00  0.00     0.058 C 
BRANCH  23  24
HETATM   24  C   UNK A   0       8.364  28.407  57.558  1.00  0.00    -0.056 A 
HETATM   25  C   UNK A   0       8.169  29.449  58.477  1.00  0.00     0.024 A 
HETATM   26  C   UNK A   0       9.095  30.499  58.577  1.00  0.00     0.040 A 
HETATM   27  C   UNK A   0      10.224  30.503  57.748  1.00  0.00     0.017 A 
HETATM   28  C   UNK A   0      10.424  29.466  56.834  1.00  0.00     0.002 A 
HETATM   29  C   UNK A   0       9.501  28.425  56.740  1.00  0.00     0.007 A 
BRANCH  26  30
HETATM   30  C   UNK A   0       8.833  31.573  59.575  1.00  0.00     0.292 C 
HETATM   31  O   UNK A   0       9.308  32.695  59.497  1.00  0.00    -0.259 OA
BRANCH  30  32
HETATM   32  O   UNK A   0       8.004  31.128  60.553  1.00  0.00    -0.323 OA
HETATM   33  C   UNK A   0       7.173  32.145  61.115  1.00  0.00     0.213 C 
ENDBRANCH  30  32
ENDBRANCH  26  30
ENDBRANCH  23  24
ENDBRANCH  22  23
ENDBRANCH   1  22
TORSDOF 10
ENDMDL
MODEL 5
REMARK VINA RESULT:      -8.9      2.163      3.986
REMARK  10 active torsions:
REMARK  status: ('A' for Active; 'I' for Inactive)
REMARK    1  A    between atoms: O_2  and  C_3 
REMARK    2  A    between atoms: C_3  and  C_4 
REMARK    3  A    between atoms: C_6  and  C_7 
REMARK    4  A    between atoms: C_7  and  C_8 
REMARK    5  A    between atoms: C_8  and  N_9 
REMARK       I    between atoms: N_9  and  C_10 
REMARK       I    between atoms: C_10  and  N_17 
REMARK    6  A    between atoms: N_17  and  CA_18 
REMARK    7  A    between atoms: CA_18  and  C_19 
REMARK    8  A    between atoms: CA_18  and  CB_21 
REMARK    9  A    between atoms: C_19  and  O_20 
REMARK   10  A    between atoms: CB_21  and  CG_22 
ROOT
HETATM    1  N   UNK A   0       4.829  30.064  58.070  1.00  0.00    -0.343 N 
HETATM    2  C   UNK A   0       5.705  29.398  57.253  1.00  0.00     0.316 C 
HETATM    3  O   UNK A   0       6.374  29.927  56.379  1.00  0.00    -0.248 OA
HETATM    4  H   UNK A   0       4.639  29.614  58.953  1.00  0.00     0.164 HD
ATOM      5  N   TRP A   1       5.742  28.064  57.568  1.00  0.00    -0.336 N 
ATOM      6  H   TRP A   1       4.830  27.726  57.848  1.00  0.00     0.164 HD
ENDROOT
BRANCH   5   7
ATOM      7  CA  TRP A   1       6.519  27.107  56.759  1.00  0.00     0.114 C 
BRANCH   7   8
ATOM      8  C   TRP A   1       7.893  26.804  57.395  1.00  0.00     0.189 C 
BRANCH   8   9
ATOM      9  O   TRP A   1       7.769  25.805  58.407  1.00  0.00    -0.399 OA
ATOM     10  H   TRP A   1       7.385  25.032  57.954  1.00  0.00     0.209 HD
ENDBRANCH   8   9
ENDBRANCH   7   8
BRANCH   7  11
ATOM     11  CB  TRP A   1       5.742  25.782  56.579  1.00  0.00     0.068 C 
BRANCH  11  12
ATOM     12  CG  TRP A   1       5.989  25.129  55.250  1.00  0.00    -0.028 A 
ATOM     13  CD2 TRP A   1       6.995  24.154  54.946  1.00  0.00    -0.002 A 
ATOM     14  CE2 TRP A   1       6.846  23.803  53.605  1.00  0.00     0.042 A 
ATOM     15  CE3 TRP A   1       8.015  23.528  55.694  1.00  0.00     0.014 A 
ATOM     16  CZ2 TRP A   1       7.660  22.854  52.974  1.00  0.00     0.030 A 
ATOM     17  NE1 TRP A   1       5.808  24.552  53.103  1.00  0.00    -0.365 N 
ATOM     18  CH2 TRP A   1       8.657  22.244  53.740  1.00  0.00     0.002 A 
ATOM     19  CZ3 TRP A   1       8.836  22.576  55.080  1.00  0.00     0.001 A 
ATOM     20  HE1 TRP A   1       5.482  24.512  52.147  1.00  0.00     0.165 HD
ATOM     21  CD1 TRP A   1       5.283  25.351  54.084  1.00  0.00     0.096 A 
ENDBRANCH  11  12
ENDBRANCH   7  11
ENDBRANCH   5   7
BRANCH   1  22
HETATM   22  C   UNK A   0       4.728  31.512  58.032  1.00  0.00     0.129 C 
BRANCH  22  23
HETATM   23  C   UNK A   0       4.824  32.152  59.420  1.00  0.00     0.058 C 
BRANCH  23  24
HETATM   24  C   UNK A   0       6.245  32.148  59.928  1.00  0.00    -0.056 A 
HETATM   25  C   UNK A   0       7.304  31.778  59.085  1.00  0.00     0.024 A 
HETATM   26  C   UNK A   0       8.630  31.804  59.547  1.00  0.00     0.040 A 
HETATM   27  C   UNK A   0       8.893  32.205  60.863  1.00  0.00     0.017 A 
HETATM   28  C   UNK A   0       7.843  32.577  61.704  1.00  0.00     0.002 A 
HETATM   29  C   UNK A   0       6.528  32.550  61.240  1.00  0.00     0.007 A 
BRANCH  26  30
HETATM   30  C   UNK A   0       9.709  31.404  58.603  1.00  0.00     0.292 C 
HETATM   31  O   UNK A   0      10.692  32.091  58.372  1.00  0.00    -0.259 OA
BRANCH  30  32
HETATM   32  O   UNK A   0       9.444  30.191  58.056  1.00  0.00    -0.323 OA
HETATM   33  C   UNK A   0      10.470  29.711  57.186  1.00  0.00     0.213 C 
ENDBRANCH  30  32
ENDBRANCH  26  30
ENDBRANCH  23  24
ENDBRANCH  22  23
ENDBRANCH   1  22
TORSDOF 10
ENDMDL
MODEL 6
REMARK VINA RESULT:      -8.9      3.069      9.381
REMARK  10 active torsions:
REMARK  status: ('A' for Active; 'I' for Inactive)
REMARK    1  A    between atoms: O_2  and  C_3 
REMARK    2  A    between atoms: C_3  and  C_4 
REMARK    3  A    between atoms: C_6  and  C_7 
REMARK    4  A    between atoms: C_7  and  C_8 
REMARK    5  A    between atoms: C_8  and  N_9 
REMARK       I    between atoms: N_9  and  C_10 
REMARK       I    between atoms: C_10  and  N_17 
REMARK    6  A    between atoms: N_17  and  CA_18 
REMARK    7  A    between atoms: CA_18  and  C_19 
REMARK    8  A    between atoms: CA_18  and  CB_21 
REMARK    9  A    between atoms: C_19  and  O_20 
REMARK   10  A    between atoms: CB_21  and  CG_22 
ROOT
HETATM    1  N   UNK A   0       5.144  28.014  57.098  1.00  0.00    -0.343 N 
HETATM    2  C   UNK A   0       4.725  29.315  56.995  1.00  0.00     0.316 C 
HETATM    3  O   UNK A   0       4.521  29.895  55.940  1.00  0.00    -0.248 OA
HETATM    4  H   UNK A   0       4.917  27.557  57.968  1.00  0.00     0.164 HD
ATOM      5  N   TRP A   1       4.548  29.866  58.239  1.00  0.00    -0.336 N 
ATOM      6  H   TRP A   1       5.238  29.522  58.896  1.00  0.00     0.164 HD
ENDROOT
BRANCH   5   7
ATOM      7  CA  TRP A   1       4.214  31.292  58.404  1.00  0.00     0.114 C 
BRANCH   7   8
ATOM      8  C   TRP A   1       3.422  31.546  59.705  1.00  0.00     0.189 C 
BRANCH   8   9
ATOM      9  O   TRP A   1       2.790  30.346  60.150  1.00  0.00    -0.399 OA
ATOM     10  H   TRP A   1       3.169  29.639  59.596  1.00  0.00     0.209 HD
ENDBRANCH   8   9
ENDBRANCH   7   8
BRANCH   7  11
ATOM     11  CB  TRP A   1       5.495  32.158  58.415  1.00  0.00     0.068 C 
BRANCH  11  12
ATOM     12  CG  TRP A   1       6.569  31.613  59.312  1.00  0.00    -0.028 A 
ATOM     13  CD2 TRP A   1       6.902  32.070  60.629  1.00  0.00    -0.002 A 
ATOM     14  CE2 TRP A   1       7.937  31.265  61.102  1.00  0.00     0.042 A 
ATOM     15  CE3 TRP A   1       6.408  33.090  61.469  1.00  0.00     0.014 A 
ATOM     16  CZ2 TRP A   1       8.501  31.422  62.373  1.00  0.00     0.030 A 
ATOM     17  NE1 TRP A   1       8.242  30.369  60.103  1.00  0.00    -0.365 N 
ATOM     18  CH2 TRP A   1       7.988  32.436  63.188  1.00  0.00     0.002 A 
ATOM     19  CZ3 TRP A   1       6.958  33.261  62.744  1.00  0.00     0.001 A 
ATOM     20  HE1 TRP A   1       8.966  29.666  60.165  1.00  0.00     0.165 HD
ATOM     21  CD1 TRP A   1       7.424  30.567  59.023  1.00  0.00     0.096 A 
ENDBRANCH  11  12
ENDBRANCH   7  11
ENDBRANCH   5   7
BRANCH   1  22
HETATM   22  C   UNK A   0       5.255  27.172  55.921  1.00  0.00     0.129 C 
BRANCH  22  23
HETATM   23  C   UNK A   0       5.642  25.728  56.255  1.00  0.00     0.058 C 
BRANCH  23  24
HETATM   24  C   UNK A   0       6.470  25.114  55.152  1.00  0.00    -0.056 A 
HETATM   25  C   UNK A   0       6.876  23.773  55.225  1.00  0.00     0.024 A 
HETATM   26  C   UNK A   0       7.619  23.192  54.186  1.00  0.00     0.040 A 
HETATM   27  C   UNK A   0       7.957  23.962  53.066  1.00  0.00     0.017 A 
HETATM   28  C   UNK A   0       7.553  25.296  52.987  1.00  0.00     0.002 A 
HETATM   29  C   UNK A   0       6.814  25.869  54.022  1.00  0.00     0.007 A 
BRANCH  26  30
HETATM   30  C   UNK A   0       8.016  21.763  54.321  1.00  0.00     0.292 C 
HETATM   31  O   UNK A   0       8.595  21.139  53.446  1.00  0.00    -0.259 OA
BRANCH  30  32
HETATM   32  O   UNK A   0       7.650  21.275  55.534  1.00  0.00    -0.323 OA
HETATM   33  C   UNK A   0       8.639  20.450  56.149  1.00  0.00     0.213 C 
ENDBRANCH  30  32
ENDBRANCH  26  30
ENDBRANCH  23  24
ENDBRANCH  22  23
ENDBRANCH   1  22
TORSDOF 10
ENDMDL
MODEL 7
REMARK VINA RESULT:      -8.9      3.452     10.299
REMARK  10 active torsions:
REMARK  status: ('A' for Active; 'I' for Inactive)
REMARK    1  A    between atoms: O_2  and  C_3 
REMARK    2  A    between atoms: C_3  and  C_4 
REMARK    3  A    between atoms: C_6  and  C_7 
REMARK    4  A    between atoms: C_7  and  C_8 
REMARK    5  A    between atoms: C_8  and  N_9 
REMARK       I    between atoms: N_9  and  C_10 
REMARK       I    between atoms: C_10  and  N_17 
REMARK    6  A    between atoms: N_17  and  CA_18 
REMARK    7  A    between atoms: CA_18  and  C_19 
REMARK    8  A    between atoms: CA_18  and  CB_21 
REMARK    9  A    between atoms: C_19  and  O_20 
REMARK   10  A    between atoms: CB_21  and  CG_22 
ROOT
HETATM    1  N   UNK A   0       7.277  29.016  56.396  1.00  0.00    -0.343 N 
HETATM    2  C   UNK A   0       7.567  29.232  57.719  1.00  0.00     0.316 C 
HETATM    3  O   UNK A   0       8.134  28.428  58.443  1.00  0.00    -0.248 OA
HETATM    4  H   UNK A   0       7.165  29.851  55.839  1.00  0.00     0.164 HD
ATOM      5  N   TRP A   1       7.154  30.481  58.107  1.00  0.00    -0.336 N 
ATOM      6  H   TRP A   1       6.292  30.744  57.646  1.00  0.00     0.164 HD
ENDROOT
BRANCH   5   7
ATOM      7  CA  TRP A   1       7.244  30.915  59.514  1.00  0.00     0.114 C 
BRANCH   7   8
ATOM      8  C   TRP A   1       8.697  30.875  60.032  1.00  0.00     0.189 C 
BRANCH   8   9
ATOM      9  O   TRP A   1       8.813  29.976  61.134  1.00  0.00    -0.399 OA
ATOM     10  H   TRP A   1       7.896  29.734  61.362  1.00  0.00     0.209 HD
ENDBRANCH   8   9
ENDBRANCH   7   8
BRANCH   7  11
ATOM     11  CB  TRP A   1       6.684  32.346  59.683  1.00  0.00     0.068 C 
BRANCH  11  12
ATOM     12  CG  TRP A   1       5.864  32.515  60.930  1.00  0.00    -0.028 A 
ATOM     13  CD2 TRP A   1       6.353  32.775  62.252  1.00  0.00    -0.002 A 
ATOM     14  CE2 TRP A   1       5.248  32.885  63.094  1.00  0.00     0.042 A 
ATOM     15  CE3 TRP A   1       7.640  32.938  62.809  1.00  0.00     0.014 A 
ATOM     16  CZ2 TRP A   1       5.360  33.156  64.463  1.00  0.00     0.030 A 
ATOM     17  NE1 TRP A   1       4.129  32.675  62.322  1.00  0.00    -0.365 N 
ATOM     18  CH2 TRP A   1       6.645  33.320  64.987  1.00  0.00     0.002 A 
ATOM     19  CZ3 TRP A   1       7.771  33.212  64.175  1.00  0.00     0.001 A 
ATOM     20  HE1 TRP A   1       3.181  32.686  62.673  1.00  0.00     0.165 HD
ATOM     21  CD1 TRP A   1       4.487  32.454  61.019  1.00  0.00     0.096 A 
ENDBRANCH  11  12
ENDBRANCH   7  11
ENDBRANCH   5   7
BRANCH   1  22
HETATM   22  C   UNK A   0       7.752  27.827  55.714  1.00  0.00     0.129 C 
BRANCH  22  23
HETATM   23  C   UNK A   0       6.627  26.847  55.370  1.00  0.00     0.058 C 
BRANCH  23  24
HETATM   24  C   UNK A   0       7.125  25.727  54.488  1.00  0.00    -0.056 A 
HETATM   25  C   UNK A   0       7.222  24.418  54.983  1.00  0.00     0.024 A 
HETATM   26  C   UNK A   0       7.655  23.370  54.155  1.00  0.00     0.040 A 
HETATM   27  C   UNK A   0       7.993  23.639  52.823  1.00  0.00     0.017 A 
HETATM   28  C   UNK A   0       7.896  24.940  52.326  1.00  0.00     0.002 A 
HETATM   29  C   UNK A   0       7.464  25.978  53.152  1.00  0.00     0.007 A 
BRANCH  26  30
HETATM   30  C   UNK A   0       7.732  22.002  54.738  1.00  0.00     0.292 C 
HETATM   31  O   UNK A   0       7.674  20.981  54.071  1.00  0.00    -0.259 OA
BRANCH  30  32
HETATM   32  O   UNK A   0       7.879  22.061  56.086  1.00  0.00    -0.323 OA
HETATM   33  C   UNK A   0       8.494  20.904  56.653  1.00  0.00     0.213 C 
ENDBRANCH  30  32
ENDBRANCH  26  30
ENDBRANCH  23  24
ENDBRANCH  22  23
ENDBRANCH   1  22
TORSDOF 10
ENDMDL
MODEL 8
REMARK VINA RESULT:      -8.5      4.089      6.937
REMARK  10 active torsions:
REMARK  status: ('A' for Active; 'I' for Inactive)
REMARK    1  A    between atoms: O_2  and  C_3 
REMARK    2  A    between atoms: C_3  and  C_4 
REMARK    3  A    between atoms: C_6  and  C_7 
REMARK    4  A    between atoms: C_7  and  C_8 
REMARK    5  A    between atoms: C_8  and  N_9 
REMARK       I    between atoms: N_9  and  C_10 
REMARK       I    between atoms: C_10  and  N_17 
REMARK    6  A    between atoms: N_17  and  CA_18 
REMARK    7  A    between atoms: CA_18  and  C_19 
REMARK    8  A    between atoms: CA_18  and  CB_21 
REMARK    9  A    between atoms: C_19  and  O_20 
REMARK   10  A    between atoms: CB_21  and  CG_22 
ROOT
HETATM    1  N   UNK A   0       8.059  30.789  60.712  1.00  0.00    -0.343 N 
HETATM    2  C   UNK A   0       8.275  30.693  59.362  1.00  0.00     0.316 C 
HETATM    3  O   UNK A   0       8.767  31.575  58.675  1.00  0.00    -0.248 OA
HETATM    4  H   UNK A   0       8.011  29.908  61.203  1.00  0.00     0.164 HD
ATOM      5  N   TRP A   1       7.883  29.464  58.895  1.00  0.00    -0.336 N 
ATOM      6  H   TRP A   1       7.060  29.130  59.382  1.00  0.00     0.164 HD
ENDROOT
BRANCH   5   7
ATOM      7  CA  TRP A   1       7.901  29.150  57.455  1.00  0.00     0.114 C 
BRANCH   7   8
ATOM      8  C   TRP A   1       9.337  28.913  56.940  1.00  0.00     0.189 C 
BRANCH   8   9
ATOM      9  O   TRP A   1       9.790  30.035  56.182  1.00  0.00    -0.399 OA
ATOM     10  H   TRP A   1      10.714  30.172  56.461  1.00  0.00     0.209 HD
ENDBRANCH   8   9
ENDBRANCH   7   8
BRANCH   7  11
ATOM     11  CB  TRP A   1       7.042  27.900  57.155  1.00  0.00     0.068 C 
BRANCH  11  12
ATOM     12  CG  TRP A   1       7.050  27.513  55.704  1.00  0.00    -0.028 A 
ATOM     13  CD2 TRP A   1       7.390  26.231  55.158  1.00  0.00    -0.002 A 
ATOM     14  CE2 TRP A   1       7.236  26.311  53.775  1.00  0.00     0.042 A 
ATOM     15  CE3 TRP A   1       7.806  25.004  55.717  1.00  0.00     0.014 A 
ATOM     16  CZ2 TRP A   1       7.468  25.226  52.921  1.00  0.00     0.030 A 
ATOM     17  NE1 TRP A   1       6.842  27.596  53.485  1.00  0.00    -0.365 N 
ATOM     18  CH2 TRP A   1       7.871  24.020  53.502  1.00  0.00     0.002 A 
ATOM     19  CZ3 TRP A   1       8.041  23.909  54.879  1.00  0.00     0.001 A 
ATOM     20  HE1 TRP A   1       6.664  27.945  52.553  1.00  0.00     0.165 HD
ATOM     21  CD1 TRP A   1       6.725  28.328  54.637  1.00  0.00     0.096 A 
ENDBRANCH  11  12
ENDBRANCH   7  11
ENDBRANCH   5   7
BRANCH   1  22
HETATM   22  C   UNK A   0       8.533  31.937  61.463  1.00  0.00     0.129 C 
BRANCH  22  23
HETATM   23  C   UNK A   0       8.177  31.865  62.951  1.00  0.00     0.058 C 
BRANCH  23  24
HETATM   24  C   UNK A   0       7.234  32.978  63.342  1.00  0.00    -0.056 A 
HETATM   25  C   UNK A   0       6.929  33.214  64.691  1.00  0.00     0.024 A 
HETATM   26  C   UNK A   0       6.077  34.268  65.059  1.00  0.00     0.040 A 
HETATM   27  C   UNK A   0       5.530  35.090  64.066  1.00  0.00     0.017 A 
HETATM   28  C   UNK A   0       5.833  34.860  62.722  1.00  0.00     0.002 A 
HETATM   29  C   UNK A   0       6.681  33.813  62.362  1.00  0.00     0.007 A 
BRANCH  26  30
HETATM   30  C   UNK A   0       5.795  34.469  66.507  1.00  0.00     0.292 C 
HETATM   31  O   UNK A   0       4.711  34.825  66.939  1.00  0.00    -0.259 OA
BRANCH  30  32
HETATM   32  O   UNK A   0       6.896  34.197  67.253  1.00  0.00    -0.323 OA
HETATM   33  C   UNK A   0       6.692  34.339  68.660  1.00  0.00     0.213 C 
ENDBRANCH  30  32
ENDBRANCH  26  30
ENDBRANCH  23  24
ENDBRANCH  22  23
ENDBRANCH   1  22
TORSDOF 10
ENDMDL
MODEL 9
REMARK VINA RESULT:      -8.4      2.272      3.373
REMARK  10 active torsions:
REMARK  status: ('A' for Active; 'I' for Inactive)
REMARK    1  A    between atoms: O_2  and  C_3 
REMARK    2  A    between atoms: C_3  and  C_4 
REMARK    3  A    between atoms: C_6  and  C_7 
REMARK    4  A    between atoms: C_7  and  C_8 
REMARK    5  A    between atoms: C_8  and  N_9 
REMARK       I    between atoms: N_9  and  C_10 
REMARK       I    between atoms: C_10  and  N_17 
REMARK    6  A    between atoms: N_17  and  CA_18 
REMARK    7  A    between atoms: CA_18  and  C_19 
REMARK    8  A    between atoms: CA_18  and  CB_21 
REMARK    9  A    between atoms: C_19  and  O_20 
REMARK   10  A    between atoms: CB_21  and  CG_22 
ROOT
HETATM    1  N   UNK A   0       7.674  28.752  56.862  1.00  0.00    -0.343 N 
HETATM    2  C   UNK A   0       6.838  27.737  56.474  1.00  0.00     0.316 C 
HETATM    3  O   UNK A   0       6.068  27.151  57.220  1.00  0.00    -0.248 OA
HETATM    4  H   UNK A   0       7.960  29.379  56.124  1.00  0.00     0.164 HD
ATOM      5  N   TRP A   1       6.971  27.487  55.132  1.00  0.00    -0.336 N 
ATOM      6  H   TRP A   1       7.929  27.606  54.828  1.00  0.00     0.164 HD
ENDROOT
BRANCH   5   7
ATOM      7  CA  TRP A   1       6.268  26.362  54.489  1.00  0.00     0.114 C 
BRANCH   7   8
ATOM      8  C   TRP A   1       5.273  26.849  53.415  1.00  0.00     0.189 C 
BRANCH   8   9
ATOM      9  O   TRP A   1       4.162  25.958  53.317  1.00  0.00    -0.399 OA
ATOM     10  H   TRP A   1       3.393  26.477  53.617  1.00  0.00     0.209 HD
ENDBRANCH   8   9
ENDBRANCH   7   8
BRANCH   7  11
ATOM     11  CB  TRP A   1       7.275  25.385  53.840  1.00  0.00     0.068 C 
BRANCH  11  12
ATOM     12  CG  TRP A   1       7.607  24.211  54.717  1.00  0.00    -0.028 A 
ATOM     13  CD2 TRP A   1       7.842  22.862  54.294  1.00  0.00    -0.002 A 
ATOM     14  CE2 TRP A   1       8.142  22.113  55.431  1.00  0.00     0.042 A 
ATOM     15  CE3 TRP A   1       7.838  22.210  53.042  1.00  0.00     0.014 A 
ATOM     16  CZ2 TRP A   1       8.444  20.747  55.382  1.00  0.00     0.030 A 
ATOM     17  NE1 TRP A   1       8.068  22.965  56.508  1.00  0.00    -0.365 N 
ATOM     18  CH2 TRP A   1       8.440  20.127  54.129  1.00  0.00     0.002 A 
ATOM     19  CZ3 TRP A   1       8.140  20.845  52.974  1.00  0.00     0.001 A 
ATOM     20  HE1 TRP A   1       8.228  22.691  57.467  1.00  0.00     0.165 HD
ATOM     21  CD1 TRP A   1       7.749  24.230  56.091  1.00  0.00     0.096 A 
ENDBRANCH  11  12
ENDBRANCH   7  11
ENDBRANCH   5   7
BRANCH   1  22
HETATM   22  C   UNK A   0       7.606  29.302  58.204  1.00  0.00     0.129 C 
BRANCH  22  23
HETATM   23  C   UNK A   0       8.027  30.773  58.268  1.00  0.00     0.058 C 
BRANCH  23  24
HETATM   24  C   UNK A   0       7.168  31.546  59.240  1.00  0.00    -0.056 A 
HETATM   25  C   UNK A   0       7.537  31.655  60.589  1.00  0.00     0.024 A 
HETATM   26  C   UNK A   0       6.757  32.400  61.487  1.00  0.00     0.040 A 
HETATM   27  C   UNK A   0       5.599  33.041  61.027  1.00  0.00     0.017 A 
HETATM   28  C   UNK A   0       5.230  32.937  59.684  1.00  0.00     0.002 A 
HETATM   29  C   UNK A   0       6.009  32.197  58.796  1.00  0.00     0.007 A 
BRANCH  26  30
HETATM   30  C   UNK A   0       7.204  32.481  62.905  1.00  0.00     0.292 C 
HETATM   31  O   UNK A   0       8.374  32.410  63.247  1.00  0.00    -0.259 OA
BRANCH  30  32
HETATM   32  O   UNK A   0       6.143  32.645  63.735  1.00  0.00    -0.323 OA
HETATM   33  C   UNK A   0       6.394  33.531  64.827  1.00  0.00     0.213 C 
ENDBRANCH  30  32
ENDBRANCH  26  30
ENDBRANCH  23  24
ENDBRANCH  22  23
ENDBRANCH   1  22
TORSDOF 10
ENDMDL
MODEL 10
REMARK VINA RESULT:      -8.4      3.234     10.249
REMARK  10 active torsions:
REMARK  status: ('A' for Active; 'I' for Inactive)
REMARK    1  A    between atoms: O_2  and  C_3 
REMARK    2  A    between atoms: C_3  and  C_4 
REMARK    3  A    between atoms: C_6  and  C_7 
REMARK    4  A    between atoms: C_7  and  C_8 
REMARK    5  A    between atoms: C_8  and  N_9 
REMARK       I    between atoms: N_9  and  C_10 
REMARK       I    between atoms: C_10  and  N_17 
REMARK    6  A    between atoms: N_17  and  CA_18 
REMARK    7  A    between atoms: CA_18  and  C_19 
REMARK    8  A    between atoms: CA_18  and  CB_21 
REMARK    9  A    between atoms: C_19  and  O_20 
REMARK   10  A    between atoms: CB_21  and  CG_22 
ROOT
HETATM    1  N   UNK A   0       5.992  28.594  56.968  1.00  0.00    -0.343 N 
HETATM    2  C   UNK A   0       7.119  29.023  57.622  1.00  0.00     0.316 C 
HETATM    3  O   UNK A   0       8.203  28.464  57.571  1.00  0.00    -0.248 OA
HETATM    4  H   UNK A   0       5.304  29.309  56.785  1.00  0.00     0.164 HD
ATOM      5  N   TRP A   1       6.864  30.176  58.319  1.00  0.00    -0.336 N 
ATOM      6  H   TRP A   1       5.928  30.174  58.705  1.00  0.00     0.164 HD
ENDROOT
BRANCH   5   7
ATOM      7  CA  TRP A   1       7.880  30.777  59.203  1.00  0.00     0.114 C 
BRANCH   7   8
ATOM      8  C   TRP A   1       9.172  31.126  58.433  1.00  0.00     0.189 C 
BRANCH   8   9
ATOM      9  O   TRP A   1       9.726  32.351  58.910  1.00  0.00    -0.399 OA
ATOM     10  H   TRP A   1      10.021  32.159  59.819  1.00  0.00     0.209 HD
ENDBRANCH   8   9
ENDBRANCH   7   8
BRANCH   7  11
ATOM     11  CB  TRP A   1       7.333  32.056  59.878  1.00  0.00     0.068 C 
BRANCH  11  12
ATOM     12  CG  TRP A   1       7.575  32.091  61.360  1.00  0.00    -0.028 A 
ATOM     13  CD2 TRP A   1       7.082  33.065  62.288  1.00  0.00    -0.002 A 
ATOM     14  CE2 TRP A   1       7.525  32.696  63.557  1.00  0.00     0.042 A 
ATOM     15  CE3 TRP A   1       6.287  34.226  62.166  1.00  0.00     0.014 A 
ATOM     16  CZ2 TRP A   1       7.210  33.423  64.712  1.00  0.00     0.030 A 
ATOM     17  NE1 TRP A   1       8.280  31.557  63.407  1.00  0.00    -0.365 N 
ATOM     18  CH2 TRP A   1       6.416  34.563  64.563  1.00  0.00     0.002 A 
ATOM     19  CZ3 TRP A   1       5.961  34.962  63.310  1.00  0.00     0.001 A 
ATOM     20  HE1 TRP A   1       8.739  31.069  64.164  1.00  0.00     0.165 HD
ATOM     21  CD1 TRP A   1       8.315  31.182  62.090  1.00  0.00     0.096 A 
ENDBRANCH  11  12
ENDBRANCH   7  11
ENDBRANCH   5   7
BRANCH   1  22
HETATM   22  C   UNK A   0       6.048  27.479  56.040  1.00  0.00     0.129 C 
BRANCH  22  23
HETATM   23  C   UNK A   0       5.748  26.134  56.707  1.00  0.00     0.058 C 
BRANCH  23  24
HETATM   24  C   UNK A   0       6.844  25.132  56.436  1.00  0.00    -0.056 A 
HETATM   25  C   UNK A   0       6.875  24.414  55.231  1.00  0.00     0.024 A 
HETATM   26  C   UNK A   0       7.911  23.505  54.965  1.00  0.00     0.040 A 
HETATM   27  C   UNK A   0       8.923  23.316  55.914  1.00  0.00     0.017 A 
HETATM   28  C   UNK A   0       8.898  24.031  57.114  1.00  0.00     0.002 A 
HETATM   29  C   UNK A   0       7.867  24.933  57.373  1.00  0.00     0.007 A 
BRANCH  26  30
HETATM   30  C   UNK A   0       7.888  22.777  53.666  1.00  0.00     0.292 C 
HETATM   31  O   UNK A   0       7.193  23.111  52.719  1.00  0.00    -0.259 OA
BRANCH  30  32
HETATM   32  O   UNK A   0       8.738  21.720  53.693  1.00  0.00    -0.323 OA
HETATM   33  C   UNK A   0       8.246  20.564  53.014  1.00  0.00     0.213 C 
ENDBRANCH  30  32
ENDBRANCH  26  30
ENDBRANCH  23  24
ENDBRANCH  22  23
ENDBRANCH   1  22
TORSDOF 10
ENDMDL
