MODEL 1
REMARK VINA RESULT:      -8.8      0.000      0.000
REMARK  6 active torsions:
REMARK  status: ('A' for Active; 'I' for Inactive)
REMARK    1  A    between atoms: C_2  and  N_3 
REMARK    2  A    between atoms: C_10  and  N_11 
REMARK       I    between atoms: N_11  and  C_12 
REMARK       I    between atoms: C_12  and  N_13 
REMARK    3  A    between atoms: N_13  and  C_14 
REMARK    4  A    between atoms: C_14  and  C_15 
REMARK    5  A    between atoms: C_15  and  C_16 
REMARK    6  A    between atoms: C_19  and  O_20 
ROOT
HETATM    1  N   UNL     1       6.433  24.880  52.767  1.00  0.00    -0.307 N 
HETATM    2  C   UNL     1       5.083  25.045  52.651  1.00  0.00     0.320 C 
HETATM    3  N   UNL     1       4.665  25.714  51.536  1.00  0.00    -0.343 N 
HETATM    4  O   UNL     1       4.214  24.619  53.404  1.00  0.00    -0.247 OA
HETATM    5  H   UNL     1       6.988  25.124  51.968  1.00  0.00     0.170 HD
HETATM    6  H   UNL     1       3.654  25.724  51.467  1.00  0.00     0.164 HD
ENDROOT
BRANCH   1   7
HETATM    7  C   UNL     1       7.101  24.144  53.733  1.00  0.00     0.064 A 
HETATM    8  C   UNL     1       7.639  22.816  53.755  1.00  0.00     0.019 A 
HETATM    9  C   UNL     1       8.263  22.644  55.002  1.00  0.00     0.046 A 
HETATM   10  C   UNL     1       7.647  21.717  52.867  1.00  0.00     0.016 A 
HETATM   11  N   UNL     1       8.097  23.820  55.701  1.00  0.00    -0.354 N 
HETATM   12  C   UNL     1       8.906  21.447  55.364  1.00  0.00     0.030 A 
HETATM   13  C   UNL     1       7.350  24.702  54.969  1.00  0.00     0.121 A 
HETATM   14  C   UNL     1       8.906  20.390  54.452  1.00  0.00     0.002 A 
HETATM   15  C   UNL     1       8.281  20.520  53.220  1.00  0.00     0.001 A 
BRANCH  11  16
HETATM   16  C   UNL     1       8.653  24.118  57.011  1.00  0.00     0.124 C 
HETATM   17  C   UNL     1       8.302  25.515  57.486  1.00  0.00     0.027 C 
ENDBRANCH  11  16
ENDBRANCH   1   7
BRANCH   3  18
HETATM   18  C   UNL     1       5.413  26.265  50.418  1.00  0.00     0.129 C 
BRANCH  18  19
HETATM   19  C   UNL     1       4.822  27.548  49.820  1.00  0.00     0.058 C 
BRANCH  19  20
HETATM   20  C   UNL     1       3.680  27.328  48.860  1.00  0.00    -0.057 A 
HETATM   21  C   UNL     1       2.542  28.139  48.901  1.00  0.00     0.010 A 
HETATM   22  C   UNL     1       1.512  27.953  47.975  1.00  0.00     0.037 A 
HETATM   23  C   UNL     1       1.599  26.958  46.999  1.00  0.00     0.068 A 
HETATM   24  C   UNL     1       2.718  26.128  46.972  1.00  0.00     0.037 A 
HETATM   25  C   UNL     1       3.752  26.314  47.895  1.00  0.00     0.010 A 
BRANCH  23  26
HETATM   26  O   UNL     1       0.535  26.897  46.142  1.00  0.00    -0.356 OA
HETATM   27  C   UNL     1      -0.452  27.912  46.284  1.00  0.00     0.210 C 
ENDBRANCH  23  26
ENDBRANCH  19  20
ENDBRANCH  18  19
ENDBRANCH   3  18
TORSDOF 6
ENDMDL
MODEL 2
REMARK VINA RESULT:      -8.6      5.309     10.079
REMARK  6 active torsions:
REMARK  status: ('A' for Active; 'I' for Inactive)
REMARK    1  A    between atoms: C_2  and  N_3 
REMARK    2  A    between atoms: C_10  and  N_11 
REMARK       I    between atoms: N_11  and  C_12 
REMARK       I    between atoms: C_12  and  N_13 
REMARK    3  A    between atoms: N_13  and  C_14 
REMARK    4  A    between atoms: C_14  and  C_15 
REMARK    5  A    between atoms: C_15  and  C_16 
REMARK    6  A    between atoms: C_19  and  O_20 
ROOT
HETATM    1  N   UNL     1       7.795  26.379  56.883  1.00  0.00    -0.307 N 
HETATM    2  C   UNL     1       6.654  27.101  57.084  1.00  0.00     0.320 C 
HETATM    3  N   UNL     1       6.822  28.315  57.686  1.00  0.00    -0.343 N 
HETATM    4  O   UNL     1       5.516  26.803  56.740  1.00  0.00    -0.247 OA
HETATM    5  H   UNL     1       8.663  26.851  57.053  1.00  0.00     0.170 HD
HETATM    6  H   UNL     1       5.953  28.834  57.723  1.00  0.00     0.164 HD
ENDROOT
BRANCH   1   7
HETATM    7  C   UNL     1       7.913  25.181  56.196  1.00  0.00     0.064 A 
HETATM    8  C   UNL     1       7.837  24.836  54.807  1.00  0.00     0.019 A 
HETATM    9  C   UNL     1       8.098  23.460  54.709  1.00  0.00     0.046 A 
HETATM   10  C   UNL     1       7.547  25.531  53.611  1.00  0.00     0.016 A 
HETATM   11  N   UNL     1       8.313  22.997  55.989  1.00  0.00    -0.354 N 
HETATM   12  C   UNL     1       8.110  22.782  53.477  1.00  0.00     0.030 A 
HETATM   13  C   UNL     1       8.144  24.012  56.891  1.00  0.00     0.121 A 
HETATM   14  C   UNL     1       7.835  23.506  52.316  1.00  0.00     0.002 A 
HETATM   15  C   UNL     1       7.553  24.864  52.381  1.00  0.00     0.001 A 
BRANCH  11  16
HETATM   16  C   UNL     1       8.697  21.644  56.352  1.00  0.00     0.124 C 
HETATM   17  C   UNL     1       7.604  20.633  56.059  1.00  0.00     0.027 C 
ENDBRANCH  11  16
ENDBRANCH   1   7
BRANCH   3  18
HETATM   18  C   UNL     1       8.025  28.999  58.132  1.00  0.00     0.129 C 
BRANCH  18  19
HETATM   19  C   UNL     1       7.897  30.524  58.234  1.00  0.00     0.058 C 
BRANCH  19  20
HETATM   20  C   UNL     1       7.972  31.070  59.638  1.00  0.00    -0.057 A 
HETATM   21  C   UNL     1       8.937  30.606  60.537  1.00  0.00     0.010 A 
HETATM   22  C   UNL     1       9.026  31.153  61.819  1.00  0.00     0.037 A 
HETATM   23  C   UNL     1       8.156  32.169  62.224  1.00  0.00     0.068 A 
HETATM   24  C   UNL     1       7.174  32.615  61.342  1.00  0.00     0.037 A 
HETATM   25  C   UNL     1       7.085  32.071  60.057  1.00  0.00     0.010 A 
BRANCH  23  26
HETATM   26  O   UNL     1       8.363  32.632  63.494  1.00  0.00    -0.356 OA
HETATM   27  C   UNL     1       7.220  33.123  64.186  1.00  0.00     0.210 C 
ENDBRANCH  23  26
ENDBRANCH  19  20
ENDBRANCH  18  19
ENDBRANCH   3  18
TORSDOF 6
ENDMDL
MODEL 3
REMARK VINA RESULT:      -8.6      7.128     11.883
REMARK  6 active torsions:
REMARK  status: ('A' for Active; 'I' for Inactive)
REMARK    1  A    between atoms: C_2  and  N_3 
REMARK    2  A    between atoms: C_10  and  N_11 
REMARK       I    between atoms: N_11  and  C_12 
REMARK       I    between atoms: C_12  and  N_13 
REMARK    3  A    between atoms: N_13  and  C_14 
REMARK    4  A    between atoms: C_14  and  C_15 
REMARK    5  A    between atoms: C_15  and  C_16 
REMARK    6  A    between atoms: C_19  and  O_20 
ROOT
HETATM    1  N   UNL     1       7.692  29.346  58.533  1.00  0.00    -0.307 N 
HETATM    2  C   UNL     1       8.860  30.015  58.307  1.00  0.00     0.320 C 
HETATM    3  N   UNL     1       9.445  30.569  59.410  1.00  0.00    -0.343 N 
HETATM    4  O   UNL     1       9.458  30.127  57.244  1.00  0.00    -0.247 OA
HETATM    5  H   UNL     1       7.440  29.189  59.492  1.00  0.00     0.170 HD
HETATM    6  H   UNL     1      10.348  30.971  59.188  1.00  0.00     0.164 HD
ENDROOT
BRANCH   1   7
HETATM    7  C   UNL     1       6.967  28.603  57.615  1.00  0.00     0.064 A 
HETATM    8  C   UNL     1       7.019  27.231  57.205  1.00  0.00     0.019 A 
HETATM    9  C   UNL     1       5.985  27.040  56.273  1.00  0.00     0.046 A 
HETATM   10  C   UNL     1       7.847  26.124  57.494  1.00  0.00     0.016 A 
HETATM   11  N   UNL     1       5.346  28.251  56.125  1.00  0.00    -0.354 N 
HETATM   12  C   UNL     1       5.743  25.796  55.663  1.00  0.00     0.030 A 
HETATM   13  C   UNL     1       5.966  29.207  56.883  1.00  0.00     0.121 A 
HETATM   14  C   UNL     1       6.572  24.722  55.989  1.00  0.00     0.002 A 
HETATM   15  C   UNL     1       7.615  24.883  56.890  1.00  0.00     0.001 A 
BRANCH  11  16
HETATM   16  C   UNL     1       4.163  28.497  55.318  1.00  0.00     0.124 C 
HETATM   17  C   UNL     1       4.503  28.822  53.875  1.00  0.00     0.027 C 
ENDBRANCH  11  16
ENDBRANCH   1   7
BRANCH   3  18
HETATM   18  C   UNL     1       9.052  30.548  60.810  1.00  0.00     0.129 C 
BRANCH  18  19
HETATM   19  C   UNL     1       9.062  31.918  61.500  1.00  0.00     0.058 C 
BRANCH  19  20
HETATM   20  C   UNL     1       7.886  32.173  62.408  1.00  0.00    -0.057 A 
HETATM   21  C   UNL     1       8.044  32.881  63.604  1.00  0.00     0.010 A 
HETATM   22  C   UNL     1       6.938  33.150  64.414  1.00  0.00     0.037 A 
HETATM   23  C   UNL     1       5.660  32.719  64.046  1.00  0.00     0.068 A 
HETATM   24  C   UNL     1       5.502  31.989  62.870  1.00  0.00     0.037 A 
HETATM   25  C   UNL     1       6.607  31.720  62.057  1.00  0.00     0.010 A 
BRANCH  23  26
HETATM   26  O   UNL     1       4.663  33.068  64.915  1.00  0.00    -0.356 OA
HETATM   27  C   UNL     1       5.007  33.997  65.936  1.00  0.00     0.210 C 
ENDBRANCH  23  26
ENDBRANCH  19  20
ENDBRANCH  18  19
ENDBRANCH   3  18
TORSDOF 6
ENDMDL
MODEL 4
REMARK VINA RESULT:      -8.6      0.704      2.624
REMARK  6 active torsions:
REMARK  status: ('A' for Active; 'I' for Inactive)
REMARK    1  A    between atoms: C_2  and  N_3 
REMARK    2  A    between atoms: C_10  and  N_11 
REMARK       I    between atoms: N_11  and  C_12 
REMARK       I    between atoms: C_12  and  N_13 
REMARK    3  A    between atoms: N_13  and  C_14 
REMARK    4  A    between atoms: C_14  and  C_15 
REMARK    5  A    between atoms: C_15  and  C_16 
REMARK    6  A    between atoms: C_19  and  O_20 
ROOT
HETATM    1  N   UNL     1       6.446  25.058  52.470  1.00  0.00    -0.307 N 
HETATM    2  C   UNL     1       5.091  25.220  52.469  1.00  0.00     0.320 C 
HETATM    3  N   UNL     1       4.578  25.896  51.399  1.00  0.00    -0.343 N 
HETATM    4  O   UNL     1       4.290  24.784  53.288  1.00  0.00    -0.247 OA
HETATM    5  H   UNL     1       6.931  25.312  51.629  1.00  0.00     0.170 HD
HETATM    6  H   UNL     1       3.565  25.903  51.416  1.00  0.00     0.164 HD
ENDROOT
BRANCH   1   7
HETATM    7  C   UNL     1       7.196  24.317  53.369  1.00  0.00     0.064 A 
HETATM    8  C   UNL     1       7.623  24.550  54.717  1.00  0.00     0.019 A 
HETATM    9  C   UNL     1       8.316  23.402  55.135  1.00  0.00     0.046 A 
HETATM   10  C   UNL     1       7.527  25.622  55.632  1.00  0.00     0.016 A 
HETATM   11  N   UNL     1       8.311  22.520  54.076  1.00  0.00    -0.354 N 
HETATM   12  C   UNL     1       8.872  23.286  56.421  1.00  0.00     0.030 A 
HETATM   13  C   UNL     1       7.694  23.086  52.994  1.00  0.00     0.121 A 
HETATM   14  C   UNL     1       8.741  24.360  57.302  1.00  0.00     0.002 A 
HETATM   15  C   UNL     1       8.081  25.517  56.913  1.00  0.00     0.001 A 
BRANCH  11  16
HETATM   16  C   UNL     1       8.847  21.169  54.091  1.00  0.00     0.124 C 
HETATM   17  C   UNL     1       8.455  20.377  52.858  1.00  0.00     0.027 C 
ENDBRANCH  11  16
ENDBRANCH   1   7
BRANCH   3  18
HETATM   18  C   UNL     1       5.228  26.460  50.227  1.00  0.00     0.129 C 
BRANCH  18  19
HETATM   19  C   UNL     1       4.574  27.736  49.682  1.00  0.00     0.058 C 
BRANCH  19  20
HETATM   20  C   UNL     1       3.444  27.499  48.712  1.00  0.00    -0.057 A 
HETATM   21  C   UNL     1       2.369  28.389  48.632  1.00  0.00     0.010 A 
HETATM   22  C   UNL     1       1.351  28.182  47.696  1.00  0.00     0.037 A 
HETATM   23  C   UNL     1       1.391  27.088  46.828  1.00  0.00     0.068 A 
HETATM   24  C   UNL     1       2.446  26.183  46.923  1.00  0.00     0.037 A 
HETATM   25  C   UNL     1       3.466  26.389  47.857  1.00  0.00     0.010 A 
BRANCH  23  26
HETATM   26  O   UNL     1       0.347  27.015  45.947  1.00  0.00    -0.356 OA
HETATM   27  C   UNL     1      -0.749  27.889  46.188  1.00  0.00     0.210 C 
ENDBRANCH  23  26
ENDBRANCH  19  20
ENDBRANCH  18  19
ENDBRANCH   3  18
TORSDOF 6
ENDMDL
MODEL 5
REMARK VINA RESULT:      -8.3      5.394      9.266
REMARK  6 active torsions:
REMARK  status: ('A' for Active; 'I' for Inactive)
REMARK    1  A    between atoms: C_2  and  N_3 
REMARK    2  A    between atoms: C_10  and  N_11 
REMARK       I    between atoms: N_11  and  C_12 
REMARK       I    between atoms: C_12  and  N_13 
REMARK    3  A    between atoms: N_13  and  C_14 
REMARK    4  A    between atoms: C_14  and  C_15 
REMARK    5  A    between atoms: C_15  and  C_16 
REMARK    6  A    between atoms: C_19  and  O_20 
ROOT
HETATM    1  N   UNL     1       7.449  29.340  56.840  1.00  0.00    -0.307 N 
HETATM    2  C   UNL     1       8.439  29.298  55.902  1.00  0.00     0.320 C 
HETATM    3  N   UNL     1       8.179  28.528  54.804  1.00  0.00    -0.343 N 
HETATM    4  O   UNL     1       9.501  29.910  55.914  1.00  0.00    -0.247 OA
HETATM    5  H   UNL     1       6.569  28.932  56.586  1.00  0.00     0.170 HD
HETATM    6  H   UNL     1       8.913  28.612  54.110  1.00  0.00     0.164 HD
ENDROOT
BRANCH   1   7
HETATM    7  C   UNL     1       7.413  30.131  57.978  1.00  0.00     0.064 A 
HETATM    8  C   UNL     1       6.567  31.209  58.396  1.00  0.00     0.019 A 
HETATM    9  C   UNL     1       6.980  31.582  59.686  1.00  0.00     0.046 A 
HETATM   10  C   UNL     1       5.507  31.940  57.816  1.00  0.00     0.016 A 
HETATM   11  N   UNL     1       8.037  30.764  60.023  1.00  0.00    -0.354 N 
HETATM   12  C   UNL     1       6.358  32.616  60.406  1.00  0.00     0.030 A 
HETATM   13  C   UNL     1       8.341  29.932  58.980  1.00  0.00     0.121 A 
HETATM   14  C   UNL     1       5.302  33.303  59.806  1.00  0.00     0.002 A 
HETATM   15  C   UNL     1       4.883  32.974  58.524  1.00  0.00     0.001 A 
BRANCH  11  16
HETATM   16  C   UNL     1       8.725  30.745  61.303  1.00  0.00     0.124 C 
HETATM   17  C   UNL     1       9.774  31.835  61.414  1.00  0.00     0.027 C 
ENDBRANCH  11  16
ENDBRANCH   1   7
BRANCH   3  18
HETATM   18  C   UNL     1       7.004  27.754  54.440  1.00  0.00     0.129 C 
BRANCH  18  19
HETATM   19  C   UNL     1       7.177  26.868  53.199  1.00  0.00     0.058 C 
BRANCH  19  20
HETATM   20  C   UNL     1       7.337  25.398  53.492  1.00  0.00    -0.057 A 
HETATM   21  C   UNL     1       7.882  24.532  52.539  1.00  0.00     0.010 A 
HETATM   22  C   UNL     1       8.067  23.180  52.841  1.00  0.00     0.037 A 
HETATM   23  C   UNL     1       7.711  22.672  54.093  1.00  0.00     0.068 A 
HETATM   24  C   UNL     1       7.141  23.525  55.035  1.00  0.00     0.037 A 
HETATM   25  C   UNL     1       6.957  24.879  54.737  1.00  0.00     0.010 A 
BRANCH  23  26
HETATM   26  O   UNL     1       7.965  21.339  54.267  1.00  0.00    -0.356 OA
HETATM   27  C   UNL     1       7.911  20.526  53.100  1.00  0.00     0.210 C 
ENDBRANCH  23  26
ENDBRANCH  19  20
ENDBRANCH  18  19
ENDBRANCH   3  18
TORSDOF 6
ENDMDL
MODEL 6
REMARK VINA RESULT:      -8.3      5.588      9.474
REMARK  6 active torsions:
REMARK  status: ('A' for Active; 'I' for Inactive)
REMARK    1  A    between atoms: C_2  and  N_3 
REMARK    2  A    between atoms: C_10  and  N_11 
REMARK       I    between atoms: N_11  and  C_12 
REMARK       I    between atoms: C_12  and  N_13 
REMARK    3  A    between atoms: N_13  and  C_14 
REMARK    4  A    between atoms: C_14  and  C_15 
REMARK    5  A    between atoms: C_15  and  C_16 
REMARK    6  A    between atoms: C_19  and  O_20 
ROOT
HETATM    1  N   UNL     1       7.280  29.567  57.152  1.00  0.00    -0.307 N 
HETATM    2  C   UNL     1       8.391  29.458  56.368  1.00  0.00     0.320 C 
HETATM    3  N   UNL     1       8.331  28.507  55.389  1.00  0.00    -0.343 N 
HETATM    4  O   UNL     1       9.404  30.146  56.414  1.00  0.00    -0.247 OA
HETATM    5  H   UNL     1       6.468  29.056  56.858  1.00  0.00     0.170 HD
HETATM    6  H   UNL     1       9.147  28.539  54.790  1.00  0.00     0.164 HD
ENDROOT
BRANCH   1   7
HETATM    7  C   UNL     1       7.040  30.520  58.129  1.00  0.00     0.064 A 
HETATM    8  C   UNL     1       7.741  30.900  59.320  1.00  0.00     0.019 A 
HETATM    9  C   UNL     1       7.042  31.982  59.883  1.00  0.00     0.046 A 
HETATM   10  C   UNL     1       8.880  30.432  60.011  1.00  0.00     0.016 A 
HETATM   11  N   UNL     1       5.962  32.233  59.065  1.00  0.00    -0.354 N 
HETATM   12  C   UNL     1       7.460  32.613  61.068  1.00  0.00     0.030 A 
HETATM   13  C   UNL     1       5.921  31.323  58.044  1.00  0.00     0.121 A 
HETATM   14  C   UNL     1       8.600  32.132  61.712  1.00  0.00     0.002 A 
HETATM   15  C   UNL     1       9.301  31.052  61.194  1.00  0.00     0.001 A 
BRANCH  11  16
HETATM   16  C   UNL     1       5.011  33.321  59.221  1.00  0.00     0.124 C 
HETATM   17  C   UNL     1       3.825  32.934  60.084  1.00  0.00     0.027 C 
ENDBRANCH  11  16
ENDBRANCH   1   7
BRANCH   3  18
HETATM   18  C   UNL     1       7.264  27.595  55.011  1.00  0.00     0.129 C 
BRANCH  18  19
HETATM   19  C   UNL     1       7.463  26.899  53.658  1.00  0.00     0.058 C 
BRANCH  19  20
HETATM   20  C   UNL     1       7.562  25.397  53.730  1.00  0.00    -0.057 A 
HETATM   21  C   UNL     1       7.359  24.722  54.939  1.00  0.00     0.010 A 
HETATM   22  C   UNL     1       7.408  23.326  54.983  1.00  0.00     0.037 A 
HETATM   23  C   UNL     1       7.660  22.583  53.826  1.00  0.00     0.068 A 
HETATM   24  C   UNL     1       7.891  23.252  52.626  1.00  0.00     0.037 A 
HETATM   25  C   UNL     1       7.840  24.648  52.579  1.00  0.00     0.010 A 
BRANCH  23  26
HETATM   26  O   UNL     1       7.658  21.227  54.002  1.00  0.00    -0.356 OA
HETATM   27  C   UNL     1       8.512  20.475  53.147  1.00  0.00     0.210 C 
ENDBRANCH  23  26
ENDBRANCH  19  20
ENDBRANCH  18  19
ENDBRANCH   3  18
TORSDOF 6
ENDMDL
MODEL 7
REMARK VINA RESULT:      -8.2      5.895     10.598
REMARK  6 active torsions:
REMARK  status: ('A' for Active; 'I' for Inactive)
REMARK    1  A    between atoms: C_2  and  N_3 
REMARK    2  A    between atoms: C_10  and  N_11 
REMARK       I    between atoms: N_11  and  C_12 
REMARK       I    between atoms: C_12  and  N_13 
REMARK    3  A    between atoms: N_13  and  C_14 
REMARK    4  A    between atoms: C_14  and  C_15 
REMARK    5  A    between atoms: C_15  and  C_16 
REMARK    6  A    between atoms: C_19  and  O_20 
ROOT
HETATM    1  N   UNL     1       8.026  27.852  56.995  1.00  0.00    -0.307 N 
HETATM    2  C   UNL     1       7.119  28.644  57.637  1.00  0.00     0.320 C 
HETATM    3  N   UNL     1       7.644  29.695  58.335  1.00  0.00    -0.343 N 
HETATM    4  O   UNL     1       5.898  28.545  57.614  1.00  0.00    -0.247 OA
HETATM    5  H   UNL     1       8.973  28.183  56.963  1.00  0.00     0.170 HD
HETATM    6  H   UNL     1       6.916  30.290  58.711  1.00  0.00     0.164 HD
ENDROOT
BRANCH   1   7
HETATM    7  C   UNL     1       7.752  26.802  56.133  1.00  0.00     0.064 A 
HETATM    8  C   UNL     1       7.886  25.380  56.246  1.00  0.00     0.019 A 
HETATM    9  C   UNL     1       7.386  24.822  55.058  1.00  0.00     0.046 A 
HETATM   10  C   UNL     1       8.406  24.491  57.214  1.00  0.00     0.016 A 
HETATM   11  N   UNL     1       6.976  25.869  54.262  1.00  0.00    -0.354 N 
HETATM   12  C   UNL     1       7.360  23.434  54.830  1.00  0.00     0.030 A 
HETATM   13  C   UNL     1       7.247  27.062  54.876  1.00  0.00     0.121 A 
HETATM   14  C   UNL     1       7.866  22.588  55.818  1.00  0.00     0.002 A 
HETATM   15  C   UNL     1       8.387  23.109  56.994  1.00  0.00     0.001 A 
BRANCH  11  16
HETATM   16  C   UNL     1       6.318  25.751  52.971  1.00  0.00     0.124 C 
HETATM   17  C   UNL     1       4.886  25.267  53.093  1.00  0.00     0.027 C 
ENDBRANCH  11  16
ENDBRANCH   1   7
BRANCH   3  18
HETATM   18  C   UNL     1       9.018  30.142  58.493  1.00  0.00     0.129 C 
BRANCH  18  19
HETATM   19  C   UNL     1       9.170  31.589  58.982  1.00  0.00     0.058 C 
BRANCH  19  20
HETATM   20  C   UNL     1       8.423  31.905  60.253  1.00  0.00    -0.057 A 
HETATM   21  C   UNL     1       9.041  31.768  61.500  1.00  0.00     0.010 A 
HETATM   22  C   UNL     1       8.353  32.109  62.668  1.00  0.00     0.037 A 
HETATM   23  C   UNL     1       7.042  32.590  62.610  1.00  0.00     0.068 A 
HETATM   24  C   UNL     1       6.413  32.702  61.372  1.00  0.00     0.037 A 
HETATM   25  C   UNL     1       7.100  32.364  60.202  1.00  0.00     0.010 A 
BRANCH  23  26
HETATM   26  O   UNL     1       6.492  32.908  63.821  1.00  0.00    -0.356 OA
HETATM   27  C   UNL     1       7.370  33.470  64.789  1.00  0.00     0.210 C 
ENDBRANCH  23  26
ENDBRANCH  19  20
ENDBRANCH  18  19
ENDBRANCH   3  18
TORSDOF 6
ENDMDL
MODEL 8
REMARK VINA RESULT:      -8.1      7.032     10.858
REMARK  6 active torsions:
REMARK  status: ('A' for Active; 'I' for Inactive)
REMARK    1  A    between atoms: C_2  and  N_3 
REMARK    2  A    between atoms: C_10  and  N_11 
REMARK       I    between atoms: N_11  and  C_12 
REMARK       I    between atoms: C_12  and  N_13 
REMARK    3  A    between atoms: N_13  and  C_14 
REMARK    4  A    between atoms: C_14  and  C_15 
REMARK    5  A    between atoms: C_15  and  C_16 
REMARK    6  A    between atoms: C_19  and  O_20 
ROOT
HETATM    1  N   UNL     1       8.166  30.995  59.151  1.00  0.00    -0.307 N 
HETATM    2  C   UNL     1       9.387  31.319  58.633  1.00  0.00     0.320 C 
HETATM    3  N   UNL     1       9.930  30.397  57.784  1.00  0.00    -0.343 N 
HETATM    4  O   UNL     1      10.016  32.356  58.806  1.00  0.00    -0.247 OA
HETATM    5  H   UNL     1       7.707  30.194  58.758  1.00  0.00     0.170 HD
HETATM    6  H   UNL     1      10.789  30.737  57.369  1.00  0.00     0.164 HD
ENDROOT
BRANCH   1   7
HETATM    7  C   UNL     1       7.355  31.800  59.936  1.00  0.00     0.064 A 
HETATM    8  C   UNL     1       7.446  32.259  61.290  1.00  0.00     0.019 A 
HETATM    9  C   UNL     1       6.346  33.104  61.514  1.00  0.00     0.046 A 
HETATM   10  C   UNL     1       8.324  32.033  62.374  1.00  0.00     0.016 A 
HETATM   11  N   UNL     1       5.622  33.143  60.343  1.00  0.00    -0.354 N 
HETATM   12  C   UNL     1       6.124  33.739  62.749  1.00  0.00     0.030 A 
HETATM   13  C   UNL     1       6.188  32.316  59.411  1.00  0.00     0.121 A 
HETATM   14  C   UNL     1       7.024  33.504  63.789  1.00  0.00     0.002 A 
HETATM   15  C   UNL     1       8.109  32.658  63.607  1.00  0.00     0.001 A 
BRANCH  11  16
HETATM   16  C   UNL     1       4.445  33.959  60.095  1.00  0.00     0.124 C 
HETATM   17  C   UNL     1       3.974  33.877  58.656  1.00  0.00     0.027 C 
ENDBRANCH  11  16
ENDBRANCH   1   7
BRANCH   3  18
HETATM   18  C   UNL     1       9.417  29.124  57.305  1.00  0.00     0.129 C 
BRANCH  18  19
HETATM   19  C   UNL     1       8.487  29.225  56.088  1.00  0.00     0.058 C 
BRANCH  19  20
HETATM   20  C   UNL     1       7.926  27.908  55.614  1.00  0.00    -0.057 A 
HETATM   21  C   UNL     1       7.641  27.695  54.262  1.00  0.00     0.010 A 
HETATM   22  C   UNL     1       7.164  26.455  53.830  1.00  0.00     0.037 A 
HETATM   23  C   UNL     1       6.965  25.410  54.736  1.00  0.00     0.068 A 
HETATM   24  C   UNL     1       7.220  25.626  56.089  1.00  0.00     0.037 A 
HETATM   25  C   UNL     1       7.699  26.866  56.524  1.00  0.00     0.010 A 
BRANCH  23  26
HETATM   26  O   UNL     1       6.518  24.243  54.181  1.00  0.00    -0.356 OA
HETATM   27  C   UNL     1       7.157  23.826  52.980  1.00  0.00     0.210 C 
ENDBRANCH  23  26
ENDBRANCH  19  20
ENDBRANCH  18  19
ENDBRANCH   3  18
TORSDOF 6
ENDMDL
MODEL 9
REMARK VINA RESULT:      -7.8      7.911     12.524
REMARK  6 active torsions:
REMARK  status: ('A' for Active; 'I' for Inactive)
REMARK    1  A    between atoms: C_2  and  N_3 
REMARK    2  A    between atoms: C_10  and  N_11 
REMARK       I    between atoms: N_11  and  C_12 
REMARK       I    between atoms: C_12  and  N_13 
REMARK    3  A    between atoms: N_13  and  C_14 
REMARK    4  A    between atoms: C_14  and  C_15 
REMARK    5  A    between atoms: C_15  and  C_16 
REMARK    6  A    between atoms: C_19  and  O_20 
ROOT
HETATM    1  N   UNL     1       7.330  30.317  58.959  1.00  0.00    -0.307 N 
HETATM    2  C   UNL     1       8.688  30.300  58.825  1.00  0.00     0.320 C 
HETATM    3  N   UNL     1       9.396  30.492  59.977  1.00  0.00    -0.343 N 
HETATM    4  O   UNL     1       9.331  30.085  57.804  1.00  0.00    -0.247 OA
HETATM    5  H   UNL     1       6.969  30.317  59.895  1.00  0.00     0.170 HD
HETATM    6  H   UNL     1      10.391  30.379  59.823  1.00  0.00     0.164 HD
ENDROOT
BRANCH   1   7
HETATM    7  C   UNL     1       6.392  30.034  57.978  1.00  0.00     0.064 A 
HETATM    8  C   UNL     1       6.166  28.897  57.137  1.00  0.00     0.019 A 
HETATM    9  C   UNL     1       5.019  29.169  56.373  1.00  0.00     0.046 A 
HETATM   10  C   UNL     1       6.822  27.666  56.909  1.00  0.00     0.016 A 
HETATM   11  N   UNL     1       4.581  30.424  56.737  1.00  0.00    -0.354 N 
HETATM   12  C   UNL     1       4.503  28.256  55.436  1.00  0.00     0.030 A 
HETATM   13  C   UNL     1       5.434  30.973  57.656  1.00  0.00     0.121 A 
HETATM   14  C   UNL     1       5.170  27.044  55.253  1.00  0.00     0.002 A 
HETATM   15  C   UNL     1       6.318  26.752  55.976  1.00  0.00     0.001 A 
BRANCH  11  16
HETATM   16  C   UNL     1       3.375  31.078  56.257  1.00  0.00     0.124 C 
HETATM   17  C   UNL     1       3.654  32.443  55.658  1.00  0.00     0.027 C 
ENDBRANCH  11  16
ENDBRANCH   1   7
BRANCH   3  18
HETATM   18  C   UNL     1       8.953  30.685  61.348  1.00  0.00     0.129 C 
BRANCH  18  19
HETATM   19  C   UNL     1       8.897  32.148  61.804  1.00  0.00     0.058 C 
BRANCH  19  20
HETATM   20  C   UNL     1       7.739  32.482  62.710  1.00  0.00    -0.057 A 
HETATM   21  C   UNL     1       6.424  32.206  62.322  1.00  0.00     0.010 A 
HETATM   22  C   UNL     1       5.362  32.478  63.190  1.00  0.00     0.037 A 
HETATM   23  C   UNL     1       5.595  33.028  64.453  1.00  0.00     0.068 A 
HETATM   24  C   UNL     1       6.901  33.331  64.832  1.00  0.00     0.037 A 
HETATM   25  C   UNL     1       7.965  33.058  63.967  1.00  0.00     0.010 A 
BRANCH  23  26
HETATM   26  O   UNL     1       4.474  33.224  65.211  1.00  0.00    -0.356 OA
HETATM   27  C   UNL     1       3.699  34.379  64.912  1.00  0.00     0.210 C 
ENDBRANCH  23  26
ENDBRANCH  19  20
ENDBRANCH  18  19
ENDBRANCH   3  18
TORSDOF 6
ENDMDL
MODEL 10
REMARK VINA RESULT:      -7.6      1.936      3.503
REMARK  6 active torsions:
REMARK  status: ('A' for Active; 'I' for Inactive)
REMARK    1  A    between atoms: C_2  and  N_3 
REMARK    2  A    between atoms: C_10  and  N_11 
REMARK       I    between atoms: N_11  and  C_12 
REMARK       I    between atoms: C_12  and  N_13 
REMARK    3  A    between atoms: N_13  and  C_14 
REMARK    4  A    between atoms: C_14  and  C_15 
REMARK    5  A    between atoms: C_15  and  C_16 
REMARK    6  A    between atoms: C_19  and  O_20 
ROOT
HETATM    1  N   UNL     1       6.423  25.171  52.474  1.00  0.00    -0.307 N 
HETATM    2  C   UNL     1       5.064  25.274  52.397  1.00  0.00     0.320 C 
HETATM    3  N   UNL     1       4.586  25.975  51.327  1.00  0.00    -0.343 N 
HETATM    4  O   UNL     1       4.237  24.768  53.146  1.00  0.00    -0.247 OA
HETATM    5  H   UNL     1       6.946  25.482  51.677  1.00  0.00     0.170 HD
HETATM    6  H   UNL     1       3.575  25.938  51.281  1.00  0.00     0.164 HD
ENDROOT
BRANCH   1   7
HETATM    7  C   UNL     1       7.151  24.422  53.386  1.00  0.00     0.064 A 
HETATM    8  C   UNL     1       7.584  24.665  54.730  1.00  0.00     0.019 A 
HETATM    9  C   UNL     1       8.243  23.504  55.168  1.00  0.00     0.046 A 
HETATM   10  C   UNL     1       7.521  25.755  55.627  1.00  0.00     0.016 A 
HETATM   11  N   UNL     1       8.212  22.606  54.124  1.00  0.00    -0.354 N 
HETATM   12  C   UNL     1       8.796  23.393  56.456  1.00  0.00     0.030 A 
HETATM   13  C   UNL     1       7.612  23.171  53.032  1.00  0.00     0.121 A 
HETATM   14  C   UNL     1       8.697  24.485  57.319  1.00  0.00     0.002 A 
HETATM   15  C   UNL     1       8.072  25.654  56.910  1.00  0.00     0.001 A 
BRANCH  11  16
HETATM   16  C   UNL     1       8.707  21.240  54.162  1.00  0.00     0.124 C 
HETATM   17  C   UNL     1       8.417  20.482  52.880  1.00  0.00     0.027 C 
ENDBRANCH  11  16
ENDBRANCH   1   7
BRANCH   3  18
HETATM   18  C   UNL     1       5.279  26.618  50.222  1.00  0.00     0.129 C 
BRANCH  18  19
HETATM   19  C   UNL     1       4.499  26.641  48.902  1.00  0.00     0.058 C 
BRANCH  19  20
HETATM   20  C   UNL     1       4.058  28.012  48.454  1.00  0.00    -0.057 A 
HETATM   21  C   UNL     1       4.782  28.717  47.487  1.00  0.00     0.010 A 
HETATM   22  C   UNL     1       4.338  29.967  47.048  1.00  0.00     0.037 A 
HETATM   23  C   UNL     1       3.168  30.531  47.564  1.00  0.00     0.068 A 
HETATM   24  C   UNL     1       2.459  29.845  48.547  1.00  0.00     0.037 A 
HETATM   25  C   UNL     1       2.900  28.593  48.987  1.00  0.00     0.010 A 
BRANCH  23  26
HETATM   26  O   UNL     1       2.832  31.746  47.033  1.00  0.00    -0.356 OA
HETATM   27  C   UNL     1       3.597  32.863  47.472  1.00  0.00     0.210 C 
ENDBRANCH  23  26
ENDBRANCH  19  20
ENDBRANCH  18  19
ENDBRANCH   3  18
TORSDOF 6
ENDMDL
