MODEL 1
REMARK VINA RESULT:      -9.7      0.000      0.000
REMARK  9 active torsions:
REMARK  status: ('A' for Active; 'I' for Inactive)
REMARK    1  A    between atoms: C_2  and  C_3 
REMARK    2  A    between atoms: C_3  and  C_4 
REMARK    3  A    between atoms: C_4  and  N_5 
REMARK    4  A    between atoms: C_9  and  C_10 
REMARK    5  A    between atoms: C_13  and  C_14 
REMARK    6  A    between atoms: C_14  and  O_15 
REMARK    7  A    between atoms: C_20  and  C_21 
REMARK       I    between atoms: C_21  and  N_22 
REMARK    8  A    between atoms: N_22  and  C_23 
REMARK    9  A    between atoms: C_24  and  O_25 
ROOT
HETATM    1  N   UNL     1       5.758  27.240  54.070  1.00  0.00    -0.303 N 
HETATM    2  C   UNL     1       6.588  28.191  53.481  1.00  0.00     0.323 C 
HETATM    3  O   UNL     1       6.279  28.875  52.508  1.00  0.00    -0.247 OA
HETATM    4  N   UNL     1       7.834  28.325  54.004  1.00  0.00    -0.330 N 
HETATM    5  C   UNL     1       8.290  27.751  55.245  1.00  0.00     0.160 C 
HETATM    6  C   UNL     1       7.406  26.609  55.657  1.00  0.00     0.059 C 
HETATM    7  C   UNL     1       6.149  26.473  55.181  1.00  0.00     0.026 C 
HETATM    8  C   UNL     1       5.133  25.545  55.810  1.00  0.00     0.069 C 
HETATM    9  H   UNL     1       8.376  29.069  53.588  1.00  0.00     0.165 HD
ENDROOT
BRANCH   6  10
HETATM   10  C   UNL     1       8.013  25.701  56.671  1.00  0.00     0.256 C 
HETATM   11  N   UNL     1       8.275  24.391  56.395  1.00  0.00    -0.321 N 
HETATM   12  H   UNL     1       8.440  23.853  57.243  1.00  0.00     0.169 HD
HETATM   13  O   UNL     1       8.274  26.122  57.798  1.00  0.00    -0.267 OA
BRANCH  11  14
HETATM   14  C   UNL     1       8.209  23.612  55.225  1.00  0.00     0.068 A 
HETATM   15  C   UNL     1       8.173  22.217  55.403  1.00  0.00     0.095 A 
HETATM   16  C   UNL     1       8.037  21.358  54.313  1.00  0.00     0.039 A 
HETATM   17  C   UNL     1       7.928  21.889  53.029  1.00  0.00     0.003 A 
HETATM   18  C   UNL     1       7.993  23.270  52.839  1.00  0.00     0.002 A 
HETATM   19  C   UNL     1       8.148  24.130  53.932  1.00  0.00     0.032 A 
BRANCH  15  20
HETATM   20  O   UNL     1       8.284  21.728  56.684  1.00  0.00    -0.354 OA
HETATM   21  C   UNL     1       8.828  20.408  56.698  1.00  0.00     0.210 C 
ENDBRANCH  15  20
ENDBRANCH  11  14
ENDBRANCH   6  10
BRANCH   5  22
HETATM   22  C   UNL     1       8.398  28.838  56.312  1.00  0.00    -0.031 A 
HETATM   23  C   UNL     1       7.254  29.387  56.916  1.00  0.00     0.010 A 
HETATM   24  C   UNL     1       7.370  30.294  57.974  1.00  0.00     0.018 A 
HETATM   25  C   UNL     1       8.631  30.678  58.442  1.00  0.00     0.039 A 
HETATM   26  C   UNL     1       9.777  30.175  57.813  1.00  0.00     0.018 A 
HETATM   27  C   UNL     1       9.659  29.265  56.757  1.00  0.00     0.010 A 
BRANCH  25  28
HETATM   28  C   UNL     1       8.698  31.583  59.623  1.00  0.00     0.292 C 
HETATM   29  O   UNL     1       9.182  32.703  59.586  1.00  0.00    -0.259 OA
BRANCH  28  30
HETATM   30  O   UNL     1       8.125  31.003  60.708  1.00  0.00    -0.323 OA
HETATM   31  C   UNL     1       9.020  30.808  61.802  1.00  0.00     0.213 C 
ENDBRANCH  28  30
ENDBRANCH  25  28
ENDBRANCH   5  22
BRANCH   1  32
HETATM   32  C   UNL     1       4.539  26.908  53.320  1.00  0.00     0.133 C 
BRANCH  32  33
HETATM   33  C   UNL     1       4.585  25.561  52.600  1.00  0.00     0.020 C 
BRANCH  33  34
HETATM   34  C   UNL     1       5.507  25.655  51.380  1.00  0.00    -0.003 C 
HETATM   35  C   UNL     1       4.891  26.474  50.260  1.00  0.00     0.005 C 
ENDBRANCH  33  34
ENDBRANCH  32  33
ENDBRANCH   1  32
TORSDOF 9
ENDMDL
MODEL 2
REMARK VINA RESULT:      -9.0      2.330      7.744
REMARK  9 active torsions:
REMARK  status: ('A' for Active; 'I' for Inactive)
REMARK    1  A    between atoms: C_2  and  C_3 
REMARK    2  A    between atoms: C_3  and  C_4 
REMARK    3  A    between atoms: C_4  and  N_5 
REMARK    4  A    between atoms: C_9  and  C_10 
REMARK    5  A    between atoms: C_13  and  C_14 
REMARK    6  A    between atoms: C_14  and  O_15 
REMARK    7  A    between atoms: C_20  and  C_21 
REMARK       I    between atoms: C_21  and  N_22 
REMARK    8  A    between atoms: N_22  and  C_23 
REMARK    9  A    between atoms: C_24  and  O_25 
ROOT
HETATM    1  N   UNL     1       6.754  28.641  55.319  1.00  0.00    -0.303 N 
HETATM    2  C   UNL     1       8.048  28.476  54.830  1.00  0.00     0.323 C 
HETATM    3  O   UNL     1       9.042  29.030  55.295  1.00  0.00    -0.247 OA
HETATM    4  N   UNL     1       8.194  27.681  53.738  1.00  0.00    -0.330 N 
HETATM    5  C   UNL     1       7.182  26.815  53.189  1.00  0.00     0.160 C 
HETATM    6  C   UNL     1       5.817  27.235  53.653  1.00  0.00     0.059 C 
HETATM    7  C   UNL     1       5.640  27.993  54.757  1.00  0.00     0.026 C 
HETATM    8  C   UNL     1       4.296  28.156  55.431  1.00  0.00     0.069 C 
HETATM    9  H   UNL     1       9.154  27.540  53.459  1.00  0.00     0.165 HD
ENDROOT
BRANCH   6  10
HETATM   10  C   UNL     1       4.697  26.687  52.834  1.00  0.00     0.256 C 
HETATM   11  N   UNL     1       4.252  27.323  51.713  1.00  0.00    -0.321 N 
HETATM   12  H   UNL     1       3.341  26.977  51.419  1.00  0.00     0.169 HD
HETATM   13  O   UNL     1       4.137  25.645  53.174  1.00  0.00    -0.267 OA
BRANCH  11  14
HETATM   14  C   UNL     1       4.701  28.441  50.985  1.00  0.00     0.068 A 
HETATM   15  C   UNL     1       5.049  28.215  49.641  1.00  0.00     0.095 A 
HETATM   16  C   UNL     1       5.440  29.268  48.814  1.00  0.00     0.039 A 
HETATM   17  C   UNL     1       5.479  30.564  49.325  1.00  0.00     0.003 A 
HETATM   18  C   UNL     1       5.166  30.794  50.666  1.00  0.00     0.002 A 
HETATM   19  C   UNL     1       4.792  29.734  51.499  1.00  0.00     0.032 A 
BRANCH  15  20
HETATM   20  O   UNL     1       4.998  26.923  49.171  1.00  0.00    -0.354 OA
HETATM   21  C   UNL     1       4.719  26.883  47.771  1.00  0.00     0.210 C 
ENDBRANCH  15  20
ENDBRANCH  11  14
ENDBRANCH   6  10
BRANCH   5  22
HETATM   22  C   UNL     1       7.506  25.361  53.523  1.00  0.00    -0.031 A 
HETATM   23  C   UNL     1       7.483  24.891  54.847  1.00  0.00     0.010 A 
HETATM   24  C   UNL     1       7.664  23.533  55.127  1.00  0.00     0.018 A 
HETATM   25  C   UNL     1       7.881  22.620  54.091  1.00  0.00     0.039 A 
HETATM   26  C   UNL     1       7.955  23.085  52.772  1.00  0.00     0.018 A 
HETATM   27  C   UNL     1       7.771  24.444  52.493  1.00  0.00     0.010 A 
BRANCH  25  28
HETATM   28  C   UNL     1       7.986  21.175  54.436  1.00  0.00     0.292 C 
HETATM   29  O   UNL     1       8.249  20.305  53.620  1.00  0.00    -0.259 OA
BRANCH  28  30
HETATM   30  O   UNL     1       7.785  20.980  55.764  1.00  0.00    -0.323 OA
HETATM   31  C   UNL     1       8.915  20.439  56.448  1.00  0.00     0.213 C 
ENDBRANCH  28  30
ENDBRANCH  25  28
ENDBRANCH   5  22
BRANCH   1  32
HETATM   32  C   UNL     1       6.579  29.716  56.304  1.00  0.00     0.133 C 
BRANCH  32  33
HETATM   33  C   UNL     1       6.857  29.303  57.749  1.00  0.00     0.020 C 
BRANCH  33  34
HETATM   34  C   UNL     1       7.504  30.466  58.508  1.00  0.00    -0.003 C 
HETATM   35  C   UNL     1       9.006  30.294  58.643  1.00  0.00     0.005 C 
ENDBRANCH  33  34
ENDBRANCH  32  33
ENDBRANCH   1  32
TORSDOF 9
ENDMDL
MODEL 3
REMARK VINA RESULT:      -8.4      2.414      8.044
REMARK  9 active torsions:
REMARK  status: ('A' for Active; 'I' for Inactive)
REMARK    1  A    between atoms: C_2  and  C_3 
REMARK    2  A    between atoms: C_3  and  C_4 
REMARK    3  A    between atoms: C_4  and  N_5 
REMARK    4  A    between atoms: C_9  and  C_10 
REMARK    5  A    between atoms: C_13  and  C_14 
REMARK    6  A    between atoms: C_14  and  O_15 
REMARK    7  A    between atoms: C_20  and  C_21 
REMARK       I    between atoms: C_21  and  N_22 
REMARK    8  A    between atoms: N_22  and  C_23 
REMARK    9  A    between atoms: C_24  and  O_25 
ROOT
HETATM    1  N   UNL     1       6.956  24.680  54.514  1.00  0.00    -0.303 N 
HETATM    2  C   UNL     1       7.776  24.778  53.392  1.00  0.00     0.323 C 
HETATM    3  O   UNL     1       8.538  23.893  53.009  1.00  0.00    -0.247 OA
HETATM    4  N   UNL     1       7.750  25.954  52.714  1.00  0.00    -0.330 N 
HETATM    5  C   UNL     1       6.790  27.013  52.905  1.00  0.00     0.160 C 
HETATM    6  C   UNL     1       6.121  26.886  54.243  1.00  0.00     0.059 C 
HETATM    7  C   UNL     1       6.099  25.718  54.922  1.00  0.00     0.026 C 
HETATM    8  C   UNL     1       5.172  25.468  56.090  1.00  0.00     0.069 C 
HETATM    9  H   UNL     1       8.310  25.957  51.874  1.00  0.00     0.165 HD
ENDROOT
BRANCH   6  10
HETATM   10  C   UNL     1       5.440  28.128  54.707  1.00  0.00     0.256 C 
HETATM   11  N   UNL     1       6.079  29.049  55.484  1.00  0.00    -0.321 N 
HETATM   12  H   UNL     1       5.425  29.693  55.922  1.00  0.00     0.169 HD
HETATM   13  O   UNL     1       4.265  28.336  54.406  1.00  0.00    -0.267 OA
BRANCH  11  14
HETATM   14  C   UNL     1       7.408  29.195  55.925  1.00  0.00     0.068 A 
HETATM   15  C   UNL     1       7.584  29.560  57.272  1.00  0.00     0.095 A 
HETATM   16  C   UNL     1       8.860  29.663  57.826  1.00  0.00     0.039 A 
HETATM   17  C   UNL     1       9.976  29.394  57.035  1.00  0.00     0.003 A 
HETATM   18  C   UNL     1       9.813  29.062  55.690  1.00  0.00     0.002 A 
HETATM   19  C   UNL     1       8.533  28.976  55.130  1.00  0.00     0.032 A 
BRANCH  15  20
HETATM   20  O   UNL     1       6.460  29.818  58.022  1.00  0.00    -0.354 OA
HETATM   21  C   UNL     1       6.419  31.178  58.456  1.00  0.00     0.210 C 
ENDBRANCH  15  20
ENDBRANCH  11  14
ENDBRANCH   6  10
BRANCH   5  22
HETATM   22  C   UNL     1       5.801  27.034  51.742  1.00  0.00    -0.031 A 
HETATM   23  C   UNL     1       5.431  28.236  51.116  1.00  0.00     0.010 A 
HETATM   24  C   UNL     1       4.620  28.230  49.978  1.00  0.00     0.018 A 
HETATM   25  C   UNL     1       4.153  27.023  49.448  1.00  0.00     0.039 A 
HETATM   26  C   UNL     1       4.476  25.822  50.093  1.00  0.00     0.018 A 
HETATM   27  C   UNL     1       5.291  25.830  51.231  1.00  0.00     0.010 A 
BRANCH  25  28
HETATM   28  C   UNL     1       3.361  27.066  48.188  1.00  0.00     0.292 C 
HETATM   29  O   UNL     1       3.773  26.643  47.119  1.00  0.00    -0.259 OA
BRANCH  28  30
HETATM   30  O   UNL     1       2.133  27.600  48.409  1.00  0.00    -0.323 OA
HETATM   31  C   UNL     1       1.108  27.062  47.574  1.00  0.00     0.213 C 
ENDBRANCH  28  30
ENDBRANCH  25  28
ENDBRANCH   5  22
BRANCH   1  32
HETATM   32  C   UNL     1       7.209  23.528  55.388  1.00  0.00     0.133 C 
BRANCH  32  33
HETATM   33  C   UNL     1       8.573  23.544  56.078  1.00  0.00     0.020 C 
BRANCH  33  34
HETATM   34  C   UNL     1       8.456  24.223  57.446  1.00  0.00    -0.003 C 
HETATM   35  C   UNL     1       8.649  25.726  57.356  1.00  0.00     0.005 C 
ENDBRANCH  33  34
ENDBRANCH  32  33
ENDBRANCH   1  32
TORSDOF 9
ENDMDL
MODEL 4
REMARK VINA RESULT:      -7.6      2.550      7.565
REMARK  9 active torsions:
REMARK  status: ('A' for Active; 'I' for Inactive)
REMARK    1  A    between atoms: C_2  and  C_3 
REMARK    2  A    between atoms: C_3  and  C_4 
REMARK    3  A    between atoms: C_4  and  N_5 
REMARK    4  A    between atoms: C_9  and  C_10 
REMARK    5  A    between atoms: C_13  and  C_14 
REMARK    6  A    between atoms: C_14  and  O_15 
REMARK    7  A    between atoms: C_20  and  C_21 
REMARK       I    between atoms: C_21  and  N_22 
REMARK    8  A    between atoms: N_22  and  C_23 
REMARK    9  A    between atoms: C_24  and  O_25 
ROOT
HETATM    1  N   UNL     1       7.084  25.480  54.423  1.00  0.00    -0.303 N 
HETATM    2  C   UNL     1       7.664  26.149  53.348  1.00  0.00     0.323 C 
HETATM    3  O   UNL     1       8.449  25.638  52.552  1.00  0.00    -0.247 OA
HETATM    4  N   UNL     1       7.363  27.467  53.211  1.00  0.00    -0.330 N 
HETATM    5  C   UNL     1       6.328  28.171  53.926  1.00  0.00     0.160 C 
HETATM    6  C   UNL     1       5.940  27.421  55.168  1.00  0.00     0.059 C 
HETATM    7  C   UNL     1       6.193  26.102  55.314  1.00  0.00     0.026 C 
HETATM    8  C   UNL     1       5.536  25.258  56.384  1.00  0.00     0.069 C 
HETATM    9  H   UNL     1       7.753  27.893  52.383  1.00  0.00     0.165 HD
ENDROOT
BRANCH   6  10
HETATM   10  C   UNL     1       5.203  28.242  56.172  1.00  0.00     0.256 C 
HETATM   11  N   UNL     1       5.858  29.001  57.096  1.00  0.00    -0.321 N 
HETATM   12  H   UNL     1       5.242  29.288  57.854  1.00  0.00     0.169 HD
HETATM   13  O   UNL     1       3.972  28.231  56.193  1.00  0.00    -0.267 OA
BRANCH  11  14
HETATM   14  C   UNL     1       7.211  29.331  57.302  1.00  0.00     0.068 A 
HETATM   15  C   UNL     1       7.467  30.418  58.157  1.00  0.00     0.095 A 
HETATM   16  C   UNL     1       8.773  30.783  58.482  1.00  0.00     0.039 A 
HETATM   17  C   UNL     1       9.840  30.054  57.958  1.00  0.00     0.003 A 
HETATM   18  C   UNL     1       9.596  28.994  57.085  1.00  0.00     0.002 A 
HETATM   19  C   UNL     1       8.286  28.640  56.745  1.00  0.00     0.032 A 
BRANCH  15  20
HETATM   20  O   UNL     1       6.390  31.114  58.655  1.00  0.00    -0.354 OA
HETATM   21  C   UNL     1       6.803  32.194  59.494  1.00  0.00     0.210 C 
ENDBRANCH  15  20
ENDBRANCH  11  14
ENDBRANCH   6  10
BRANCH   5  22
HETATM   22  C   UNL     1       5.147  28.441  52.997  1.00  0.00    -0.031 A 
HETATM   23  C   UNL     1       4.337  29.579  53.155  1.00  0.00     0.010 A 
HETATM   24  C   UNL     1       3.334  29.878  52.227  1.00  0.00     0.018 A 
HETATM   25  C   UNL     1       3.115  29.040  51.129  1.00  0.00     0.039 A 
HETATM   26  C   UNL     1       3.884  27.878  50.990  1.00  0.00     0.018 A 
HETATM   27  C   UNL     1       4.889  27.582  51.917  1.00  0.00     0.010 A 
BRANCH  25  28
HETATM   28  C   UNL     1       2.091  29.446  50.127  1.00  0.00     0.292 C 
HETATM   29  O   UNL     1       1.167  30.204  50.379  1.00  0.00    -0.259 OA
BRANCH  28  30
HETATM   30  O   UNL     1       2.352  28.890  48.917  1.00  0.00    -0.323 OA
HETATM   31  C   UNL     1       1.314  28.037  48.435  1.00  0.00     0.213 C 
ENDBRANCH  28  30
ENDBRANCH  25  28
ENDBRANCH   5  22
BRANCH   1  32
HETATM   32  C   UNL     1       7.640  24.154  54.720  1.00  0.00     0.133 C 
BRANCH  32  33
HETATM   33  C   UNL     1       7.189  23.050  53.763  1.00  0.00     0.020 C 
BRANCH  33  34
HETATM   34  C   UNL     1       8.362  22.109  53.467  1.00  0.00    -0.003 C 
HETATM   35  C   UNL     1       7.894  20.706  53.124  1.00  0.00     0.005 C 
ENDBRANCH  33  34
ENDBRANCH  32  33
ENDBRANCH   1  32
TORSDOF 9
ENDMDL
MODEL 5
REMARK VINA RESULT:      -7.4      4.793      8.677
REMARK  9 active torsions:
REMARK  status: ('A' for Active; 'I' for Inactive)
REMARK    1  A    between atoms: C_2  and  C_3 
REMARK    2  A    between atoms: C_3  and  C_4 
REMARK    3  A    between atoms: C_4  and  N_5 
REMARK    4  A    between atoms: C_9  and  C_10 
REMARK    5  A    between atoms: C_13  and  C_14 
REMARK    6  A    between atoms: C_14  and  O_15 
REMARK    7  A    between atoms: C_20  and  C_21 
REMARK       I    between atoms: C_21  and  N_22 
REMARK    8  A    between atoms: N_22  and  C_23 
REMARK    9  A    between atoms: C_24  and  O_25 
ROOT
HETATM    1  N   UNL     1       5.128  27.759  48.862  1.00  0.00    -0.303 N 
HETATM    2  C   UNL     1       4.575  26.482  48.914  1.00  0.00     0.323 C 
HETATM    3  O   UNL     1       4.393  25.763  47.934  1.00  0.00    -0.247 OA
HETATM    4  N   UNL     1       4.175  26.035  50.133  1.00  0.00    -0.330 N 
HETATM    5  C   UNL     1       4.482  26.656  51.397  1.00  0.00     0.160 C 
HETATM    6  C   UNL     1       4.879  28.091  51.199  1.00  0.00     0.059 C 
HETATM    7  C   UNL     1       5.316  28.553  50.007  1.00  0.00     0.026 C 
HETATM    8  C   UNL     1       6.024  29.881  49.855  1.00  0.00     0.069 C 
HETATM    9  H   UNL     1       3.841  25.082  50.132  1.00  0.00     0.165 HD
ENDROOT
BRANCH   6  10
HETATM   10  C   UNL     1       4.810  28.921  52.436  1.00  0.00     0.256 C 
HETATM   11  N   UNL     1       3.932  29.958  52.556  1.00  0.00    -0.321 N 
HETATM   12  H   UNL     1       4.176  30.572  53.329  1.00  0.00     0.169 HD
HETATM   13  O   UNL     1       5.569  28.690  53.377  1.00  0.00    -0.267 OA
BRANCH  11  14
HETATM   14  C   UNL     1       2.876  30.435  51.756  1.00  0.00     0.068 A 
HETATM   15  C   UNL     1       2.608  31.814  51.833  1.00  0.00     0.095 A 
HETATM   16  C   UNL     1       1.629  32.400  51.030  1.00  0.00     0.039 A 
HETATM   17  C   UNL     1       0.912  31.609  50.134  1.00  0.00     0.003 A 
HETATM   18  C   UNL     1       1.150  30.235  50.073  1.00  0.00     0.002 A 
HETATM   19  C   UNL     1       2.119  29.646  50.892  1.00  0.00     0.032 A 
BRANCH  15  20
HETATM   20  O   UNL     1       3.335  32.563  52.728  1.00  0.00    -0.354 OA
HETATM   21  C   UNL     1       2.502  33.122  53.745  1.00  0.00     0.210 C 
ENDBRANCH  15  20
ENDBRANCH  11  14
ENDBRANCH   6  10
BRANCH   5  22
HETATM   22  C   UNL     1       5.542  25.839  52.133  1.00  0.00    -0.031 A 
HETATM   23  C   UNL     1       5.267  25.228  53.369  1.00  0.00     0.010 A 
HETATM   24  C   UNL     1       6.205  24.386  53.974  1.00  0.00     0.018 A 
HETATM   25  C   UNL     1       7.439  24.145  53.361  1.00  0.00     0.039 A 
HETATM   26  C   UNL     1       7.741  24.788  52.154  1.00  0.00     0.018 A 
HETATM   27  C   UNL     1       6.800  25.628  51.548  1.00  0.00     0.010 A 
BRANCH  25  28
HETATM   28  C   UNL     1       8.368  23.176  54.005  1.00  0.00     0.292 C 
HETATM   29  O   UNL     1       8.735  23.267  55.167  1.00  0.00    -0.259 OA
BRANCH  28  30
HETATM   30  O   UNL     1       8.707  22.185  53.143  1.00  0.00    -0.323 OA
HETATM   31  C   UNL     1       7.853  21.043  53.206  1.00  0.00     0.213 C 
ENDBRANCH  28  30
ENDBRANCH  25  28
ENDBRANCH   5  22
BRANCH   1  32
HETATM   32  C   UNL     1       5.283  28.330  47.518  1.00  0.00     0.133 C 
BRANCH  32  33
HETATM   33  C   UNL     1       4.052  29.072  46.999  1.00  0.00     0.020 C 
BRANCH  33  34
HETATM   34  C   UNL     1       4.418  30.524  46.676  1.00  0.00    -0.003 C 
HETATM   35  C   UNL     1       3.650  31.511  47.537  1.00  0.00     0.005 C 
ENDBRANCH  33  34
ENDBRANCH  32  33
ENDBRANCH   1  32
TORSDOF 9
ENDMDL
MODEL 6
REMARK VINA RESULT:      -7.4      3.391      6.945
REMARK  9 active torsions:
REMARK  status: ('A' for Active; 'I' for Inactive)
REMARK    1  A    between atoms: C_2  and  C_3 
REMARK    2  A    between atoms: C_3  and  C_4 
REMARK    3  A    between atoms: C_4  and  N_5 
REMARK    4  A    between atoms: C_9  and  C_10 
REMARK    5  A    between atoms: C_13  and  C_14 
REMARK    6  A    between atoms: C_14  and  O_15 
REMARK    7  A    between atoms: C_20  and  C_21 
REMARK       I    between atoms: C_21  and  N_22 
REMARK    8  A    between atoms: N_22  and  C_23 
REMARK    9  A    between atoms: C_24  and  O_25 
ROOT
HETATM    1  N   UNL     1       5.189  28.429  49.551  1.00  0.00    -0.303 N 
HETATM    2  C   UNL     1       5.131  27.130  49.052  1.00  0.00     0.323 C 
HETATM    3  O   UNL     1       5.462  26.806  47.913  1.00  0.00    -0.247 OA
HETATM    4  N   UNL     1       4.631  26.177  49.881  1.00  0.00    -0.330 N 
HETATM    5  C   UNL     1       4.378  26.338  51.291  1.00  0.00     0.160 C 
HETATM    6  C   UNL     1       4.275  27.793  51.647  1.00  0.00     0.059 C 
HETATM    7  C   UNL     1       4.797  28.759  50.860  1.00  0.00     0.026 C 
HETATM    8  C   UNL     1       5.001  30.180  51.336  1.00  0.00     0.069 C 
HETATM    9  H   UNL     1       4.668  25.242  49.501  1.00  0.00     0.165 HD
ENDROOT
BRANCH   6  10
HETATM   10  C   UNL     1       3.616  28.057  52.958  1.00  0.00     0.256 C 
HETATM   11  N   UNL     1       4.315  28.035  54.129  1.00  0.00    -0.321 N 
HETATM   12  H   UNL     1       3.698  27.977  54.936  1.00  0.00     0.169 HD
HETATM   13  O   UNL     1       2.407  28.284  53.006  1.00  0.00    -0.267 OA
BRANCH  11  14
HETATM   14  C   UNL     1       5.682  27.918  54.443  1.00  0.00     0.068 A 
HETATM   15  C   UNL     1       5.995  27.209  55.617  1.00  0.00     0.095 A 
HETATM   16  C   UNL     1       7.322  26.976  55.982  1.00  0.00     0.039 A 
HETATM   17  C   UNL     1       8.350  27.446  55.167  1.00  0.00     0.003 A 
HETATM   18  C   UNL     1       8.050  28.176  54.017  1.00  0.00     0.002 A 
HETATM   19  C   UNL     1       6.719  28.425  53.662  1.00  0.00     0.032 A 
BRANCH  15  20
HETATM   20  O   UNL     1       4.954  26.761  56.397  1.00  0.00    -0.354 OA
HETATM   21  C   UNL     1       5.256  25.505  57.006  1.00  0.00     0.210 C 
ENDBRANCH  15  20
ENDBRANCH  11  14
ENDBRANCH   6  10
BRANCH   5  22
HETATM   22  C   UNL     1       5.444  25.600  52.097  1.00  0.00    -0.031 A 
HETATM   23  C   UNL     1       5.105  24.807  53.207  1.00  0.00     0.010 A 
HETATM   24  C   UNL     1       6.074  24.042  53.863  1.00  0.00     0.018 A 
HETATM   25  C   UNL     1       7.403  24.062  53.428  1.00  0.00     0.039 A 
HETATM   26  C   UNL     1       7.761  24.886  52.354  1.00  0.00     0.018 A 
HETATM   27  C   UNL     1       6.789  25.649  51.697  1.00  0.00     0.010 A 
BRANCH  25  28
HETATM   28  C   UNL     1       8.380  23.166  54.109  1.00  0.00     0.292 C 
HETATM   29  O   UNL     1       8.778  23.348  55.250  1.00  0.00    -0.259 OA
BRANCH  28  30
HETATM   30  O   UNL     1       8.723  22.128  53.307  1.00  0.00    -0.323 OA
HETATM   31  C   UNL     1       8.216  20.867  53.741  1.00  0.00     0.213 C 
ENDBRANCH  28  30
ENDBRANCH  25  28
ENDBRANCH   5  22
BRANCH   1  32
HETATM   32  C   UNL     1       5.455  29.479  48.559  1.00  0.00     0.133 C 
BRANCH  32  33
HETATM   33  C   UNL     1       4.226  29.932  47.771  1.00  0.00     0.020 C 
BRANCH  33  34
HETATM   34  C   UNL     1       4.417  31.376  47.296  1.00  0.00    -0.003 C 
HETATM   35  C   UNL     1       5.327  32.165  48.220  1.00  0.00     0.005 C 
ENDBRANCH  33  34
ENDBRANCH  32  33
ENDBRANCH   1  32
TORSDOF 9
ENDMDL
MODEL 7
REMARK VINA RESULT:      -7.2      2.522      3.197
REMARK  9 active torsions:
REMARK  status: ('A' for Active; 'I' for Inactive)
REMARK    1  A    between atoms: C_2  and  C_3 
REMARK    2  A    between atoms: C_3  and  C_4 
REMARK    3  A    between atoms: C_4  and  N_5 
REMARK    4  A    between atoms: C_9  and  C_10 
REMARK    5  A    between atoms: C_13  and  C_14 
REMARK    6  A    between atoms: C_14  and  O_15 
REMARK    7  A    between atoms: C_20  and  C_21 
REMARK       I    between atoms: C_21  and  N_22 
REMARK    8  A    between atoms: N_22  and  C_23 
REMARK    9  A    between atoms: C_24  and  O_25 
ROOT
HETATM    1  N   UNL     1       5.361  27.060  52.222  1.00  0.00    -0.303 N 
HETATM    2  C   UNL     1       6.241  28.140  52.220  1.00  0.00     0.323 C 
HETATM    3  O   UNL     1       6.545  28.787  51.220  1.00  0.00    -0.247 OA
HETATM    4  N   UNL     1       6.825  28.456  53.404  1.00  0.00    -0.330 N 
HETATM    5  C   UNL     1       6.446  27.936  54.694  1.00  0.00     0.160 C 
HETATM    6  C   UNL     1       5.665  26.663  54.542  1.00  0.00     0.059 C 
HETATM    7  C   UNL     1       5.041  26.342  53.387  1.00  0.00     0.026 C 
HETATM    8  C   UNL     1       3.993  25.255  53.299  1.00  0.00     0.069 C 
HETATM    9  H   UNL     1       7.404  29.283  53.368  1.00  0.00     0.165 HD
ENDROOT
BRANCH   6  10
HETATM   10  C   UNL     1       5.588  25.841  55.784  1.00  0.00     0.256 C 
HETATM   11  N   UNL     1       6.225  24.639  55.888  1.00  0.00    -0.321 N 
HETATM   12  H   UNL     1       5.876  24.094  56.672  1.00  0.00     0.169 HD
HETATM   13  O   UNL     1       4.923  26.232  56.743  1.00  0.00    -0.267 OA
BRANCH  11  14
HETATM   14  C   UNL     1       7.130  23.943  55.063  1.00  0.00     0.068 A 
HETATM   15  C   UNL     1       8.184  23.277  55.714  1.00  0.00     0.095 A 
HETATM   16  C   UNL     1       9.095  22.502  54.996  1.00  0.00     0.039 A 
HETATM   17  C   UNL     1       8.953  22.380  53.615  1.00  0.00     0.003 A 
HETATM   18  C   UNL     1       7.928  23.062  52.957  1.00  0.00     0.002 A 
HETATM   19  C   UNL     1       7.027  23.853  53.676  1.00  0.00     0.032 A 
BRANCH  15  20
HETATM   20  O   UNL     1       8.293  23.421  57.078  1.00  0.00    -0.354 OA
HETATM   21  C   UNL     1       9.123  24.531  57.426  1.00  0.00     0.210 C 
ENDBRANCH  15  20
ENDBRANCH  11  14
ENDBRANCH   6  10
BRANCH   5  22
HETATM   22  C   UNL     1       5.697  29.006  55.485  1.00  0.00    -0.031 A 
HETATM   23  C   UNL     1       4.379  29.368  55.162  1.00  0.00     0.010 A 
HETATM   24  C   UNL     1       3.664  30.261  55.966  1.00  0.00     0.018 A 
HETATM   25  C   UNL     1       4.257  30.817  57.105  1.00  0.00     0.039 A 
HETATM   26  C   UNL     1       5.587  30.501  57.408  1.00  0.00     0.018 A 
HETATM   27  C   UNL     1       6.300  29.605  56.604  1.00  0.00     0.010 A 
BRANCH  25  28
HETATM   28  C   UNL     1       3.426  31.698  57.972  1.00  0.00     0.292 C 
HETATM   29  O   UNL     1       3.027  32.800  57.626  1.00  0.00    -0.259 OA
BRANCH  28  30
HETATM   30  O   UNL     1       3.157  31.094  59.156  1.00  0.00    -0.323 OA
HETATM   31  C   UNL     1       3.326  31.943  60.291  1.00  0.00     0.213 C 
ENDBRANCH  28  30
ENDBRANCH  25  28
ENDBRANCH   5  22
BRANCH   1  32
HETATM   32  C   UNL     1       4.969  26.557  50.899  1.00  0.00     0.133 C 
BRANCH  32  33
HETATM   33  C   UNL     1       3.975  27.447  50.153  1.00  0.00     0.020 C 
BRANCH  33  34
HETATM   34  C   UNL     1       3.616  26.810  48.806  1.00  0.00    -0.003 C 
HETATM   35  C   UNL     1       4.828  26.668  47.902  1.00  0.00     0.005 C 
ENDBRANCH  33  34
ENDBRANCH  32  33
ENDBRANCH   1  32
TORSDOF 9
ENDMDL
MODEL 8
REMARK VINA RESULT:      -7.1      5.643      9.594
REMARK  9 active torsions:
REMARK  status: ('A' for Active; 'I' for Inactive)
REMARK    1  A    between atoms: C_2  and  C_3 
REMARK    2  A    between atoms: C_3  and  C_4 
REMARK    3  A    between atoms: C_4  and  N_5 
REMARK    4  A    between atoms: C_9  and  C_10 
REMARK    5  A    between atoms: C_13  and  C_14 
REMARK    6  A    between atoms: C_14  and  O_15 
REMARK    7  A    between atoms: C_20  and  C_21 
REMARK       I    between atoms: C_21  and  N_22 
REMARK    8  A    between atoms: N_22  and  C_23 
REMARK    9  A    between atoms: C_24  and  O_25 
ROOT
HETATM    1  N   UNL     1       6.304  31.816  61.738  1.00  0.00    -0.303 N 
HETATM    2  C   UNL     1       5.034  31.683  62.295  1.00  0.00     0.323 C 
HETATM    3  O   UNL     1       4.813  31.259  63.428  1.00  0.00    -0.247 OA
HETATM    4  N   UNL     1       3.980  32.006  61.503  1.00  0.00    -0.330 N 
HETATM    5  C   UNL     1       4.059  32.690  60.236  1.00  0.00     0.160 C 
HETATM    6  C   UNL     1       5.443  32.583  59.664  1.00  0.00     0.059 C 
HETATM    7  C   UNL     1       6.516  32.301  60.436  1.00  0.00     0.026 C 
HETATM    8  C   UNL     1       7.938  32.509  59.967  1.00  0.00     0.069 C 
HETATM    9  H   UNL     1       3.085  31.955  61.969  1.00  0.00     0.165 HD
ENDROOT
BRANCH   6  10
HETATM   10  C   UNL     1       5.526  32.882  58.205  1.00  0.00     0.256 C 
HETATM   11  N   UNL     1       5.839  31.917  57.293  1.00  0.00    -0.321 N 
HETATM   12  H   UNL     1       6.105  32.318  56.397  1.00  0.00     0.169 HD
HETATM   13  O   UNL     1       5.329  34.026  57.798  1.00  0.00    -0.267 OA
BRANCH  11  14
HETATM   14  C   UNL     1       6.021  30.523  57.375  1.00  0.00     0.068 A 
HETATM   15  C   UNL     1       4.937  29.726  56.965  1.00  0.00     0.095 A 
HETATM   16  C   UNL     1       5.039  28.335  56.942  1.00  0.00     0.039 A 
HETATM   17  C   UNL     1       6.235  27.727  57.322  1.00  0.00     0.003 A 
HETATM   18  C   UNL     1       7.305  28.509  57.760  1.00  0.00     0.002 A 
HETATM   19  C   UNL     1       7.195  29.903  57.801  1.00  0.00     0.032 A 
BRANCH  15  20
HETATM   20  O   UNL     1       3.774  30.359  56.596  1.00  0.00    -0.354 OA
HETATM   21  C   UNL     1       3.583  30.327  55.181  1.00  0.00     0.210 C 
ENDBRANCH  15  20
ENDBRANCH  11  14
ENDBRANCH   6  10
BRANCH   5  22
HETATM   22  C   UNL     1       3.587  34.133  60.395  1.00  0.00    -0.031 A 
HETATM   23  C   UNL     1       4.329  35.069  61.135  1.00  0.00     0.010 A 
HETATM   24  C   UNL     1       3.949  36.414  61.173  1.00  0.00     0.018 A 
HETATM   25  C   UNL     1       2.813  36.848  60.480  1.00  0.00     0.039 A 
HETATM   26  C   UNL     1       2.040  35.913  59.781  1.00  0.00     0.018 A 
HETATM   27  C   UNL     1       2.423  34.568  59.741  1.00  0.00     0.010 A 
BRANCH  25  28
HETATM   28  C   UNL     1       2.499  38.303  60.487  1.00  0.00     0.292 C 
HETATM   29  O   UNL     1       2.977  39.092  61.287  1.00  0.00    -0.259 OA
BRANCH  28  30
HETATM   30  O   UNL     1       1.650  38.618  59.475  1.00  0.00    -0.323 OA
HETATM   31  C   UNL     1       2.062  39.746  58.703  1.00  0.00     0.213 C 
ENDBRANCH  28  30
ENDBRANCH  25  28
ENDBRANCH   5  22
BRANCH   1  32
HETATM   32  C   UNL     1       7.399  31.197  62.496  1.00  0.00     0.133 C 
BRANCH  32  33
HETATM   33  C   UNL     1       8.202  32.170  63.358  1.00  0.00     0.020 C 
BRANCH  33  34
HETATM   34  C   UNL     1       7.364  33.418  63.652  1.00  0.00    -0.003 C 
HETATM   35  C   UNL     1       7.186  33.648  65.142  1.00  0.00     0.005 C 
ENDBRANCH  33  34
ENDBRANCH  32  33
ENDBRANCH   1  32
TORSDOF 9
ENDMDL
MODEL 9
REMARK VINA RESULT:      -6.9      7.936     11.630
REMARK  9 active torsions:
REMARK  status: ('A' for Active; 'I' for Inactive)
REMARK    1  A    between atoms: C_2  and  C_3 
REMARK    2  A    between atoms: C_3  and  C_4 
REMARK    3  A    between atoms: C_4  and  N_5 
REMARK    4  A    between atoms: C_9  and  C_10 
REMARK    5  A    between atoms: C_13  and  C_14 
REMARK    6  A    between atoms: C_14  and  O_15 
REMARK    7  A    between atoms: C_20  and  C_21 
REMARK       I    between atoms: C_21  and  N_22 
REMARK    8  A    between atoms: N_22  and  C_23 
REMARK    9  A    between atoms: C_24  and  O_25 
ROOT
HETATM    1  N   UNL     1       6.527  33.143  63.542  1.00  0.00    -0.303 N 
HETATM    2  C   UNL     1       6.819  34.177  64.428  1.00  0.00     0.323 C 
HETATM    3  O   UNL     1       7.891  34.308  65.015  1.00  0.00    -0.247 OA
HETATM    4  N   UNL     1       5.825  35.067  64.681  1.00  0.00    -0.330 N 
HETATM    5  C   UNL     1       4.588  35.176  63.948  1.00  0.00     0.160 C 
HETATM    6  C   UNL     1       4.308  33.909  63.192  1.00  0.00     0.059 C 
HETATM    7  C   UNL     1       5.285  33.025  62.893  1.00  0.00     0.026 C 
HETATM    8  C   UNL     1       5.109  31.927  61.869  1.00  0.00     0.069 C 
HETATM    9  H   UNL     1       6.101  35.834  65.277  1.00  0.00     0.165 HD
ENDROOT
BRANCH   6  10
HETATM   10  C   UNL     1       2.891  33.760  62.753  1.00  0.00     0.256 C 
HETATM   11  N   UNL     1       2.513  33.989  61.462  1.00  0.00    -0.321 N 
HETATM   12  H   UNL     1       1.505  34.097  61.378  1.00  0.00     0.169 HD
HETATM   13  O   UNL     1       2.024  33.440  63.565  1.00  0.00    -0.267 OA
BRANCH  11  14
HETATM   14  C   UNL     1       3.219  34.260  60.275  1.00  0.00     0.068 A 
HETATM   15  C   UNL     1       3.336  33.198  59.360  1.00  0.00     0.095 A 
HETATM   16  C   UNL     1       3.957  33.381  58.124  1.00  0.00     0.039 A 
HETATM   17  C   UNL     1       4.461  34.637  57.788  1.00  0.00     0.003 A 
HETATM   18  C   UNL     1       4.377  35.688  58.702  1.00  0.00     0.002 A 
HETATM   19  C   UNL     1       3.771  35.498  59.949  1.00  0.00     0.032 A 
BRANCH  15  20
HETATM   20  O   UNL     1       2.827  31.974  59.726  1.00  0.00    -0.354 OA
HETATM   21  C   UNL     1       3.344  30.923  58.908  1.00  0.00     0.210 C 
ENDBRANCH  15  20
ENDBRANCH  11  14
ENDBRANCH   6  10
BRANCH   5  22
HETATM   22  C   UNL     1       4.623  36.412  63.053  1.00  0.00    -0.031 A 
HETATM   23  C   UNL     1       3.474  37.193  62.838  1.00  0.00     0.010 A 
HETATM   24  C   UNL     1       3.546  38.387  62.114  1.00  0.00     0.018 A 
HETATM   25  C   UNL     1       4.766  38.819  61.582  1.00  0.00     0.039 A 
HETATM   26  C   UNL     1       5.906  38.023  61.749  1.00  0.00     0.018 A 
HETATM   27  C   UNL     1       5.833  36.830  62.476  1.00  0.00     0.010 A 
BRANCH  25  28
HETATM   28  C   UNL     1       4.804  40.138  60.891  1.00  0.00     0.292 C 
HETATM   29  O   UNL     1       4.080  40.425  59.950  1.00  0.00    -0.259 OA
BRANCH  28  30
HETATM   30  O   UNL     1       5.714  40.960  61.470  1.00  0.00    -0.323 OA
HETATM   31  C   UNL     1       5.197  41.723  62.560  1.00  0.00     0.213 C 
ENDBRANCH  28  30
ENDBRANCH  25  28
ENDBRANCH   5  22
BRANCH   1  32
HETATM   32  C   UNL     1       7.501  32.044  63.505  1.00  0.00     0.133 C 
BRANCH  32  33
HETATM   33  C   UNL     1       8.577  32.188  62.430  1.00  0.00     0.020 C 
BRANCH  33  34
HETATM   34  C   UNL     1       8.982  30.804  61.910  1.00  0.00    -0.003 C 
HETATM   35  C   UNL     1       8.741  30.662  60.418  1.00  0.00     0.005 C 
ENDBRANCH  33  34
ENDBRANCH  32  33
ENDBRANCH   1  32
TORSDOF 9
ENDMDL
MODEL 10
REMARK VINA RESULT:      -6.9      8.916     12.622
REMARK  9 active torsions:
REMARK  status: ('A' for Active; 'I' for Inactive)
REMARK    1  A    between atoms: C_2  and  C_3 
REMARK    2  A    between atoms: C_3  and  C_4 
REMARK    3  A    between atoms: C_4  and  N_5 
REMARK    4  A    between atoms: C_9  and  C_10 
REMARK    5  A    between atoms: C_13  and  C_14 
REMARK    6  A    between atoms: C_14  and  O_15 
REMARK    7  A    between atoms: C_20  and  C_21 
REMARK       I    between atoms: C_21  and  N_22 
REMARK    8  A    between atoms: N_22  and  C_23 
REMARK    9  A    between atoms: C_24  and  O_25 
ROOT
HETATM    1  N   UNL     1       6.299  32.810  62.864  1.00  0.00    -0.303 N 
HETATM    2  C   UNL     1       7.089  33.433  63.828  1.00  0.00     0.323 C 
HETATM    3  O   UNL     1       8.235  33.092  64.112  1.00  0.00    -0.247 OA
HETATM    4  N   UNL     1       6.521  34.454  64.520  1.00  0.00    -0.330 N 
HETATM    5  C   UNL     1       5.276  35.101  64.191  1.00  0.00     0.160 C 
HETATM    6  C   UNL     1       4.444  34.226  63.299  1.00  0.00     0.059 C 
HETATM    7  C   UNL     1       4.989  33.227  62.570  1.00  0.00     0.026 C 
HETATM    8  C   UNL     1       4.257  32.553  61.431  1.00  0.00     0.069 C 
HETATM    9  H   UNL     1       7.151  34.916  65.160  1.00  0.00     0.165 HD
ENDROOT
BRANCH   6  10
HETATM   10  C   UNL     1       3.002  34.603  63.243  1.00  0.00     0.256 C 
HETATM   11  N   UNL     1       2.495  35.348  62.219  1.00  0.00    -0.321 N 
HETATM   12  H   UNL     1       1.582  35.733  62.449  1.00  0.00     0.169 HD
HETATM   13  O   UNL     1       2.240  34.257  64.145  1.00  0.00    -0.267 OA
BRANCH  11  14
HETATM   14  C   UNL     1       3.026  35.819  61.004  1.00  0.00     0.068 A 
HETATM   15  C   UNL     1       3.170  37.213  60.882  1.00  0.00     0.095 A 
HETATM   16  C   UNL     1       3.750  37.778  59.746  1.00  0.00     0.039 A 
HETATM   17  C   UNL     1       4.200  36.948  58.720  1.00  0.00     0.003 A 
HETATM   18  C   UNL     1       4.033  35.566  58.818  1.00  0.00     0.002 A 
HETATM   19  C   UNL     1       3.435  35.002  59.950  1.00  0.00     0.032 A 
BRANCH  15  20
HETATM   20  O   UNL     1       2.715  38.001  61.914  1.00  0.00    -0.354 OA
HETATM   21  C   UNL     1       2.734  39.386  61.567  1.00  0.00     0.210 C 
ENDBRANCH  15  20
ENDBRANCH  11  14
ENDBRANCH   6  10
BRANCH   5  22
HETATM   22  C   UNL     1       5.548  36.479  63.593  1.00  0.00    -0.031 A 
HETATM   23  C   UNL     1       5.250  37.657  64.299  1.00  0.00     0.010 A 
HETATM   24  C   UNL     1       5.614  38.908  63.791  1.00  0.00     0.018 A 
HETATM   25  C   UNL     1       6.274  39.007  62.562  1.00  0.00     0.039 A 
HETATM   26  C   UNL     1       6.532  37.842  61.828  1.00  0.00     0.018 A 
HETATM   27  C   UNL     1       6.170  36.591  62.339  1.00  0.00     0.010 A 
BRANCH  25  28
HETATM   28  C   UNL     1       6.712  40.355  62.105  1.00  0.00     0.292 C 
HETATM   29  O   UNL     1       6.155  40.977  61.214  1.00  0.00    -0.259 OA
BRANCH  28  30
HETATM   30  O   UNL     1       7.772  40.789  62.832  1.00  0.00    -0.323 OA
HETATM   31  C   UNL     1       7.626  42.118  63.333  1.00  0.00     0.213 C 
ENDBRANCH  28  30
ENDBRANCH  25  28
ENDBRANCH   5  22
BRANCH   1  32
HETATM   32  C   UNL     1       6.819  31.542  62.338  1.00  0.00     0.133 C 
BRANCH  32  33
HETATM   33  C   UNL     1       7.562  31.665  61.009  1.00  0.00     0.020 C 
BRANCH  33  34
HETATM   34  C   UNL     1       9.073  31.574  61.247  1.00  0.00    -0.003 C 
HETATM   35  C   UNL     1       9.457  30.314  62.003  1.00  0.00     0.005 C 
ENDBRANCH  33  34
ENDBRANCH  32  33
ENDBRANCH   1  32
TORSDOF 9
ENDMDL
