MODEL 1
REMARK VINA RESULT:      -9.4      0.000      0.000
REMARK  3 active torsions:
REMARK  status: ('A' for Active; 'I' for Inactive)
REMARK    1  A    between atoms: C_7  and  C_8 
REMARK    2  A    between atoms: N_9  and  C_11 
REMARK    3  A    between atoms: C_11  and  C_12 
ROOT
HETATM    1  C   UNL     1       6.315  27.375  55.191  1.00  0.00     0.238 C 
HETATM    2  N   UNL     1       6.313  27.775  56.656  1.00  0.00    -0.056 N 
HETATM    3  H   UNL     1       5.704  27.090  57.116  1.00  0.00     0.281 HD
HETATM    4  C   UNL     1       5.689  29.130  56.902  1.00  0.00     0.236 C 
HETATM    5  C   UNL     1       4.269  29.163  56.370  1.00  0.00     0.028 C 
HETATM    6  C   UNL     1       4.254  28.861  54.882  1.00  0.00     0.004 C 
HETATM    7  C   UNL     1       4.891  27.506  54.614  1.00  0.00     0.040 C 
ENDROOT
BRANCH   2   8
HETATM    8  C   UNL     1       7.658  27.633  57.363  1.00  0.00     0.294 C 
BRANCH   8   9
HETATM    9  C   UNL     1       8.608  28.745  57.147  1.00  0.00     0.061 A 
HETATM   10  N   UNL     1       8.869  29.758  58.048  1.00  0.00    -0.305 N 
HETATM   11  C   UNL     1       9.847  30.542  57.487  1.00  0.00     0.151 A 
HETATM   12  C   UNL     1       8.372  30.080  59.300  1.00  0.00     0.118 A 
HETATM   13  C   UNL     1      10.367  31.650  58.241  1.00  0.00     0.167 A 
HETATM   14  N   UNL     1      10.174  30.154  56.277  1.00  0.00    -0.239 NA
HETATM   15  N   UNL     1       9.919  31.925  59.436  1.00  0.00    -0.268 NA
HETATM   16  C   UNL     1       8.900  31.138  59.943  1.00  0.00     0.134 A 
HETATM   17  C   UNL     1       9.370  29.076  56.036  1.00  0.00     0.146 A 
ENDBRANCH   8   9
ENDBRANCH   2   8
BRANCH   1  18
HETATM   18  C   UNL     1       6.768  25.962  54.996  1.00  0.00     0.041 A 
HETATM   19  N   UNL     1       7.207  25.501  53.771  1.00  0.00    -0.357 N 
HETATM   20  C   UNL     1       7.525  24.166  53.845  1.00  0.00     0.042 A 
HETATM   21  H   UNL     1       7.281  26.041  52.917  1.00  0.00     0.166 HD
HETATM   22  C   UNL     1       7.252  23.744  55.144  1.00  0.00    -0.008 A 
HETATM   23  C   UNL     1       8.010  23.298  52.859  1.00  0.00     0.030 A 
HETATM   24  C   UNL     1       7.464  22.395  55.483  1.00  0.00     0.014 A 
HETATM   25  C   UNL     1       6.768  24.874  55.855  1.00  0.00     0.040 A 
HETATM   26  C   UNL     1       7.946  21.514  54.509  1.00  0.00     0.001 A 
HETATM   27  C   UNL     1       8.215  21.962  53.217  1.00  0.00     0.002 A 
ENDBRANCH   1  18
TORSDOF 3
ENDMDL
MODEL 2
REMARK VINA RESULT:      -9.4      1.762      3.024
REMARK  3 active torsions:
REMARK  status: ('A' for Active; 'I' for Inactive)
REMARK    1  A    between atoms: C_7  and  C_8 
REMARK    2  A    between atoms: N_9  and  C_11 
REMARK    3  A    between atoms: C_11  and  C_12 
ROOT
HETATM    1  C   UNL     1       6.763  25.878  52.271  1.00  0.00     0.238 C 
HETATM    2  N   UNL     1       6.527  27.047  53.211  1.00  0.00    -0.056 N 
HETATM    3  H   UNL     1       5.789  26.728  53.847  1.00  0.00     0.281 HD
HETATM    4  C   UNL     1       5.985  28.273  52.513  1.00  0.00     0.236 C 
HETATM    5  C   UNL     1       4.693  27.941  51.788  1.00  0.00     0.028 C 
HETATM    6  C   UNL     1       4.926  26.839  50.770  1.00  0.00     0.004 C 
HETATM    7  C   UNL     1       5.485  25.601  51.454  1.00  0.00     0.040 C 
ENDROOT
BRANCH   2   8
HETATM    8  C   UNL     1       7.703  27.386  54.122  1.00  0.00     0.294 C 
BRANCH   8   9
HETATM    9  C   UNL     1       7.341  27.818  55.489  1.00  0.00     0.061 A 
HETATM   10  N   UNL     1       8.118  28.614  56.307  1.00  0.00    -0.305 N 
HETATM   11  C   UNL     1       7.395  28.825  57.454  1.00  0.00     0.151 A 
HETATM   12  C   UNL     1       9.372  29.188  56.176  1.00  0.00     0.118 A 
HETATM   13  C   UNL     1       7.940  29.683  58.472  1.00  0.00     0.167 A 
HETATM   14  N   UNL     1       6.258  28.171  57.463  1.00  0.00    -0.239 NA
HETATM   15  N   UNL     1       9.108  30.250  58.324  1.00  0.00    -0.268 NA
HETATM   16  C   UNL     1       9.822  29.972  57.173  1.00  0.00     0.134 A 
HETATM   17  C   UNL     1       6.242  27.499  56.274  1.00  0.00     0.146 A 
ENDBRANCH   8   9
ENDBRANCH   2   8
BRANCH   1  18
HETATM   18  C   UNL     1       7.124  24.627  53.009  1.00  0.00     0.041 A 
HETATM   19  N   UNL     1       7.684  23.541  52.369  1.00  0.00    -0.357 N 
HETATM   20  C   UNL     1       7.882  22.508  53.256  1.00  0.00     0.042 A 
HETATM   21  H   UNL     1       7.914  23.476  51.384  1.00  0.00     0.166 HD
HETATM   22  C   UNL     1       7.404  22.928  54.496  1.00  0.00    -0.008 A 
HETATM   23  C   UNL     1       8.423  21.234  53.051  1.00  0.00     0.030 A 
HETATM   24  C   UNL     1       7.461  22.039  55.585  1.00  0.00     0.014 A 
HETATM   25  C   UNL     1       6.922  24.253  54.328  1.00  0.00     0.040 A 
HETATM   26  C   UNL     1       7.997  20.761  55.397  1.00  0.00     0.001 A 
HETATM   27  C   UNL     1       8.471  20.367  54.146  1.00  0.00     0.002 A 
ENDBRANCH   1  18
TORSDOF 3
ENDMDL
MODEL 3
REMARK VINA RESULT:      -9.3      2.698      5.572
REMARK  3 active torsions:
REMARK  status: ('A' for Active; 'I' for Inactive)
REMARK    1  A    between atoms: C_7  and  C_8 
REMARK    2  A    between atoms: N_9  and  C_11 
REMARK    3  A    between atoms: C_11  and  C_12 
ROOT
HETATM    1  C   UNL     1       7.084  26.142  56.164  1.00  0.00     0.238 C 
HETATM    2  N   UNL     1       6.452  27.131  55.200  1.00  0.00    -0.056 N 
HETATM    3  H   UNL     1       7.119  27.206  54.425  1.00  0.00     0.281 HD
HETATM    4  C   UNL     1       6.315  28.521  55.778  1.00  0.00     0.236 C 
HETATM    5  C   UNL     1       7.668  29.045  56.221  1.00  0.00     0.028 C 
HETATM    6  C   UNL     1       8.279  28.122  57.261  1.00  0.00     0.004 C 
HETATM    7  C   UNL     1       8.412  26.715  56.700  1.00  0.00     0.040 C 
ENDROOT
BRANCH   2   8
HETATM    8  C   UNL     1       5.156  26.657  54.551  1.00  0.00     0.294 C 
BRANCH   8   9
HETATM    9  C   UNL     1       5.182  26.568  53.076  1.00  0.00     0.061 A 
HETATM   10  N   UNL     1       5.158  27.644  52.210  1.00  0.00    -0.305 N 
HETATM   11  C   UNL     1       5.258  27.131  50.941  1.00  0.00     0.151 A 
HETATM   12  C   UNL     1       5.072  29.015  52.387  1.00  0.00     0.118 A 
HETATM   13  C   UNL     1       5.321  28.039  49.827  1.00  0.00     0.167 A 
HETATM   14  N   UNL     1       5.268  25.820  50.924  1.00  0.00    -0.239 NA
HETATM   15  N   UNL     1       5.276  29.332  50.006  1.00  0.00    -0.268 NA
HETATM   16  C   UNL     1       5.129  29.803  51.298  1.00  0.00     0.134 A 
HETATM   17  C   UNL     1       5.164  25.461  52.238  1.00  0.00     0.146 A 
ENDBRANCH   8   9
ENDBRANCH   2   8
BRANCH   1  18
HETATM   18  C   UNL     1       7.375  24.828  55.510  1.00  0.00     0.041 A 
HETATM   19  N   UNL     1       7.230  23.632  56.183  1.00  0.00    -0.357 N 
HETATM   20  C   UNL     1       7.598  22.579  55.379  1.00  0.00     0.042 A 
HETATM   21  H   UNL     1       6.915  23.515  57.140  1.00  0.00     0.166 HD
HETATM   22  C   UNL     1       8.024  23.112  54.165  1.00  0.00    -0.008 A 
HETATM   23  C   UNL     1       7.607  21.204  55.641  1.00  0.00     0.030 A 
HETATM   24  C   UNL     1       8.487  22.240  53.162  1.00  0.00     0.014 A 
HETATM   25  C   UNL     1       7.890  24.522  54.260  1.00  0.00     0.040 A 
HETATM   26  C   UNL     1       8.505  20.863  53.409  1.00  0.00     0.001 A 
HETATM   27  C   UNL     1       8.070  20.356  54.631  1.00  0.00     0.002 A 
ENDBRANCH   1  18
TORSDOF 3
ENDMDL
MODEL 4
REMARK VINA RESULT:      -8.7      2.120      5.313
REMARK  3 active torsions:
REMARK  status: ('A' for Active; 'I' for Inactive)
REMARK    1  A    between atoms: C_7  and  C_8 
REMARK    2  A    between atoms: N_9  and  C_11 
REMARK    3  A    between atoms: C_11  and  C_12 
ROOT
HETATM    1  C   UNL     1       6.446  24.090  53.876  1.00  0.00     0.238 C 
HETATM    2  N   UNL     1       7.182  24.345  55.180  1.00  0.00    -0.056 N 
HETATM    3  H   UNL     1       7.933  24.998  54.934  1.00  0.00     0.281 HD
HETATM    4  C   UNL     1       7.856  23.111  55.733  1.00  0.00     0.236 C 
HETATM    5  C   UNL     1       8.822  22.534  54.715  1.00  0.00     0.028 C 
HETATM    6  C   UNL     1       8.089  22.179  53.432  1.00  0.00     0.004 C 
HETATM    7  C   UNL     1       7.393  23.407  52.868  1.00  0.00     0.040 C 
ENDROOT
BRANCH   2   8
HETATM    8  C   UNL     1       6.368  25.073  56.245  1.00  0.00     0.294 C 
BRANCH   8   9
HETATM    9  C   UNL     1       6.990  26.300  56.787  1.00  0.00     0.061 A 
HETATM   10  N   UNL     1       6.357  27.519  56.930  1.00  0.00    -0.305 N 
HETATM   11  C   UNL     1       7.262  28.366  57.522  1.00  0.00     0.151 A 
HETATM   12  C   UNL     1       5.089  27.984  56.622  1.00  0.00     0.118 A 
HETATM   13  C   UNL     1       6.849  29.703  57.852  1.00  0.00     0.167 A 
HETATM   14  N   UNL     1       8.436  27.808  57.698  1.00  0.00    -0.239 NA
HETATM   15  N   UNL     1       5.639  30.122  57.591  1.00  0.00    -0.268 NA
HETATM   16  C   UNL     1       4.776  29.250  56.953  1.00  0.00     0.134 A 
HETATM   17  C   UNL     1       8.293  26.547  57.192  1.00  0.00     0.146 A 
ENDBRANCH   8   9
ENDBRANCH   2   8
BRANCH   1  18
HETATM   18  C   UNL     1       5.944  25.358  53.257  1.00  0.00     0.041 A 
HETATM   19  N   UNL     1       4.822  26.005  53.732  1.00  0.00    -0.357 N 
HETATM   20  C   UNL     1       4.548  27.116  52.971  1.00  0.00     0.042 A 
HETATM   21  H   UNL     1       4.250  25.718  54.518  1.00  0.00     0.166 HD
HETATM   22  C   UNL     1       5.500  27.170  51.955  1.00  0.00    -0.008 A 
HETATM   23  C   UNL     1       3.522  28.061  53.090  1.00  0.00     0.030 A 
HETATM   24  C   UNL     1       5.429  28.207  51.007  1.00  0.00     0.014 A 
HETATM   25  C   UNL     1       6.364  26.058  52.137  1.00  0.00     0.040 A 
HETATM   26  C   UNL     1       4.409  29.158  51.110  1.00  0.00     0.001 A 
HETATM   27  C   UNL     1       3.471  29.084  52.138  1.00  0.00     0.002 A 
ENDBRANCH   1  18
TORSDOF 3
ENDMDL
MODEL 5
REMARK VINA RESULT:      -8.6      2.328      5.032
REMARK  3 active torsions:
REMARK  status: ('A' for Active; 'I' for Inactive)
REMARK    1  A    between atoms: C_7  and  C_8 
REMARK    2  A    between atoms: N_9  and  C_11 
REMARK    3  A    between atoms: C_11  and  C_12 
ROOT
HETATM    1  C   UNL     1       6.845  27.236  56.907  1.00  0.00     0.238 C 
HETATM    2  N   UNL     1       5.974  28.335  56.323  1.00  0.00    -0.056 N 
HETATM    3  H   UNL     1       6.463  28.635  55.474  1.00  0.00     0.281 HD
HETATM    4  C   UNL     1       5.878  29.554  57.211  1.00  0.00     0.236 C 
HETATM    5  C   UNL     1       7.261  30.108  57.499  1.00  0.00     0.028 C 
HETATM    6  C   UNL     1       8.123  29.056  58.174  1.00  0.00     0.004 C 
HETATM    7  C   UNL     1       8.219  27.815  57.300  1.00  0.00     0.040 C 
ENDROOT
BRANCH   2   8
HETATM    8  C   UNL     1       4.602  27.877  55.838  1.00  0.00     0.294 C 
BRANCH   8   9
HETATM    9  C   UNL     1       4.252  28.278  54.459  1.00  0.00     0.061 A 
HETATM   10  N   UNL     1       3.774  29.518  54.085  1.00  0.00    -0.305 N 
HETATM   11  C   UNL     1       3.636  29.492  52.719  1.00  0.00     0.151 A 
HETATM   12  C   UNL     1       3.453  30.673  54.781  1.00  0.00     0.118 A 
HETATM   13  C   UNL     1       3.209  30.686  52.041  1.00  0.00     0.167 A 
HETATM   14  N   UNL     1       3.915  28.319  52.205  1.00  0.00    -0.239 NA
HETATM   15  N   UNL     1       2.944  31.781  52.701  1.00  0.00    -0.268 NA
HETATM   16  C   UNL     1       3.052  31.749  54.080  1.00  0.00     0.134 A 
HETATM   17  C   UNL     1       4.242  27.544  53.282  1.00  0.00     0.146 A 
ENDBRANCH   8   9
ENDBRANCH   2   8
BRANCH   1  18
HETATM   18  C   UNL     1       7.071  26.121  55.934  1.00  0.00     0.041 A 
HETATM   19  N   UNL     1       7.084  24.800  56.332  1.00  0.00    -0.357 N 
HETATM   20  C   UNL     1       7.351  23.978  55.262  1.00  0.00     0.042 A 
HETATM   21  H   UNL     1       6.937  24.454  57.273  1.00  0.00     0.166 HD
HETATM   22  C   UNL     1       7.550  24.793  54.150  1.00  0.00    -0.008 A 
HETATM   23  C   UNL     1       7.454  22.583  55.200  1.00  0.00     0.030 A 
HETATM   24  C   UNL     1       7.872  24.198  52.917  1.00  0.00     0.014 A 
HETATM   25  C   UNL     1       7.382  26.135  54.584  1.00  0.00     0.040 A 
HETATM   26  C   UNL     1       7.981  22.805  52.838  1.00  0.00     0.001 A 
HETATM   27  C   UNL     1       7.773  22.013  53.965  1.00  0.00     0.002 A 
ENDBRANCH   1  18
TORSDOF 3
ENDMDL
MODEL 6
REMARK VINA RESULT:      -8.5      3.212      6.237
REMARK  3 active torsions:
REMARK  status: ('A' for Active; 'I' for Inactive)
REMARK    1  A    between atoms: C_7  and  C_8 
REMARK    2  A    between atoms: N_9  and  C_11 
REMARK    3  A    between atoms: C_11  and  C_12 
ROOT
HETATM    1  C   UNL     1       5.795  26.455  55.470  1.00  0.00     0.238 C 
HETATM    2  N   UNL     1       5.731  27.523  54.392  1.00  0.00    -0.056 N 
HETATM    3  H   UNL     1       6.696  27.619  54.059  1.00  0.00     0.281 HD
HETATM    4  C   UNL     1       5.327  28.880  54.921  1.00  0.00     0.236 C 
HETATM    5  C   UNL     1       6.280  29.325  56.015  1.00  0.00     0.028 C 
HETATM    6  C   UNL     1       6.288  28.319  57.153  1.00  0.00     0.004 C 
HETATM    7  C   UNL     1       6.679  26.944  56.635  1.00  0.00     0.040 C 
ENDROOT
BRANCH   2   8
HETATM    8  C   UNL     1       4.931  27.136  53.152  1.00  0.00     0.294 C 
BRANCH   8   9
HETATM    9  C   UNL     1       5.212  27.939  51.942  1.00  0.00     0.061 A 
HETATM   10  N   UNL     1       5.051  27.504  50.641  1.00  0.00    -0.305 N 
HETATM   11  C   UNL     1       5.361  28.567  49.829  1.00  0.00     0.151 A 
HETATM   12  C   UNL     1       4.658  26.304  50.072  1.00  0.00     0.118 A 
HETATM   13  C   UNL     1       5.220  28.419  48.406  1.00  0.00     0.167 A 
HETATM   14  N   UNL     1       5.775  29.614  50.503  1.00  0.00    -0.239 NA
HETATM   15  N   UNL     1       4.813  27.295  47.880  1.00  0.00    -0.268 NA
HETATM   16  C   UNL     1       4.556  26.236  48.732  1.00  0.00     0.134 A 
HETATM   17  C   UNL     1       5.741  29.214  51.809  1.00  0.00     0.146 A 
ENDBRANCH   8   9
ENDBRANCH   2   8
BRANCH   1  18
HETATM   18  C   UNL     1       6.370  25.172  54.956  1.00  0.00     0.041 A 
HETATM   19  N   UNL     1       6.672  24.121  55.798  1.00  0.00    -0.357 N 
HETATM   20  C   UNL     1       7.224  23.080  55.090  1.00  0.00     0.042 A 
HETATM   21  H   UNL     1       6.533  24.096  56.802  1.00  0.00     0.166 HD
HETATM   22  C   UNL     1       7.314  23.482  53.759  1.00  0.00    -0.008 A 
HETATM   23  C   UNL     1       7.670  21.827  55.528  1.00  0.00     0.030 A 
HETATM   24  C   UNL     1       7.877  22.603  52.816  1.00  0.00     0.014 A 
HETATM   25  C   UNL     1       6.785  24.799  53.687  1.00  0.00     0.040 A 
HETATM   26  C   UNL     1       8.329  21.348  53.238  1.00  0.00     0.001 A 
HETATM   27  C   UNL     1       8.226  20.969  54.575  1.00  0.00     0.002 A 
ENDBRANCH   1  18
TORSDOF 3
ENDMDL
MODEL 7
REMARK VINA RESULT:      -8.3      2.695      4.591
REMARK  3 active torsions:
REMARK  status: ('A' for Active; 'I' for Inactive)
REMARK    1  A    between atoms: C_7  and  C_8 
REMARK    2  A    between atoms: N_9  and  C_11 
REMARK    3  A    between atoms: C_11  and  C_12 
ROOT
HETATM    1  C   UNL     1       5.689  26.740  50.800  1.00  0.00     0.238 C 
HETATM    2  N   UNL     1       4.995  27.890  51.509  1.00  0.00    -0.056 N 
HETATM    3  H   UNL     1       4.283  27.445  52.097  1.00  0.00     0.281 HD
HETATM    4  C   UNL     1       4.253  28.809  50.566  1.00  0.00     0.236 C 
HETATM    5  C   UNL     1       3.233  28.027  49.758  1.00  0.00     0.028 C 
HETATM    6  C   UNL     1       3.918  26.929  48.962  1.00  0.00     0.004 C 
HETATM    7  C   UNL     1       4.682  26.002  49.895  1.00  0.00     0.040 C 
ENDROOT
BRANCH   2   8
HETATM    8  C   UNL     1       5.873  28.667  52.484  1.00  0.00     0.294 C 
BRANCH   8   9
HETATM    9  C   UNL     1       5.366  28.742  53.871  1.00  0.00     0.061 A 
HETATM   10  N   UNL     1       6.103  28.470  55.007  1.00  0.00    -0.305 N 
HETATM   11  C   UNL     1       5.281  28.717  56.078  1.00  0.00     0.151 A 
HETATM   12  C   UNL     1       7.403  28.046  55.227  1.00  0.00     0.118 A 
HETATM   13  C   UNL     1       5.812  28.576  57.408  1.00  0.00     0.167 A 
HETATM   14  N   UNL     1       4.065  29.050  55.717  1.00  0.00    -0.239 NA
HETATM   15  N   UNL     1       7.050  28.211  57.607  1.00  0.00    -0.268 NA
HETATM   16  C   UNL     1       7.828  27.928  56.499  1.00  0.00     0.134 A 
HETATM   17  C   UNL     1       4.093  29.012  54.352  1.00  0.00     0.146 A 
ENDBRANCH   8   9
ENDBRANCH   2   8
BRANCH   1  18
HETATM   18  C   UNL     1       6.260  25.748  51.765  1.00  0.00     0.041 A 
HETATM   19  N   UNL     1       5.749  25.595  53.038  1.00  0.00    -0.357 N 
HETATM   20  C   UNL     1       6.470  24.656  53.737  1.00  0.00     0.042 A 
HETATM   21  H   UNL     1       4.965  26.099  53.436  1.00  0.00     0.166 HD
HETATM   22  C   UNL     1       7.497  24.216  52.904  1.00  0.00    -0.008 A 
HETATM   23  C   UNL     1       6.307  24.182  55.044  1.00  0.00     0.030 A 
HETATM   24  C   UNL     1       8.410  23.263  53.392  1.00  0.00     0.014 A 
HETATM   25  C   UNL     1       7.363  24.914  51.675  1.00  0.00     0.040 A 
HETATM   26  C   UNL     1       8.263  22.781  54.697  1.00  0.00     0.001 A 
HETATM   27  C   UNL     1       7.225  23.235  55.508  1.00  0.00     0.002 A 
ENDBRANCH   1  18
TORSDOF 3
ENDMDL
MODEL 8
REMARK VINA RESULT:      -8.3      2.310      8.463
REMARK  3 active torsions:
REMARK  status: ('A' for Active; 'I' for Inactive)
REMARK    1  A    between atoms: C_7  and  C_8 
REMARK    2  A    between atoms: N_9  and  C_11 
REMARK    3  A    between atoms: C_11  and  C_12 
ROOT
HETATM    1  C   UNL     1       8.830  31.194  58.489  1.00  0.00     0.238 C 
HETATM    2  N   UNL     1       8.427  29.769  58.151  1.00  0.00    -0.056 N 
HETATM    3  H   UNL     1       8.788  29.203  58.925  1.00  0.00     0.281 HD
HETATM    4  C   UNL     1       9.090  29.245  56.897  1.00  0.00     0.236 C 
HETATM    5  C   UNL     1      10.600  29.325  57.024  1.00  0.00     0.028 C 
HETATM    6  C   UNL     1      11.036  30.760  57.266  1.00  0.00     0.004 C 
HETATM    7  C   UNL     1      10.367  31.307  58.517  1.00  0.00     0.040 C 
ENDROOT
BRANCH   2   8
HETATM    8  C   UNL     1       6.924  29.509  58.149  1.00  0.00     0.294 C 
BRANCH   8   9
HETATM    9  C   UNL     1       6.408  28.786  56.968  1.00  0.00     0.061 A 
HETATM   10  N   UNL     1       6.486  27.421  56.769  1.00  0.00    -0.305 N 
HETATM   11  C   UNL     1       5.839  27.157  55.588  1.00  0.00     0.151 A 
HETATM   12  C   UNL     1       7.038  26.377  57.493  1.00  0.00     0.118 A 
HETATM   13  C   UNL     1       5.708  25.792  55.157  1.00  0.00     0.167 A 
HETATM   14  N   UNL     1       5.423  28.245  54.984  1.00  0.00    -0.239 NA
HETATM   15  N   UNL     1       6.200  24.810  55.864  1.00  0.00    -0.268 NA
HETATM   16  C   UNL     1       6.884  25.125  57.024  1.00  0.00     0.134 A 
HETATM   17  C   UNL     1       5.823  29.263  55.804  1.00  0.00     0.146 A 
ENDBRANCH   8   9
ENDBRANCH   2   8
BRANCH   1  18
HETATM   18  C   UNL     1       8.307  31.623  59.824  1.00  0.00     0.041 A 
HETATM   19  N   UNL     1       7.126  32.325  59.952  1.00  0.00    -0.357 N 
HETATM   20  C   UNL     1       6.889  32.634  61.271  1.00  0.00     0.042 A 
HETATM   21  H   UNL     1       6.507  32.603  59.199  1.00  0.00     0.166 HD
HETATM   22  C   UNL     1       7.964  32.148  62.011  1.00  0.00    -0.008 A 
HETATM   23  C   UNL     1       5.822  33.324  61.858  1.00  0.00     0.030 A 
HETATM   24  C   UNL     1       7.986  32.359  63.402  1.00  0.00     0.014 A 
HETATM   25  C   UNL     1       8.852  31.525  61.095  1.00  0.00     0.040 A 
HETATM   26  C   UNL     1       6.928  33.049  64.005  1.00  0.00     0.001 A 
HETATM   27  C   UNL     1       5.863  33.522  63.241  1.00  0.00     0.002 A 
ENDBRANCH   1  18
TORSDOF 3
ENDMDL
MODEL 9
REMARK VINA RESULT:      -8.2      3.541      8.635
REMARK  3 active torsions:
REMARK  status: ('A' for Active; 'I' for Inactive)
REMARK    1  A    between atoms: C_7  and  C_8 
REMARK    2  A    between atoms: N_9  and  C_11 
REMARK    3  A    between atoms: C_11  and  C_12 
ROOT
HETATM    1  C   UNL     1       8.747  31.294  58.504  1.00  0.00     0.238 C 
HETATM    2  N   UNL     1       8.018  30.034  58.070  1.00  0.00    -0.056 N 
HETATM    3  H   UNL     1       8.215  29.349  58.808  1.00  0.00     0.281 HD
HETATM    4  C   UNL     1       8.560  29.445  56.788  1.00  0.00     0.236 C 
HETATM    5  C   UNL     1      10.042  29.147  56.928  1.00  0.00     0.028 C 
HETATM    6  C   UNL     1      10.807  30.414  57.266  1.00  0.00     0.004 C 
HETATM    7  C   UNL     1      10.265  31.028  58.548  1.00  0.00     0.040 C 
ENDROOT
BRANCH   2   8
HETATM    8  C   UNL     1       6.497  30.148  58.044  1.00  0.00     0.294 C 
BRANCH   8   9
HETATM    9  C   UNL     1       5.808  29.214  57.128  1.00  0.00     0.061 A 
HETATM   10  N   UNL     1       5.100  29.580  56.000  1.00  0.00    -0.305 N 
HETATM   11  C   UNL     1       4.676  28.416  55.407  1.00  0.00     0.151 A 
HETATM   12  C   UNL     1       4.787  30.796  55.416  1.00  0.00     0.118 A 
HETATM   13  C   UNL     1       3.958  28.492  54.164  1.00  0.00     0.167 A 
HETATM   14  N   UNL     1       4.991  27.350  56.103  1.00  0.00    -0.239 NA
HETATM   15  N   UNL     1       3.699  29.641  53.601  1.00  0.00    -0.268 NA
HETATM   16  C   UNL     1       4.105  30.790  54.256  1.00  0.00     0.134 A 
HETATM   17  C   UNL     1       5.642  27.839  57.200  1.00  0.00     0.146 A 
ENDBRANCH   8   9
ENDBRANCH   2   8
BRANCH   1  18
HETATM   18  C   UNL     1       8.316  31.753  59.862  1.00  0.00     0.041 A 
HETATM   19  N   UNL     1       7.269  32.635  60.034  1.00  0.00    -0.357 N 
HETATM   20  C   UNL     1       7.100  32.929  61.367  1.00  0.00     0.042 A 
HETATM   21  H   UNL     1       6.697  33.040  59.301  1.00  0.00     0.166 HD
HETATM   22  C   UNL     1       8.087  32.244  62.072  1.00  0.00    -0.008 A 
HETATM   23  C   UNL     1       6.168  33.763  61.996  1.00  0.00     0.030 A 
HETATM   24  C   UNL     1       8.157  32.396  63.469  1.00  0.00     0.014 A 
HETATM   25  C   UNL     1       8.850  31.518  61.119  1.00  0.00     0.040 A 
HETATM   26  C   UNL     1       7.234  33.227  64.113  1.00  0.00     0.001 A 
HETATM   27  C   UNL     1       6.255  33.898  63.384  1.00  0.00     0.002 A 
ENDBRANCH   1  18
TORSDOF 3
ENDMDL
MODEL 10
REMARK VINA RESULT:      -8.1      7.386     10.938
REMARK  3 active torsions:
REMARK  status: ('A' for Active; 'I' for Inactive)
REMARK    1  A    between atoms: C_7  and  C_8 
REMARK    2  A    between atoms: N_9  and  C_11 
REMARK    3  A    between atoms: C_11  and  C_12 
ROOT
HETATM    1  C   UNL     1       5.503  33.462  64.924  1.00  0.00     0.238 C 
HETATM    2  N   UNL     1       4.519  34.531  64.484  1.00  0.00    -0.056 N 
HETATM    3  H   UNL     1       5.102  35.297  64.131  1.00  0.00     0.281 HD
HETATM    4  C   UNL     1       3.712  35.104  65.627  1.00  0.00     0.236 C 
HETATM    5  C   UNL     1       4.632  35.674  66.690  1.00  0.00     0.028 C 
HETATM    6  C   UNL     1       5.564  34.596  67.217  1.00  0.00     0.004 C 
HETATM    7  C   UNL     1       6.374  33.999  66.077  1.00  0.00     0.040 C 
ENDROOT
BRANCH   2   8
HETATM    8  C   UNL     1       3.634  34.143  63.303  1.00  0.00     0.294 C 
BRANCH   8   9
HETATM    9  C   UNL     1       3.551  35.144  62.219  1.00  0.00     0.061 A 
HETATM   10  N   UNL     1       2.502  35.273  61.330  1.00  0.00    -0.305 N 
HETATM   11  C   UNL     1       2.791  36.353  60.532  1.00  0.00     0.151 A 
HETATM   12  C   UNL     1       1.320  34.577  61.133  1.00  0.00     0.118 A 
HETATM   13  C   UNL     1       1.831  36.763  59.543  1.00  0.00     0.167 A 
HETATM   14  N   UNL     1       3.967  36.873  60.792  1.00  0.00    -0.239 NA
HETATM   15  N   UNL     1       0.703  36.124  59.389  1.00  0.00    -0.268 NA
HETATM   16  C   UNL     1       0.474  35.014  60.182  1.00  0.00     0.134 A 
HETATM   17  C   UNL     1       4.469  36.095  61.796  1.00  0.00     0.146 A 
ENDBRANCH   8   9
ENDBRANCH   2   8
BRANCH   1  18
HETATM   18  C   UNL     1       6.412  33.043  63.810  1.00  0.00     0.041 A 
HETATM   19  N   UNL     1       5.928  32.709  62.562  1.00  0.00    -0.357 N 
HETATM   20  C   UNL     1       6.956  32.322  61.735  1.00  0.00     0.042 A 
HETATM   21  H   UNL     1       4.957  32.720  62.271  1.00  0.00     0.166 HD
HETATM   22  C   UNL     1       8.132  32.376  62.479  1.00  0.00    -0.008 A 
HETATM   23  C   UNL     1       6.930  31.909  60.397  1.00  0.00     0.030 A 
HETATM   24  C   UNL     1       9.343  31.997  61.870  1.00  0.00     0.014 A 
HETATM   25  C   UNL     1       7.780  32.819  63.781  1.00  0.00     0.040 A 
HETATM   26  C   UNL     1       9.335  31.580  60.535  1.00  0.00     0.001 A 
HETATM   27  C   UNL     1       8.144  31.538  59.812  1.00  0.00     0.002 A 
ENDBRANCH   1  18
TORSDOF 3
ENDMDL
