MODEL 1
REMARK VINA RESULT:     -10.2      0.000      0.000
REMARK  3 active torsions:
REMARK  status: ('A' for Active; 'I' for Inactive)
REMARK    1  A    between atoms: C_8  and  C_9 
REMARK    2  A    between atoms: C_14  and  C_15 
REMARK    3  A    between atoms: C_17  and  O_18 
ROOT
HETATM    1  C   UNL     1       7.499  29.471  57.372  1.00  0.00     0.143 A 
HETATM    2  N   UNL     1       6.581  29.803  56.488  1.00  0.00    -0.223 NA
HETATM    3  C   UNL     1       5.861  28.659  56.213  1.00  0.00     0.149 A 
HETATM    4  C   UNL     1       6.372  27.603  56.948  1.00  0.00     0.046 A 
HETATM    5  C   UNL     1       5.888  26.203  57.081  1.00  0.00     0.070 C 
HETATM    6  C   UNL     1       5.673  25.462  55.741  1.00  0.00     0.042 C 
HETATM    7  C   UNL     1       5.415  26.354  54.509  1.00  0.00     0.132 C 
HETATM    8  N   UNL     1       4.424  27.395  54.715  1.00  0.00    -0.355 N 
HETATM    9  C   UNL     1       4.713  28.612  55.304  1.00  0.00     0.272 C 
HETATM   10  O   UNL     1       4.005  29.582  55.045  1.00  0.00    -0.266 OA
HETATM   11  N   UNL     1       7.411  28.135  57.668  1.00  0.00    -0.341 N 
HETATM   12  H   UNL     1       7.984  27.648  58.340  1.00  0.00     0.167 HD
HETATM   13  H   UNL     1       3.684  27.489  54.030  1.00  0.00     0.162 HD
ENDROOT
BRANCH   1  14
HETATM   14  C   UNL     1       8.466  30.437  57.958  1.00  0.00     0.059 A 
HETATM   15  C   UNL     1       9.829  30.519  57.742  1.00  0.00     0.040 A 
HETATM   16  C   UNL     1      10.787  29.750  56.917  1.00  0.00     0.071 C 
HETATM   17  N   UNL     1      10.250  31.567  58.519  1.00  0.00    -0.281 N 
HETATM   18  H   UNL     1      11.191  31.929  58.625  1.00  0.00     0.189 HD
HETATM   19  N   UNL     1       9.272  32.167  59.208  1.00  0.00    -0.179 NA
HETATM   20  C   UNL     1       8.171  31.477  58.879  1.00  0.00     0.067 A 
HETATM   21  C   UNL     1       6.858  31.842  59.470  1.00  0.00     0.073 C 
ENDBRANCH   1  14
BRANCH   6  22
HETATM   22  C   UNL     1       6.804  24.482  55.441  1.00  0.00    -0.049 A 
HETATM   23  C   UNL     1       6.837  23.739  54.246  1.00  0.00     0.044 A 
HETATM   24  C   UNL     1       7.874  22.837  53.996  1.00  0.00     0.068 A 
HETATM   25  C   UNL     1       8.885  22.674  54.945  1.00  0.00     0.037 A 
HETATM   26  C   UNL     1       8.862  23.399  56.136  1.00  0.00     0.003 A 
HETATM   27  C   UNL     1       7.827  24.298  56.383  1.00  0.00     0.007 A 
BRANCH  24  28
HETATM   28  O   UNL     1       8.018  22.065  52.876  1.00  0.00    -0.356 OA
HETATM   29  C   UNL     1       7.969  20.654  53.052  1.00  0.00     0.210 C 
ENDBRANCH  24  28
ENDBRANCH   6  22
TORSDOF 3
ENDMDL
MODEL 2
REMARK VINA RESULT:      -9.8      1.011      2.118
REMARK  3 active torsions:
REMARK  status: ('A' for Active; 'I' for Inactive)
REMARK    1  A    between atoms: C_8  and  C_9 
REMARK    2  A    between atoms: C_14  and  C_15 
REMARK    3  A    between atoms: C_17  and  O_18 
ROOT
HETATM    1  C   UNL     1       7.526  29.323  57.100  1.00  0.00     0.143 A 
HETATM    2  N   UNL     1       6.576  29.746  56.291  1.00  0.00    -0.223 NA
HETATM    3  C   UNL     1       5.810  28.644  55.968  1.00  0.00     0.149 A 
HETATM    4  C   UNL     1       6.325  27.523  56.595  1.00  0.00     0.046 A 
HETATM    5  C   UNL     1       5.807  26.129  56.648  1.00  0.00     0.070 C 
HETATM    6  C   UNL     1       5.505  25.499  55.270  1.00  0.00     0.042 C 
HETATM    7  C   UNL     1       5.214  26.487  54.122  1.00  0.00     0.132 C 
HETATM    8  N   UNL     1       4.265  27.535  54.455  1.00  0.00    -0.355 N 
HETATM    9  C   UNL     1       4.619  28.696  55.117  1.00  0.00     0.272 C 
HETATM   10  O   UNL     1       3.928  29.702  54.968  1.00  0.00    -0.266 OA
HETATM   11  N   UNL     1       7.413  27.971  57.300  1.00  0.00    -0.341 N 
HETATM   12  H   UNL     1       8.004  27.420  57.903  1.00  0.00     0.167 HD
HETATM   13  H   UNL     1       3.496  27.700  53.817  1.00  0.00     0.162 HD
ENDROOT
BRANCH   1  14
HETATM   14  C   UNL     1       8.549  30.216  57.706  1.00  0.00     0.059 A 
HETATM   15  C   UNL     1       8.381  31.150  58.711  1.00  0.00     0.040 A 
HETATM   16  C   UNL     1       7.221  31.599  59.514  1.00  0.00     0.071 C 
HETATM   17  N   UNL     1       9.622  31.704  58.894  1.00  0.00    -0.281 N 
HETATM   18  H   UNL     1       9.893  32.430  59.547  1.00  0.00     0.189 HD
HETATM   19  N   UNL     1      10.571  31.199  58.098  1.00  0.00    -0.179 NA
HETATM   20  C   UNL     1       9.924  30.288  57.357  1.00  0.00     0.067 A 
HETATM   21  C   UNL     1      10.655  29.513  56.322  1.00  0.00     0.073 C 
ENDBRANCH   1  14
BRANCH   6  22
HETATM   22  C   UNL     1       6.590  24.515  54.840  1.00  0.00    -0.049 A 
HETATM   23  C   UNL     1       7.220  23.663  55.767  1.00  0.00     0.044 A 
HETATM   24  C   UNL     1       8.221  22.778  55.357  1.00  0.00     0.068 A 
HETATM   25  C   UNL     1       8.598  22.746  54.013  1.00  0.00     0.037 A 
HETATM   26  C   UNL     1       7.987  23.588  53.085  1.00  0.00     0.003 A 
HETATM   27  C   UNL     1       6.989  24.469  53.496  1.00  0.00     0.007 A 
BRANCH  24  28
HETATM   28  O   UNL     1       8.900  21.903  56.158  1.00  0.00    -0.356 OA
HETATM   29  C   UNL     1       8.288  20.642  56.404  1.00  0.00     0.210 C 
ENDBRANCH  24  28
ENDBRANCH   6  22
TORSDOF 3
ENDMDL
MODEL 3
REMARK VINA RESULT:      -9.6      2.501      3.724
REMARK  3 active torsions:
REMARK  status: ('A' for Active; 'I' for Inactive)
REMARK    1  A    between atoms: C_8  and  C_9 
REMARK    2  A    between atoms: C_14  and  C_15 
REMARK    3  A    between atoms: C_17  and  O_18 
ROOT
HETATM    1  C   UNL     1       5.393  28.315  55.245  1.00  0.00     0.143 A 
HETATM    2  N   UNL     1       5.588  28.678  53.995  1.00  0.00    -0.223 NA
HETATM    3  C   UNL     1       5.546  27.528  53.234  1.00  0.00     0.149 A 
HETATM    4  C   UNL     1       5.328  26.436  54.058  1.00  0.00     0.046 A 
HETATM    5  C   UNL     1       5.103  25.006  53.718  1.00  0.00     0.070 C 
HETATM    6  C   UNL     1       6.177  24.384  52.797  1.00  0.00     0.042 C 
HETATM    7  C   UNL     1       6.963  25.371  51.909  1.00  0.00     0.132 C 
HETATM    8  N   UNL     1       6.138  26.334  51.202  1.00  0.00    -0.355 N 
HETATM    9  C   UNL     1       5.677  27.505  51.776  1.00  0.00     0.272 C 
HETATM   10  O   UNL     1       5.400  28.456  51.048  1.00  0.00    -0.266 OA
HETATM   11  N   UNL     1       5.242  26.954  55.326  1.00  0.00    -0.341 N 
HETATM   12  H   UNL     1       5.050  26.437  56.171  1.00  0.00     0.167 HD
HETATM   13  H   UNL     1       6.292  26.452  50.208  1.00  0.00     0.162 HD
ENDROOT
BRANCH   1  14
HETATM   14  C   UNL     1       5.332  29.271  56.382  1.00  0.00     0.059 A 
HETATM   15  C   UNL     1       6.199  29.382  57.453  1.00  0.00     0.040 A 
HETATM   16  C   UNL     1       7.423  28.659  57.864  1.00  0.00     0.071 C 
HETATM   17  N   UNL     1       5.696  30.407  58.213  1.00  0.00    -0.281 N 
HETATM   18  H   UNL     1       6.061  30.777  59.084  1.00  0.00     0.189 HD
HETATM   19  N   UNL     1       4.586  30.965  57.717  1.00  0.00    -0.179 NA
HETATM   20  C   UNL     1       4.347  30.272  56.595  1.00  0.00     0.067 A 
HETATM   21  C   UNL     1       3.163  30.594  55.758  1.00  0.00     0.073 C 
ENDBRANCH   1  14
BRANCH   6  22
HETATM   22  C   UNL     1       7.150  23.498  53.570  1.00  0.00    -0.049 A 
HETATM   23  C   UNL     1       7.434  23.727  54.930  1.00  0.00     0.044 A 
HETATM   24  C   UNL     1       8.338  22.912  55.617  1.00  0.00     0.068 A 
HETATM   25  C   UNL     1       8.965  21.863  54.942  1.00  0.00     0.037 A 
HETATM   26  C   UNL     1       8.698  21.628  53.594  1.00  0.00     0.003 A 
HETATM   27  C   UNL     1       7.796  22.441  52.911  1.00  0.00     0.007 A 
BRANCH  24  28
HETATM   28  O   UNL     1       8.690  23.032  56.933  1.00  0.00    -0.356 OA
HETATM   29  C   UNL     1       8.825  24.350  57.450  1.00  0.00     0.210 C 
ENDBRANCH  24  28
ENDBRANCH   6  22
TORSDOF 3
ENDMDL
MODEL 4
REMARK VINA RESULT:      -9.6      4.147      7.126
REMARK  3 active torsions:
REMARK  status: ('A' for Active; 'I' for Inactive)
REMARK    1  A    between atoms: C_8  and  C_9 
REMARK    2  A    between atoms: C_14  and  C_15 
REMARK    3  A    between atoms: C_17  and  O_18 
ROOT
HETATM    1  C   UNL     1       4.953  27.070  50.564  1.00  0.00     0.143 A 
HETATM    2  N   UNL     1       4.267  27.508  51.599  1.00  0.00    -0.223 NA
HETATM    3  C   UNL     1       5.023  27.235  52.722  1.00  0.00     0.149 A 
HETATM    4  C   UNL     1       6.196  26.604  52.347  1.00  0.00     0.046 A 
HETATM    5  C   UNL     1       7.373  26.202  53.163  1.00  0.00     0.070 C 
HETATM    6  C   UNL     1       7.038  25.340  54.401  1.00  0.00     0.042 C 
HETATM    7  C   UNL     1       5.607  25.483  54.959  1.00  0.00     0.132 C 
HETATM    8  N   UNL     1       5.157  26.854  55.118  1.00  0.00    -0.355 N 
HETATM    9  C   UNL     1       4.630  27.605  54.083  1.00  0.00     0.272 C 
HETATM   10  O   UNL     1       3.871  28.535  54.348  1.00  0.00    -0.266 OA
HETATM   11  N   UNL     1       6.130  26.502  50.980  1.00  0.00    -0.341 N 
HETATM   12  H   UNL     1       6.841  26.123  50.374  1.00  0.00     0.167 HD
HETATM   13  H   UNL     1       4.747  27.120  56.005  1.00  0.00     0.162 HD
ENDROOT
BRANCH   1  14
HETATM   14  C   UNL     1       4.496  27.206  49.155  1.00  0.00     0.059 A 
HETATM   15  C   UNL     1       4.584  28.312  48.331  1.00  0.00     0.040 A 
HETATM   16  C   UNL     1       5.118  29.681  48.501  1.00  0.00     0.071 C 
HETATM   17  N   UNL     1       4.016  27.918  47.147  1.00  0.00    -0.281 N 
HETATM   18  H   UNL     1       3.894  28.463  46.300  1.00  0.00     0.189 HD
HETATM   19  N   UNL     1       3.578  26.654  47.141  1.00  0.00    -0.179 NA
HETATM   20  C   UNL     1       3.860  26.206  48.372  1.00  0.00     0.067 A 
HETATM   21  C   UNL     1       3.500  24.819  48.761  1.00  0.00     0.073 C 
ENDBRANCH   1  14
BRANCH   6  22
HETATM   22  C   UNL     1       7.358  23.865  54.175  1.00  0.00    -0.049 A 
HETATM   23  C   UNL     1       7.360  22.940  55.237  1.00  0.00     0.044 A 
HETATM   24  C   UNL     1       7.668  21.596  55.012  1.00  0.00     0.068 A 
HETATM   25  C   UNL     1       7.980  21.172  53.719  1.00  0.00     0.037 A 
HETATM   26  C   UNL     1       7.989  22.078  52.658  1.00  0.00     0.003 A 
HETATM   27  C   UNL     1       7.680  23.417  52.885  1.00  0.00     0.007 A 
BRANCH  24  28
HETATM   28  O   UNL     1       7.698  20.608  55.956  1.00  0.00    -0.356 OA
HETATM   29  C   UNL     1       8.949  20.348  56.582  1.00  0.00     0.210 C 
ENDBRANCH  24  28
ENDBRANCH   6  22
TORSDOF 3
ENDMDL
MODEL 5
REMARK VINA RESULT:      -9.3      3.497      7.488
REMARK  3 active torsions:
REMARK  status: ('A' for Active; 'I' for Inactive)
REMARK    1  A    between atoms: C_8  and  C_9 
REMARK    2  A    between atoms: C_14  and  C_15 
REMARK    3  A    between atoms: C_17  and  O_18 
ROOT
HETATM    1  C   UNL     1       7.610  23.269  54.287  1.00  0.00     0.143 A 
HETATM    2  N   UNL     1       6.466  23.349  53.639  1.00  0.00    -0.223 NA
HETATM    3  C   UNL     1       6.292  24.676  53.301  1.00  0.00     0.149 A 
HETATM    4  C   UNL     1       7.362  25.417  53.771  1.00  0.00     0.046 A 
HETATM    5  C   UNL     1       7.693  26.855  53.579  1.00  0.00     0.070 C 
HETATM    6  C   UNL     1       6.558  27.835  53.953  1.00  0.00     0.042 C 
HETATM    7  C   UNL     1       5.126  27.262  53.906  1.00  0.00     0.132 C 
HETATM    8  N   UNL     1       4.816  26.511  52.702  1.00  0.00    -0.355 N 
HETATM    9  C   UNL     1       5.155  25.182  52.529  1.00  0.00     0.272 C 
HETATM   10  O   UNL     1       4.499  24.497  51.746  1.00  0.00    -0.266 OA
HETATM   11  N   UNL     1       8.180  24.511  54.398  1.00  0.00    -0.341 N 
HETATM   12  H   UNL     1       9.073  24.707  54.824  1.00  0.00     0.167 HD
HETATM   13  H   UNL     1       3.961  26.736  52.209  1.00  0.00     0.162 HD
ENDROOT
BRANCH   1  14
HETATM   14  C   UNL     1       8.181  21.994  54.796  1.00  0.00     0.059 A 
HETATM   15  C   UNL     1       8.481  20.847  54.085  1.00  0.00     0.040 A 
HETATM   16  C   UNL     1       8.364  20.460  52.661  1.00  0.00     0.071 C 
HETATM   17  N   UNL     1       8.972  19.969  55.016  1.00  0.00    -0.281 N 
HETATM   18  H   UNL     1       9.295  19.019  54.871  1.00  0.00     0.189 HD
HETATM   19  N   UNL     1       9.019  20.458  56.261  1.00  0.00    -0.179 NA
HETATM   20  C   UNL     1       8.528  21.700  56.141  1.00  0.00     0.067 A 
HETATM   21  C   UNL     1       8.403  22.570  57.338  1.00  0.00     0.073 C 
ENDBRANCH   1  14
BRANCH   6  22
HETATM   22  C   UNL     1       6.801  28.505  55.302  1.00  0.00    -0.049 A 
HETATM   23  C   UNL     1       8.101  28.805  55.752  1.00  0.00     0.044 A 
HETATM   24  C   UNL     1       8.304  29.407  56.996  1.00  0.00     0.068 A 
HETATM   25  C   UNL     1       7.203  29.710  57.799  1.00  0.00     0.037 A 
HETATM   26  C   UNL     1       5.910  29.412  57.370  1.00  0.00     0.003 A 
HETATM   27  C   UNL     1       5.710  28.813  56.128  1.00  0.00     0.007 A 
BRANCH  24  28
HETATM   28  O   UNL     1       9.512  29.750  57.537  1.00  0.00    -0.356 OA
HETATM   29  C   UNL     1      10.633  29.765  56.662  1.00  0.00     0.210 C 
ENDBRANCH  24  28
ENDBRANCH   6  22
TORSDOF 3
ENDMDL
MODEL 6
REMARK VINA RESULT:      -9.0      4.026      7.596
REMARK  3 active torsions:
REMARK  status: ('A' for Active; 'I' for Inactive)
REMARK    1  A    between atoms: C_8  and  C_9 
REMARK    2  A    between atoms: C_14  and  C_15 
REMARK    3  A    between atoms: C_17  and  O_18 
ROOT
HETATM    1  C   UNL     1       7.619  23.275  55.341  1.00  0.00     0.143 A 
HETATM    2  N   UNL     1       8.254  24.228  55.992  1.00  0.00    -0.223 NA
HETATM    3  C   UNL     1       7.517  25.383  55.826  1.00  0.00     0.149 A 
HETATM    4  C   UNL     1       6.409  25.115  55.040  1.00  0.00     0.046 A 
HETATM    5  C   UNL     1       5.267  25.990  54.661  1.00  0.00     0.070 C 
HETATM    6  C   UNL     1       5.669  27.343  54.032  1.00  0.00     0.042 C 
HETATM    7  C   UNL     1       7.077  27.864  54.389  1.00  0.00     0.132 C 
HETATM    8  N   UNL     1       7.399  27.810  55.803  1.00  0.00    -0.355 N 
HETATM    9  C   UNL     1       7.863  26.670  56.433  1.00  0.00     0.272 C 
HETATM   10  O   UNL     1       8.532  26.785  57.458  1.00  0.00    -0.266 OA
HETATM   11  N   UNL     1       6.496  23.780  54.738  1.00  0.00    -0.341 N 
HETATM   12  H   UNL     1       5.827  23.242  54.208  1.00  0.00     0.167 HD
HETATM   13  H   UNL     1       7.775  28.644  56.237  1.00  0.00     0.162 HD
ENDROOT
BRANCH   1  14
HETATM   14  C   UNL     1       8.074  21.860  55.302  1.00  0.00     0.059 A 
HETATM   15  C   UNL     1       8.420  21.043  56.363  1.00  0.00     0.040 A 
HETATM   16  C   UNL     1       8.475  21.231  57.829  1.00  0.00     0.071 C 
HETATM   17  N   UNL     1       8.770  19.847  55.791  1.00  0.00    -0.281 N 
HETATM   18  H   UNL     1       9.086  19.002  56.253  1.00  0.00     0.189 HD
HETATM   19  N   UNL     1       8.672  19.826  54.456  1.00  0.00    -0.179 NA
HETATM   20  C   UNL     1       8.252  21.060  54.142  1.00  0.00     0.067 A 
HETATM   21  C   UNL     1       8.037  21.434  52.721  1.00  0.00     0.073 C 
ENDBRANCH   1  14
BRANCH   6  22
HETATM   22  C   UNL     1       5.486  27.346  52.517  1.00  0.00    -0.049 A 
HETATM   23  C   UNL     1       5.587  28.532  51.765  1.00  0.00     0.044 A 
HETATM   24  C   UNL     1       5.404  28.516  50.380  1.00  0.00     0.068 A 
HETATM   25  C   UNL     1       5.116  27.309  49.741  1.00  0.00     0.037 A 
HETATM   26  C   UNL     1       5.006  26.127  50.473  1.00  0.00     0.003 A 
HETATM   27  C   UNL     1       5.190  26.146  51.854  1.00  0.00     0.007 A 
BRANCH  24  28
HETATM   28  O   UNL     1       5.481  29.596  49.545  1.00  0.00    -0.356 OA
HETATM   29  C   UNL     1       4.911  29.455  48.250  1.00  0.00     0.210 C 
ENDBRANCH  24  28
ENDBRANCH   6  22
TORSDOF 3
ENDMDL
MODEL 7
REMARK VINA RESULT:      -8.9      3.457      7.786
REMARK  3 active torsions:
REMARK  status: ('A' for Active; 'I' for Inactive)
REMARK    1  A    between atoms: C_8  and  C_9 
REMARK    2  A    between atoms: C_14  and  C_15 
REMARK    3  A    between atoms: C_17  and  O_18 
ROOT
HETATM    1  C   UNL     1       7.614  23.154  54.314  1.00  0.00     0.143 A 
HETATM    2  N   UNL     1       6.482  23.303  53.659  1.00  0.00    -0.223 NA
HETATM    3  C   UNL     1       6.358  24.649  53.379  1.00  0.00     0.149 A 
HETATM    4  C   UNL     1       7.448  25.330  53.893  1.00  0.00     0.046 A 
HETATM    5  C   UNL     1       7.830  26.763  53.770  1.00  0.00     0.070 C 
HETATM    6  C   UNL     1       6.725  27.764  54.176  1.00  0.00     0.042 C 
HETATM    7  C   UNL     1       5.275  27.245  54.088  1.00  0.00     0.132 C 
HETATM    8  N   UNL     1       4.954  26.560  52.848  1.00  0.00    -0.355 N 
HETATM    9  C   UNL     1       5.248  25.228  52.619  1.00  0.00     0.272 C 
HETATM   10  O   UNL     1       4.579  24.603  51.799  1.00  0.00    -0.266 OA
HETATM   11  N   UNL     1       8.226  24.369  54.487  1.00  0.00    -0.341 N 
HETATM   12  H   UNL     1       9.120  24.514  54.931  1.00  0.00     0.167 HD
HETATM   13  H   UNL     1       4.113  26.836  52.357  1.00  0.00     0.162 HD
ENDROOT
BRANCH   1  14
HETATM   14  C   UNL     1       8.135  21.838  54.772  1.00  0.00     0.059 A 
HETATM   15  C   UNL     1       8.440  21.441  56.060  1.00  0.00     0.040 A 
HETATM   16  C   UNL     1       8.379  22.103  57.382  1.00  0.00     0.071 C 
HETATM   17  N   UNL     1       8.885  20.150  55.938  1.00  0.00    -0.281 N 
HETATM   18  H   UNL     1       9.205  19.526  56.671  1.00  0.00     0.189 HD
HETATM   19  N   UNL     1       8.885  19.685  54.683  1.00  0.00    -0.179 NA
HETATM   20  C   UNL     1       8.433  20.715  53.954  1.00  0.00     0.067 A 
HETATM   21  C   UNL     1       8.306  20.587  52.480  1.00  0.00     0.073 C 
ENDBRANCH   1  14
BRANCH   6  22
HETATM   22  C   UNL     1       6.975  28.364  55.556  1.00  0.00    -0.049 A 
HETATM   23  C   UNL     1       6.085  29.294  56.128  1.00  0.00     0.044 A 
HETATM   24  C   UNL     1       6.338  29.842  57.388  1.00  0.00     0.068 A 
HETATM   25  C   UNL     1       7.488  29.461  58.082  1.00  0.00     0.037 A 
HETATM   26  C   UNL     1       8.382  28.546  57.526  1.00  0.00     0.003 A 
HETATM   27  C   UNL     1       8.127  28.001  56.270  1.00  0.00     0.007 A 
BRANCH  24  28
HETATM   28  O   UNL     1       5.551  30.746  58.046  1.00  0.00    -0.356 OA
HETATM   29  C   UNL     1       4.145  30.635  57.862  1.00  0.00     0.210 C 
ENDBRANCH  24  28
ENDBRANCH   6  22
TORSDOF 3
ENDMDL
MODEL 8
REMARK VINA RESULT:      -8.7      3.065      5.102
REMARK  3 active torsions:
REMARK  status: ('A' for Active; 'I' for Inactive)
REMARK    1  A    between atoms: C_8  and  C_9 
REMARK    2  A    between atoms: C_14  and  C_15 
REMARK    3  A    between atoms: C_17  and  O_18 
ROOT
HETATM    1  C   UNL     1       6.775  31.725  60.372  1.00  0.00     0.143 A 
HETATM    2  N   UNL     1       8.070  31.854  60.176  1.00  0.00    -0.223 NA
HETATM    3  C   UNL     1       8.343  31.304  58.940  1.00  0.00     0.149 A 
HETATM    4  C   UNL     1       7.173  30.819  58.382  1.00  0.00     0.046 A 
HETATM    5  C   UNL     1       6.920  30.235  57.037  1.00  0.00     0.070 C 
HETATM    6  C   UNL     1       7.855  29.065  56.654  1.00  0.00     0.042 C 
HETATM    7  C   UNL     1       9.220  29.026  57.373  1.00  0.00     0.132 C 
HETATM    8  N   UNL     1       9.925  30.295  57.396  1.00  0.00    -0.355 N 
HETATM    9  C   UNL     1       9.673  31.287  58.326  1.00  0.00     0.272 C 
HETATM   10  O   UNL     1      10.559  32.097  58.589  1.00  0.00    -0.266 OA
HETATM   11  N   UNL     1       6.194  31.087  59.305  1.00  0.00    -0.341 N 
HETATM   12  H   UNL     1       5.209  30.899  59.205  1.00  0.00     0.167 HD
HETATM   13  H   UNL     1      10.896  30.305  57.109  1.00  0.00     0.162 HD
ENDROOT
BRANCH   1  14
HETATM   14  C   UNL     1       6.070  32.225  61.583  1.00  0.00     0.059 A 
HETATM   15  C   UNL     1       6.607  32.525  62.821  1.00  0.00     0.040 A 
HETATM   16  C   UNL     1       7.972  32.472  63.390  1.00  0.00     0.071 C 
HETATM   17  N   UNL     1       5.541  32.937  63.579  1.00  0.00    -0.281 N 
HETATM   18  H   UNL     1       5.542  33.236  64.548  1.00  0.00     0.189 HD
HETATM   19  N   UNL     1       4.371  32.933  62.931  1.00  0.00    -0.179 NA
HETATM   20  C   UNL     1       4.680  32.490  61.704  1.00  0.00     0.067 A 
HETATM   21  C   UNL     1       3.617  32.330  60.680  1.00  0.00     0.073 C 
ENDBRANCH   1  14
BRANCH   6  22
HETATM   22  C   UNL     1       7.163  27.712  56.789  1.00  0.00    -0.049 A 
HETATM   23  C   UNL     1       7.898  26.515  56.891  1.00  0.00     0.044 A 
HETATM   24  C   UNL     1       7.246  25.284  57.000  1.00  0.00     0.068 A 
HETATM   25  C   UNL     1       5.850  25.247  57.005  1.00  0.00     0.037 A 
HETATM   26  C   UNL     1       5.109  26.423  56.898  1.00  0.00     0.003 A 
HETATM   27  C   UNL     1       5.762  27.649  56.790  1.00  0.00     0.007 A 
BRANCH  24  28
HETATM   28  O   UNL     1       7.847  24.061  57.109  1.00  0.00    -0.356 OA
HETATM   29  C   UNL     1       7.923  23.270  55.930  1.00  0.00     0.210 C 
ENDBRANCH  24  28
ENDBRANCH   6  22
TORSDOF 3
ENDMDL
MODEL 9
REMARK VINA RESULT:      -8.4      2.939      4.947
REMARK  3 active torsions:
REMARK  status: ('A' for Active; 'I' for Inactive)
REMARK    1  A    between atoms: C_8  and  C_9 
REMARK    2  A    between atoms: C_14  and  C_15 
REMARK    3  A    between atoms: C_17  and  O_18 
ROOT
HETATM    1  C   UNL     1       6.926  31.557  60.019  1.00  0.00     0.143 A 
HETATM    2  N   UNL     1       8.224  31.727  59.875  1.00  0.00    -0.223 NA
HETATM    3  C   UNL     1       8.560  31.196  58.646  1.00  0.00     0.149 A 
HETATM    4  C   UNL     1       7.428  30.681  58.039  1.00  0.00     0.046 A 
HETATM    5  C   UNL     1       7.245  30.101  56.682  1.00  0.00     0.070 C 
HETATM    6  C   UNL     1       8.229  28.963  56.327  1.00  0.00     0.042 C 
HETATM    7  C   UNL     1       9.566  28.958  57.097  1.00  0.00     0.132 C 
HETATM    8  N   UNL     1      10.231  30.248  57.158  1.00  0.00    -0.355 N 
HETATM    9  C   UNL     1       9.913  31.223  58.085  1.00  0.00     0.272 C 
HETATM   10  O   UNL     1      10.763  32.057  58.388  1.00  0.00    -0.266 OA
HETATM   11  N   UNL     1       6.407  30.912  58.926  1.00  0.00    -0.341 N 
HETATM   12  H   UNL     1       5.432  30.695  58.786  1.00  0.00     0.167 HD
HETATM   13  H   UNL     1      11.212  30.288  56.909  1.00  0.00     0.162 HD
ENDROOT
BRANCH   1  14
HETATM   14  C   UNL     1       6.160  32.026  61.205  1.00  0.00     0.059 A 
HETATM   15  C   UNL     1       4.827  32.385  61.274  1.00  0.00     0.040 A 
HETATM   16  C   UNL     1       3.726  32.443  60.288  1.00  0.00     0.071 C 
HETATM   17  N   UNL     1       4.624  32.745  62.582  1.00  0.00    -0.281 N 
HETATM   18  H   UNL     1       3.767  33.071  63.014  1.00  0.00     0.189 HD
HETATM   19  N   UNL     1       5.710  32.641  63.356  1.00  0.00    -0.179 NA
HETATM   20  C   UNL     1       6.664  32.207  62.521  1.00  0.00     0.067 A 
HETATM   21  C   UNL     1       8.046  31.983  63.019  1.00  0.00     0.073 C 
ENDBRANCH   1  14
BRANCH   6  22
HETATM   22  C   UNL     1       7.573  27.588  56.424  1.00  0.00    -0.049 A 
HETATM   23  C   UNL     1       6.799  27.065  55.371  1.00  0.00     0.044 A 
HETATM   24  C   UNL     1       6.196  25.810  55.484  1.00  0.00     0.068 A 
HETATM   25  C   UNL     1       6.365  25.072  56.656  1.00  0.00     0.037 A 
HETATM   26  C   UNL     1       7.124  25.579  57.711  1.00  0.00     0.003 A 
HETATM   27  C   UNL     1       7.725  26.831  57.595  1.00  0.00     0.007 A 
BRANCH  24  28
HETATM   28  O   UNL     1       5.428  25.197  54.533  1.00  0.00    -0.356 OA
HETATM   29  C   UNL     1       6.111  24.463  53.524  1.00  0.00     0.210 C 
ENDBRANCH  24  28
ENDBRANCH   6  22
TORSDOF 3
ENDMDL
MODEL 10
REMARK VINA RESULT:      -8.1      3.137      7.150
REMARK  3 active torsions:
REMARK  status: ('A' for Active; 'I' for Inactive)
REMARK    1  A    between atoms: C_8  and  C_9 
REMARK    2  A    between atoms: C_14  and  C_15 
REMARK    3  A    between atoms: C_17  and  O_18 
ROOT
HETATM    1  C   UNL     1       7.138  25.552  55.348  1.00  0.00     0.143 A 
HETATM    2  N   UNL     1       7.789  26.353  56.165  1.00  0.00    -0.223 NA
HETATM    3  C   UNL     1       6.908  27.350  56.531  1.00  0.00     0.149 A 
HETATM    4  C   UNL     1       5.691  27.145  55.903  1.00  0.00     0.046 A 
HETATM    5  C   UNL     1       4.402  27.874  56.047  1.00  0.00     0.070 C 
HETATM    6  C   UNL     1       4.500  29.405  55.857  1.00  0.00     0.042 C 
HETATM    7  C   UNL     1       5.883  30.033  56.124  1.00  0.00     0.132 C 
HETATM    8  N   UNL     1       6.513  29.601  57.358  1.00  0.00    -0.355 N 
HETATM    9  C   UNL     1       7.232  28.425  57.472  1.00  0.00     0.272 C 
HETATM   10  O   UNL     1       8.093  28.335  58.345  1.00  0.00    -0.266 OA
HETATM   11  N   UNL     1       5.859  26.009  55.154  1.00  0.00    -0.341 N 
HETATM   12  H   UNL     1       5.156  25.551  54.595  1.00  0.00     0.167 HD
HETATM   13  H   UNL     1       6.879  30.312  57.979  1.00  0.00     0.162 HD
ENDROOT
BRANCH   1  14
HETATM   14  C   UNL     1       7.730  24.325  54.751  1.00  0.00     0.059 A 
HETATM   15  C   UNL     1       8.206  23.202  55.402  1.00  0.00     0.040 A 
HETATM   16  C   UNL     1       8.310  22.805  56.823  1.00  0.00     0.071 C 
HETATM   17  N   UNL     1       8.647  22.373  54.403  1.00  0.00    -0.281 N 
HETATM   18  H   UNL     1       9.068  21.455  54.493  1.00  0.00     0.189 HD
HETATM   19  N   UNL     1       8.489  22.866  53.169  1.00  0.00    -0.179 NA
HETATM   20  C   UNL     1       7.932  24.069  53.369  1.00  0.00     0.067 A 
HETATM   21  C   UNL     1       7.615  24.945  52.212  1.00  0.00     0.073 C 
ENDBRANCH   1  14
BRANCH   6  22
HETATM   22  C   UNL     1       3.988  29.846  54.489  1.00  0.00    -0.049 A 
HETATM   23  C   UNL     1       3.907  28.948  53.408  1.00  0.00     0.044 A 
HETATM   24  C   UNL     1       3.447  29.374  52.159  1.00  0.00     0.068 A 
HETATM   25  C   UNL     1       3.068  30.706  51.987  1.00  0.00     0.037 A 
HETATM   26  C   UNL     1       3.148  31.609  53.047  1.00  0.00     0.003 A 
HETATM   27  C   UNL     1       3.606  31.181  54.291  1.00  0.00     0.007 A 
BRANCH  24  28
HETATM   28  O   UNL     1       3.321  28.598  51.040  1.00  0.00    -0.356 OA
HETATM   29  C   UNL     1       2.379  29.022  50.062  1.00  0.00     0.210 C 
ENDBRANCH  24  28
ENDBRANCH   6  22
TORSDOF 3
ENDMDL
