MODEL 1
REMARK VINA RESULT:     -11.8      0.000      0.000
REMARK  8 active torsions:
REMARK  status: ('A' for Active; 'I' for Inactive)
REMARK    1  A    between atoms: C_2  and  O_3 
REMARK    2  A    between atoms: O_3  and  C_4 
REMARK    3  A    between atoms: C_7  and  N_8 
REMARK       I    between atoms: N_8  and  C_9 
REMARK    4  A    between atoms: C_9  and  C_10 
REMARK    5  A    between atoms: C_12  and  N_13 
REMARK    6  A    between atoms: N_16  and  C_18 
REMARK    7  A    between atoms: C_18  and  C_19 
REMARK    8  A    between atoms: C_18  and  C_25 
ROOT
HETATM    1  C   UNL     1       8.890  30.467  59.312  1.00  0.00     0.200 C 
HETATM    2  N   UNL     1       8.002  29.333  59.013  1.00  0.00    -0.211 N 
HETATM    3  C   UNL     1       8.249  28.548  57.934  1.00  0.00     0.702 C 
HETATM    4  N   UNL     1       9.265  28.710  57.151  1.00  0.00    -0.028 NA
HETATM    5  C   UNL     1      10.065  29.810  57.347  1.00  0.00     0.263 C 
HETATM    6  O   UNL     1      11.234  29.854  56.976  1.00  0.00    -0.271 OA
HETATM    7  C   UNL     1       9.430  31.002  58.009  1.00  0.00     0.141 C 
HETATM    8  H   UNL     1       7.031  29.615  59.160  1.00  0.00     0.178 HD
ENDROOT
BRANCH   3   9
HETATM    9  N   UNL     1       7.376  27.492  57.760  1.00  0.00    -0.213 N 
HETATM   10  C   UNL     1       7.739  26.081  57.964  1.00  0.00     0.169 C 
HETATM   11  C   UNL     1       8.285  25.492  56.650  1.00  0.00     0.256 C 
HETATM   12  N   UNL     1       7.218  25.625  55.558  1.00  0.00    -0.056 N 
HETATM   13  H   UNL     1       6.368  25.178  55.905  1.00  0.00     0.281 HD
HETATM   14  C   UNL     1       6.820  27.101  55.384  1.00  0.00     0.256 C 
HETATM   15  C   UNL     1       6.313  27.655  56.739  1.00  0.00     0.169 C 
BRANCH  12  16
HETATM   16  C   UNL     1       7.543  24.900  54.250  1.00  0.00     0.254 C 
BRANCH  16  17
HETATM   17  C   UNL     1       7.798  23.408  54.467  1.00  0.00    -0.023 A 
HETATM   18  C   UNL     1       7.429  22.752  55.657  1.00  0.00     0.009 A 
HETATM   19  C   UNL     1       7.690  21.393  55.837  1.00  0.00     0.001 A 
HETATM   20  C   UNL     1       8.321  20.665  54.831  1.00  0.00     0.000 A 
HETATM   21  C   UNL     1       8.687  21.293  53.644  1.00  0.00     0.001 A 
HETATM   22  C   UNL     1       8.428  22.654  53.461  1.00  0.00     0.009 A 
ENDBRANCH  16  17
BRANCH  16  23
HETATM   23  C   UNL     1       6.595  25.241  53.081  1.00  0.00    -0.023 A 
HETATM   24  C   UNL     1       6.897  26.220  52.113  1.00  0.00     0.009 A 
HETATM   25  C   UNL     1       6.029  26.479  51.045  1.00  0.00     0.001 A 
HETATM   26  C   UNL     1       4.852  25.754  50.907  1.00  0.00     0.000 A 
HETATM   27  C   UNL     1       4.549  24.756  51.823  1.00  0.00     0.001 A 
HETATM   28  C   UNL     1       5.415  24.491  52.887  1.00  0.00     0.009 A 
ENDBRANCH  16  23
ENDBRANCH  12  16
ENDBRANCH   3   9
BRANCH   1  29
HETATM   29  C   UNL     1       8.082  31.496  60.129  1.00  0.00     0.246 C 
HETATM   30  N   UNL     1       8.193  31.377  61.500  1.00  0.00    -0.325 N 
HETATM   31  H   UNL     1       8.953  30.827  61.882  1.00  0.00     0.169 HD
HETATM   32  O   UNL     1       7.381  32.315  59.528  1.00  0.00    -0.271 OA
BRANCH  30  33
HETATM   33  C   UNL     1       7.390  32.032  62.460  1.00  0.00     0.035 A 
HETATM   34  C   UNL     1       5.994  32.010  62.446  1.00  0.00     0.032 A 
HETATM   35  C   UNL     1       5.257  32.636  63.459  1.00  0.00     0.039 A 
HETATM   36  C   UNL     1       5.910  33.299  64.496  1.00  0.00     0.068 A 
HETATM   37  C   UNL     1       7.304  33.335  64.505  1.00  0.00     0.039 A 
HETATM   38  C   UNL     1       8.042  32.695  63.504  1.00  0.00     0.032 A 
BRANCH  36  39
HETATM   39  O   UNL     1       5.311  33.946  65.538  1.00  0.00    -0.352 OA
BRANCH  39  40
HETATM   40  C   UNL     1       3.918  34.233  65.408  1.00  0.00     0.171 C 
HETATM   41  C   UNL     1       3.603  35.438  66.276  1.00  0.00     0.034 C 
ENDBRANCH  39  40
ENDBRANCH  36  39
ENDBRANCH  30  33
ENDBRANCH   1  29
TORSDOF 8
ENDMDL
MODEL 2
REMARK VINA RESULT:     -11.4      1.534      2.169
REMARK  8 active torsions:
REMARK  status: ('A' for Active; 'I' for Inactive)
REMARK    1  A    between atoms: C_2  and  O_3 
REMARK    2  A    between atoms: O_3  and  C_4 
REMARK    3  A    between atoms: C_7  and  N_8 
REMARK       I    between atoms: N_8  and  C_9 
REMARK    4  A    between atoms: C_9  and  C_10 
REMARK    5  A    between atoms: C_12  and  N_13 
REMARK    6  A    between atoms: N_16  and  C_18 
REMARK    7  A    between atoms: C_18  and  C_19 
REMARK    8  A    between atoms: C_18  and  C_25 
ROOT
HETATM    1  C   UNL     1       7.040  31.072  58.016  1.00  0.00     0.200 C 
HETATM    2  N   UNL     1       7.073  29.607  58.144  1.00  0.00    -0.211 N 
HETATM    3  C   UNL     1       6.271  28.843  57.360  1.00  0.00     0.702 C 
HETATM    4  N   UNL     1       5.487  29.327  56.453  1.00  0.00    -0.028 NA
HETATM    5  C   UNL     1       5.365  30.693  56.365  1.00  0.00     0.263 C 
HETATM    6  O   UNL     1       5.012  31.262  55.337  1.00  0.00    -0.271 OA
HETATM    7  C   UNL     1       5.645  31.482  57.615  1.00  0.00     0.141 C 
HETATM    8  H   UNL     1       7.119  29.355  59.132  1.00  0.00     0.178 HD
ENDROOT
BRANCH   3   9
HETATM    9  N   UNL     1       6.400  27.479  57.536  1.00  0.00    -0.213 N 
HETATM   10  C   UNL     1       7.692  26.775  57.602  1.00  0.00     0.169 C 
HETATM   11  C   UNL     1       8.126  26.359  56.185  1.00  0.00     0.256 C 
HETATM   12  N   UNL     1       7.048  25.459  55.572  1.00  0.00    -0.056 N 
HETATM   13  H   UNL     1       6.896  24.681  56.216  1.00  0.00     0.281 HD
HETATM   14  C   UNL     1       5.696  26.194  55.546  1.00  0.00     0.256 C 
HETATM   15  C   UNL     1       5.323  26.621  56.987  1.00  0.00     0.169 C 
BRANCH  12  16
HETATM   16  C   UNL     1       7.436  24.803  54.244  1.00  0.00     0.254 C 
BRANCH  16  17
HETATM   17  C   UNL     1       7.651  23.296  54.387  1.00  0.00    -0.023 A 
HETATM   18  C   UNL     1       7.493  22.633  55.618  1.00  0.00     0.009 A 
HETATM   19  C   UNL     1       7.714  21.258  55.724  1.00  0.00     0.001 A 
HETATM   20  C   UNL     1       8.093  20.524  54.604  1.00  0.00     0.000 A 
HETATM   21  C   UNL     1       8.248  21.161  53.375  1.00  0.00     0.001 A 
HETATM   22  C   UNL     1       8.029  22.536  53.265  1.00  0.00     0.009 A 
ENDBRANCH  16  17
BRANCH  16  23
HETATM   23  C   UNL     1       6.566  25.233  53.045  1.00  0.00    -0.023 A 
HETATM   24  C   UNL     1       5.407  24.532  52.650  1.00  0.00     0.009 A 
HETATM   25  C   UNL     1       4.621  24.972  51.578  1.00  0.00     0.001 A 
HETATM   26  C   UNL     1       4.960  26.129  50.889  1.00  0.00     0.000 A 
HETATM   27  C   UNL     1       6.072  26.861  51.281  1.00  0.00     0.001 A 
HETATM   28  C   UNL     1       6.856  26.429  52.354  1.00  0.00     0.009 A 
ENDBRANCH  16  23
ENDBRANCH  12  16
ENDBRANCH   3   9
BRANCH   1  29
HETATM   29  C   UNL     1       7.513  31.673  59.354  1.00  0.00     0.246 C 
HETATM   30  N   UNL     1       6.774  31.302  60.460  1.00  0.00    -0.325 N 
HETATM   31  H   UNL     1       6.159  30.500  60.390  1.00  0.00     0.169 HD
HETATM   32  O   UNL     1       8.471  32.451  59.353  1.00  0.00    -0.271 OA
BRANCH  30  33
HETATM   33  C   UNL     1       6.852  31.882  61.746  1.00  0.00     0.035 A 
HETATM   34  C   UNL     1       8.046  32.047  62.449  1.00  0.00     0.032 A 
HETATM   35  C   UNL     1       8.061  32.680  63.699  1.00  0.00     0.039 A 
HETATM   36  C   UNL     1       6.877  33.148  64.264  1.00  0.00     0.068 A 
HETATM   37  C   UNL     1       5.680  32.971  63.570  1.00  0.00     0.039 A 
HETATM   38  C   UNL     1       5.665  32.356  62.314  1.00  0.00     0.032 A 
BRANCH  36  39
HETATM   39  O   UNL     1       6.756  33.778  65.469  1.00  0.00    -0.352 OA
BRANCH  39  40
HETATM   40  C   UNL     1       5.552  34.509  65.700  1.00  0.00     0.171 C 
HETATM   41  C   UNL     1       5.121  34.265  67.135  1.00  0.00     0.034 C 
ENDBRANCH  39  40
ENDBRANCH  36  39
ENDBRANCH  30  33
ENDBRANCH   1  29
TORSDOF 8
ENDMDL
MODEL 3
REMARK VINA RESULT:     -11.0      1.720      2.264
REMARK  8 active torsions:
REMARK  status: ('A' for Active; 'I' for Inactive)
REMARK    1  A    between atoms: C_2  and  O_3 
REMARK    2  A    between atoms: O_3  and  C_4 
REMARK    3  A    between atoms: C_7  and  N_8 
REMARK       I    between atoms: N_8  and  C_9 
REMARK    4  A    between atoms: C_9  and  C_10 
REMARK    5  A    between atoms: C_12  and  N_13 
REMARK    6  A    between atoms: N_16  and  C_18 
REMARK    7  A    between atoms: C_18  and  C_19 
REMARK    8  A    between atoms: C_18  and  C_25 
ROOT
HETATM    1  C   UNL     1       9.276  30.854  59.876  1.00  0.00     0.200 C 
HETATM    2  N   UNL     1       8.174  30.026  59.364  1.00  0.00    -0.211 N 
HETATM    3  C   UNL     1       8.299  29.400  58.166  1.00  0.00     0.702 C 
HETATM    4  N   UNL     1       9.370  29.451  57.442  1.00  0.00    -0.028 NA
HETATM    5  C   UNL     1      10.385  30.285  57.846  1.00  0.00     0.263 C 
HETATM    6  O   UNL     1      11.553  30.118  57.509  1.00  0.00    -0.271 OA
HETATM    7  C   UNL     1       9.998  31.462  58.699  1.00  0.00     0.141 C 
HETATM    8  H   UNL     1       7.285  30.497  59.541  1.00  0.00     0.178 HD
ENDROOT
BRANCH   3   9
HETATM    9  N   UNL     1       7.222  28.622  57.791  1.00  0.00    -0.213 N 
HETATM   10  C   UNL     1       7.322  27.200  57.421  1.00  0.00     0.169 C 
HETATM   11  C   UNL     1       7.590  27.077  55.910  1.00  0.00     0.256 C 
HETATM   12  N   UNL     1       6.454  27.761  55.140  1.00  0.00    -0.056 N 
HETATM   13  H   UNL     1       5.577  27.341  55.452  1.00  0.00     0.281 HD
HETATM   14  C   UNL     1       6.337  29.235  55.566  1.00  0.00     0.256 C 
HETATM   15  C   UNL     1       6.104  29.304  57.096  1.00  0.00     0.169 C 
BRANCH  12  16
HETATM   16  C   UNL     1       6.482  27.541  53.625  1.00  0.00     0.254 C 
BRANCH  16  17
HETATM   17  C   UNL     1       6.772  26.085  53.259  1.00  0.00    -0.023 A 
HETATM   18  C   UNL     1       5.906  25.037  53.623  1.00  0.00     0.009 A 
HETATM   19  C   UNL     1       6.204  23.714  53.292  1.00  0.00     0.001 A 
HETATM   20  C   UNL     1       7.370  23.416  52.591  1.00  0.00     0.000 A 
HETATM   21  C   UNL     1       8.236  24.440  52.216  1.00  0.00     0.001 A 
HETATM   22  C   UNL     1       7.941  25.765  52.546  1.00  0.00     0.009 A 
ENDBRANCH  16  17
BRANCH  16  23
HETATM   23  C   UNL     1       5.302  28.186  52.868  1.00  0.00    -0.023 A 
HETATM   24  C   UNL     1       5.447  28.807  51.611  1.00  0.00     0.009 A 
HETATM   25  C   UNL     1       4.347  29.351  50.936  1.00  0.00     0.001 A 
HETATM   26  C   UNL     1       3.075  29.269  51.490  1.00  0.00     0.000 A 
HETATM   27  C   UNL     1       2.896  28.627  52.708  1.00  0.00     0.001 A 
HETATM   28  C   UNL     1       3.991  28.079  53.381  1.00  0.00     0.009 A 
ENDBRANCH  16  23
ENDBRANCH  12  16
ENDBRANCH   3   9
BRANCH   1  29
HETATM   29  C   UNL     1       8.676  31.888  60.849  1.00  0.00     0.246 C 
HETATM   30  N   UNL     1       8.074  31.359  61.974  1.00  0.00    -0.325 N 
HETATM   31  H   UNL     1       8.272  30.398  62.226  1.00  0.00     0.169 HD
HETATM   32  O   UNL     1       8.736  33.086  60.557  1.00  0.00    -0.271 OA
BRANCH  30  33
HETATM   33  C   UNL     1       7.260  32.060  62.890  1.00  0.00     0.035 A 
HETATM   34  C   UNL     1       5.864  32.046  62.853  1.00  0.00     0.032 A 
HETATM   35  C   UNL     1       5.115  32.719  63.825  1.00  0.00     0.039 A 
HETATM   36  C   UNL     1       5.753  33.422  64.844  1.00  0.00     0.068 A 
HETATM   37  C   UNL     1       7.148  33.450  64.875  1.00  0.00     0.039 A 
HETATM   38  C   UNL     1       7.898  32.763  63.916  1.00  0.00     0.032 A 
BRANCH  36  39
HETATM   39  O   UNL     1       5.141  34.118  65.847  1.00  0.00    -0.352 OA
BRANCH  39  40
HETATM   40  C   UNL     1       4.068  34.982  65.474  1.00  0.00     0.171 C 
HETATM   41  C   UNL     1       4.664  36.294  64.997  1.00  0.00     0.034 C 
ENDBRANCH  39  40
ENDBRANCH  36  39
ENDBRANCH  30  33
ENDBRANCH   1  29
TORSDOF 8
ENDMDL
MODEL 4
REMARK VINA RESULT:     -10.5      2.117      2.945
REMARK  8 active torsions:
REMARK  status: ('A' for Active; 'I' for Inactive)
REMARK    1  A    between atoms: C_2  and  O_3 
REMARK    2  A    between atoms: O_3  and  C_4 
REMARK    3  A    between atoms: C_7  and  N_8 
REMARK       I    between atoms: N_8  and  C_9 
REMARK    4  A    between atoms: C_9  and  C_10 
REMARK    5  A    between atoms: C_12  and  N_13 
REMARK    6  A    between atoms: N_16  and  C_18 
REMARK    7  A    between atoms: C_18  and  C_19 
REMARK    8  A    between atoms: C_18  and  C_25 
ROOT
HETATM    1  C   UNL     1       5.363  31.035  57.623  1.00  0.00     0.200 C 
HETATM    2  N   UNL     1       5.881  29.674  57.834  1.00  0.00    -0.211 N 
HETATM    3  C   UNL     1       5.380  28.641  57.111  1.00  0.00     0.702 C 
HETATM    4  N   UNL     1       4.480  28.782  56.193  1.00  0.00    -0.028 NA
HETATM    5  C   UNL     1       3.910  30.022  56.030  1.00  0.00     0.263 C 
HETATM    6  O   UNL     1       3.389  30.378  54.977  1.00  0.00    -0.271 OA
HETATM    7  C   UNL     1       3.912  30.933  57.227  1.00  0.00     0.141 C 
HETATM    8  H   UNL     1       6.009  29.511  58.834  1.00  0.00     0.178 HD
ENDROOT
BRANCH   3   9
HETATM    9  N   UNL     1       5.955  27.411  57.362  1.00  0.00    -0.213 N 
HETATM   10  C   UNL     1       7.402  27.148  57.290  1.00  0.00     0.169 C 
HETATM   11  C   UNL     1       7.780  26.728  55.858  1.00  0.00     0.256 C 
HETATM   12  N   UNL     1       6.981  25.478  55.472  1.00  0.00    -0.056 N 
HETATM   13  H   UNL     1       7.160  24.769  56.184  1.00  0.00     0.281 HD
HETATM   14  C   UNL     1       5.473  25.757  55.589  1.00  0.00     0.256 C 
HETATM   15  C   UNL     1       5.151  26.209  57.036  1.00  0.00     0.169 C 
BRANCH  12  16
HETATM   16  C   UNL     1       7.403  24.829  54.152  1.00  0.00     0.254 C 
BRANCH  16  17
HETATM   17  C   UNL     1       7.667  23.330  54.305  1.00  0.00    -0.023 A 
HETATM   18  C   UNL     1       8.079  22.530  53.222  1.00  0.00     0.009 A 
HETATM   19  C   UNL     1       8.296  21.161  53.386  1.00  0.00     0.001 A 
HETATM   20  C   UNL     1       8.108  20.569  54.632  1.00  0.00     0.000 A 
HETATM   21  C   UNL     1       7.709  21.344  55.717  1.00  0.00     0.001 A 
HETATM   22  C   UNL     1       7.490  22.715  55.557  1.00  0.00     0.009 A 
ENDBRANCH  16  17
BRANCH  16  23
HETATM   23  C   UNL     1       6.528  25.221  52.943  1.00  0.00    -0.023 A 
HETATM   24  C   UNL     1       5.403  24.474  52.538  1.00  0.00     0.009 A 
HETATM   25  C   UNL     1       4.610  24.880  51.457  1.00  0.00     0.001 A 
HETATM   26  C   UNL     1       4.910  26.049  50.769  1.00  0.00     0.000 A 
HETATM   27  C   UNL     1       5.988  26.826  51.171  1.00  0.00     0.001 A 
HETATM   28  C   UNL     1       6.778  26.427  52.252  1.00  0.00     0.009 A 
ENDBRANCH  16  23
ENDBRANCH  12  16
ENDBRANCH   3   9
BRANCH   1  29
HETATM   29  C   UNL     1       5.609  31.838  58.915  1.00  0.00     0.246 C 
HETATM   30  N   UNL     1       4.707  31.605  59.935  1.00  0.00    -0.325 N 
HETATM   31  H   UNL     1       4.121  30.779  59.888  1.00  0.00     0.169 HD
HETATM   32  O   UNL     1       6.545  32.641  58.949  1.00  0.00    -0.271 OA
BRANCH  30  33
HETATM   33  C   UNL     1       4.571  32.366  61.117  1.00  0.00     0.035 A 
HETATM   34  C   UNL     1       3.688  33.439  61.248  1.00  0.00     0.032 A 
HETATM   35  C   UNL     1       3.562  34.119  62.466  1.00  0.00     0.039 A 
HETATM   36  C   UNL     1       4.325  33.737  63.567  1.00  0.00     0.068 A 
HETATM   37  C   UNL     1       5.219  32.674  63.434  1.00  0.00     0.039 A 
HETATM   38  C   UNL     1       5.332  31.982  62.224  1.00  0.00     0.032 A 
BRANCH  36  39
HETATM   39  O   UNL     1       4.298  34.314  64.803  1.00  0.00    -0.352 OA
BRANCH  39  40
HETATM   40  C   UNL     1       5.512  34.902  65.271  1.00  0.00     0.171 C 
HETATM   41  C   UNL     1       5.855  34.271  66.609  1.00  0.00     0.034 C 
ENDBRANCH  39  40
ENDBRANCH  36  39
ENDBRANCH  30  33
ENDBRANCH   1  29
TORSDOF 8
ENDMDL
MODEL 5
REMARK VINA RESULT:     -10.4      3.922      7.981
REMARK  8 active torsions:
REMARK  status: ('A' for Active; 'I' for Inactive)
REMARK    1  A    between atoms: C_2  and  O_3 
REMARK    2  A    between atoms: O_3  and  C_4 
REMARK    3  A    between atoms: C_7  and  N_8 
REMARK       I    between atoms: N_8  and  C_9 
REMARK    4  A    between atoms: C_9  and  C_10 
REMARK    5  A    between atoms: C_12  and  N_13 
REMARK    6  A    between atoms: N_16  and  C_18 
REMARK    7  A    between atoms: C_18  and  C_19 
REMARK    8  A    between atoms: C_18  and  C_25 
ROOT
HETATM    1  C   UNL     1       4.551  30.259  56.232  1.00  0.00     0.200 C 
HETATM    2  N   UNL     1       5.006  28.883  56.486  1.00  0.00    -0.211 N 
HETATM    3  C   UNL     1       6.063  28.662  57.308  1.00  0.00     0.702 C 
HETATM    4  N   UNL     1       6.690  29.604  57.934  1.00  0.00    -0.028 NA
HETATM    5  C   UNL     1       6.351  30.906  57.653  1.00  0.00     0.263 C 
HETATM    6  O   UNL     1       6.552  31.827  58.438  1.00  0.00    -0.271 OA
HETATM    7  C   UNL     1       5.749  31.174  56.301  1.00  0.00     0.141 C 
HETATM    8  H   UNL     1       4.989  28.354  55.612  1.00  0.00     0.178 HD
ENDROOT
BRANCH   3   9
HETATM    9  N   UNL     1       6.390  27.335  57.505  1.00  0.00    -0.213 N 
HETATM   10  C   UNL     1       7.765  26.810  57.461  1.00  0.00     0.169 C 
HETATM   11  C   UNL     1       8.115  26.400  56.019  1.00  0.00     0.256 C 
HETATM   12  N   UNL     1       7.114  25.343  55.540  1.00  0.00    -0.056 N 
HETATM   13  H   UNL     1       7.130  24.577  56.216  1.00  0.00     0.281 HD
HETATM   14  C   UNL     1       5.680  25.892  55.629  1.00  0.00     0.256 C 
HETATM   15  C   UNL     1       5.390  26.323  57.089  1.00  0.00     0.169 C 
BRANCH  12  16
HETATM   16  C   UNL     1       7.460  24.693  54.198  1.00  0.00     0.254 C 
BRANCH  16  17
HETATM   17  C   UNL     1       7.664  23.183  54.324  1.00  0.00    -0.023 A 
HETATM   18  C   UNL     1       7.539  22.513  55.556  1.00  0.00     0.009 A 
HETATM   19  C   UNL     1       7.750  21.136  55.647  1.00  0.00     0.001 A 
HETATM   20  C   UNL     1       8.085  20.405  54.510  1.00  0.00     0.000 A 
HETATM   21  C   UNL     1       8.206  21.048  53.281  1.00  0.00     0.001 A 
HETATM   22  C   UNL     1       7.997  22.426  53.186  1.00  0.00     0.009 A 
ENDBRANCH  16  17
BRANCH  16  23
HETATM   23  C   UNL     1       6.561  25.138  53.026  1.00  0.00    -0.023 A 
HETATM   24  C   UNL     1       6.897  26.202  52.164  1.00  0.00     0.009 A 
HETATM   25  C   UNL     1       6.073  26.556  51.088  1.00  0.00     0.001 A 
HETATM   26  C   UNL     1       4.907  25.845  50.835  1.00  0.00     0.000 A 
HETATM   27  C   UNL     1       4.572  24.766  51.643  1.00  0.00     0.001 A 
HETATM   28  C   UNL     1       5.394  24.407  52.714  1.00  0.00     0.009 A 
ENDBRANCH  16  23
ENDBRANCH  12  16
ENDBRANCH   3   9
BRANCH   1  29
HETATM   29  C   UNL     1       3.826  30.272  54.871  1.00  0.00     0.246 C 
HETATM   30  N   UNL     1       4.312  29.380  53.936  1.00  0.00    -0.325 N 
HETATM   31  H   UNL     1       4.909  28.623  54.248  1.00  0.00     0.169 HD
HETATM   32  O   UNL     1       2.907  31.076  54.694  1.00  0.00    -0.271 OA
BRANCH  30  33
HETATM   33  C   UNL     1       3.984  29.352  52.562  1.00  0.00     0.035 A 
HETATM   34  C   UNL     1       2.788  28.833  52.063  1.00  0.00     0.032 A 
HETATM   35  C   UNL     1       2.501  28.886  50.693  1.00  0.00     0.039 A 
HETATM   36  C   UNL     1       3.412  29.452  49.805  1.00  0.00     0.068 A 
HETATM   37  C   UNL     1       4.614  29.958  50.299  1.00  0.00     0.039 A 
HETATM   38  C   UNL     1       4.895  29.923  51.669  1.00  0.00     0.032 A 
BRANCH  36  39
HETATM   39  O   UNL     1       3.253  29.563  48.454  1.00  0.00    -0.352 OA
BRANCH  39  40
HETATM   40  C   UNL     1       2.598  28.484  47.788  1.00  0.00     0.171 C 
HETATM   41  C   UNL     1       3.654  27.470  47.384  1.00  0.00     0.034 C 
ENDBRANCH  39  40
ENDBRANCH  36  39
ENDBRANCH  30  33
ENDBRANCH   1  29
TORSDOF 8
ENDMDL
MODEL 6
REMARK VINA RESULT:     -10.4      3.274      6.000
REMARK  8 active torsions:
REMARK  status: ('A' for Active; 'I' for Inactive)
REMARK    1  A    between atoms: C_2  and  O_3 
REMARK    2  A    between atoms: O_3  and  C_4 
REMARK    3  A    between atoms: C_7  and  N_8 
REMARK       I    between atoms: N_8  and  C_9 
REMARK    4  A    between atoms: C_9  and  C_10 
REMARK    5  A    between atoms: C_12  and  N_13 
REMARK    6  A    between atoms: N_16  and  C_18 
REMARK    7  A    between atoms: C_18  and  C_19 
REMARK    8  A    between atoms: C_18  and  C_25 
ROOT
HETATM    1  C   UNL     1       4.722  29.443  53.287  1.00  0.00     0.200 C 
HETATM    2  N   UNL     1       5.292  28.140  52.909  1.00  0.00    -0.211 N 
HETATM    3  C   UNL     1       4.897  27.538  51.759  1.00  0.00     0.702 C 
HETATM    4  N   UNL     1       4.058  28.066  50.928  1.00  0.00    -0.028 NA
HETATM    5  C   UNL     1       3.439  29.238  51.290  1.00  0.00     0.263 C 
HETATM    6  O   UNL     1       2.976  30.023  50.469  1.00  0.00    -0.271 OA
HETATM    7  C   UNL     1       3.309  29.511  52.764  1.00  0.00     0.141 C 
HETATM    8  H   UNL     1       5.356  27.546  53.737  1.00  0.00     0.178 HD
ENDROOT
BRANCH   3   9
HETATM    9  N   UNL     1       5.514  26.335  51.480  1.00  0.00    -0.213 N 
HETATM   10  C   UNL     1       4.830  25.031  51.510  1.00  0.00     0.169 C 
HETATM   11  C   UNL     1       4.916  24.436  52.927  1.00  0.00     0.256 C 
HETATM   12  N   UNL     1       6.389  24.285  53.322  1.00  0.00    -0.056 N 
HETATM   13  H   UNL     1       6.845  23.727  52.597  1.00  0.00     0.281 HD
HETATM   14  C   UNL     1       7.100  25.648  53.248  1.00  0.00     0.256 C 
HETATM   15  C   UNL     1       6.954  26.219  51.815  1.00  0.00     0.169 C 
BRANCH  12  16
HETATM   16  C   UNL     1       6.631  23.516  54.623  1.00  0.00     0.254 C 
BRANCH  16  17
HETATM   17  C   UNL     1       7.446  22.243  54.398  1.00  0.00    -0.023 A 
HETATM   18  C   UNL     1       7.708  21.330  55.438  1.00  0.00     0.009 A 
HETATM   19  C   UNL     1       8.471  20.184  55.209  1.00  0.00     0.001 A 
HETATM   20  C   UNL     1       8.983  19.929  53.940  1.00  0.00     0.000 A 
HETATM   21  C   UNL     1       8.730  20.816  52.897  1.00  0.00     0.001 A 
HETATM   22  C   UNL     1       7.968  21.964  53.122  1.00  0.00     0.009 A 
ENDBRANCH  16  17
BRANCH  16  23
HETATM   23  C   UNL     1       7.097  24.395  55.803  1.00  0.00    -0.023 A 
HETATM   24  C   UNL     1       6.229  25.253  56.509  1.00  0.00     0.009 A 
HETATM   25  C   UNL     1       6.679  26.009  57.598  1.00  0.00     0.001 A 
HETATM   26  C   UNL     1       7.999  25.912  58.020  1.00  0.00     0.000 A 
HETATM   27  C   UNL     1       8.866  25.045  57.369  1.00  0.00     0.001 A 
HETATM   28  C   UNL     1       8.419  24.285  56.286  1.00  0.00     0.009 A 
ENDBRANCH  16  23
ENDBRANCH  12  16
ENDBRANCH   3   9
BRANCH   1  29
HETATM   29  C   UNL     1       4.834  29.580  54.818  1.00  0.00     0.246 C 
HETATM   30  N   UNL     1       5.838  30.417  55.263  1.00  0.00    -0.325 N 
HETATM   31  H   UNL     1       6.258  31.066  54.608  1.00  0.00     0.169 HD
HETATM   32  O   UNL     1       4.067  28.928  55.533  1.00  0.00    -0.271 OA
BRANCH  30  33
HETATM   33  C   UNL     1       6.295  30.534  56.594  1.00  0.00     0.035 A 
HETATM   34  C   UNL     1       7.206  29.653  57.180  1.00  0.00     0.032 A 
HETATM   35  C   UNL     1       7.660  29.857  58.489  1.00  0.00     0.039 A 
HETATM   36  C   UNL     1       7.203  30.944  59.231  1.00  0.00     0.068 A 
HETATM   37  C   UNL     1       6.282  31.818  58.653  1.00  0.00     0.039 A 
HETATM   38  C   UNL     1       5.841  31.626  57.340  1.00  0.00     0.032 A 
BRANCH  36  39
HETATM   39  O   UNL     1       7.566  31.253  60.510  1.00  0.00    -0.352 OA
BRANCH  39  40
HETATM   40  C   UNL     1       8.834  30.773  60.957  1.00  0.00     0.171 C 
HETATM   41  C   UNL     1       9.434  31.820  61.879  1.00  0.00     0.034 C 
ENDBRANCH  39  40
ENDBRANCH  36  39
ENDBRANCH  30  33
ENDBRANCH   1  29
TORSDOF 8
ENDMDL
MODEL 7
REMARK VINA RESULT:     -10.3      3.651     10.507
REMARK  8 active torsions:
REMARK  status: ('A' for Active; 'I' for Inactive)
REMARK    1  A    between atoms: C_2  and  O_3 
REMARK    2  A    between atoms: O_3  and  C_4 
REMARK    3  A    between atoms: C_7  and  N_8 
REMARK       I    between atoms: N_8  and  C_9 
REMARK    4  A    between atoms: C_9  and  C_10 
REMARK    5  A    between atoms: C_12  and  N_13 
REMARK    6  A    between atoms: N_16  and  C_18 
REMARK    7  A    between atoms: C_18  and  C_19 
REMARK    8  A    between atoms: C_18  and  C_25 
ROOT
HETATM    1  C   UNL     1       4.445  27.849  53.385  1.00  0.00     0.200 C 
HETATM    2  N   UNL     1       4.470  28.134  54.828  1.00  0.00    -0.211 N 
HETATM    3  C   UNL     1       4.084  29.354  55.282  1.00  0.00     0.702 C 
HETATM    4  N   UNL     1       3.645  30.296  54.512  1.00  0.00    -0.028 NA
HETATM    5  C   UNL     1       3.691  30.096  53.153  1.00  0.00     0.263 C 
HETATM    6  O   UNL     1       2.956  30.692  52.371  1.00  0.00    -0.271 OA
HETATM    7  C   UNL     1       4.726  29.132  52.643  1.00  0.00     0.141 C 
HETATM    8  H   UNL     1       5.321  27.745  55.236  1.00  0.00     0.178 HD
ENDROOT
BRANCH   3   9
HETATM    9  N   UNL     1       4.115  29.510  56.653  1.00  0.00    -0.213 N 
HETATM   10  C   UNL     1       3.912  30.797  57.340  1.00  0.00     0.169 C 
HETATM   11  C   UNL     1       5.265  31.514  57.501  1.00  0.00     0.256 C 
HETATM   12  N   UNL     1       6.219  30.617  58.298  1.00  0.00    -0.056 N 
HETATM   13  H   UNL     1       5.754  30.381  59.177  1.00  0.00     0.281 HD
HETATM   14  C   UNL     1       6.389  29.263  57.588  1.00  0.00     0.256 C 
HETATM   15  C   UNL     1       4.999  28.600  57.419  1.00  0.00     0.169 C 
BRANCH  12  16
HETATM   16  C   UNL     1       7.533  31.284  58.711  1.00  0.00     0.254 C 
BRANCH  16  17
HETATM   17  C   UNL     1       7.587  31.572  60.212  1.00  0.00    -0.023 A 
HETATM   18  C   UNL     1       6.877  32.640  60.793  1.00  0.00     0.009 A 
HETATM   19  C   UNL     1       6.958  32.893  62.163  1.00  0.00     0.001 A 
HETATM   20  C   UNL     1       7.746  32.082  62.976  1.00  0.00     0.000 A 
HETATM   21  C   UNL     1       8.450  31.017  62.422  1.00  0.00     0.001 A 
HETATM   22  C   UNL     1       8.372  30.761  61.051  1.00  0.00     0.009 A 
ENDBRANCH  16  17
BRANCH  16  23
HETATM   23  C   UNL     1       8.795  30.617  58.125  1.00  0.00    -0.023 A 
HETATM   24  C   UNL     1       8.759  29.400  57.415  1.00  0.00     0.009 A 
HETATM   25  C   UNL     1       9.920  28.842  56.866  1.00  0.00     0.001 A 
HETATM   26  C   UNL     1      11.139  29.495  56.994  1.00  0.00     0.000 A 
HETATM   27  C   UNL     1      11.198  30.716  57.653  1.00  0.00     0.001 A 
HETATM   28  C   UNL     1      10.041  31.278  58.197  1.00  0.00     0.009 A 
ENDBRANCH  16  23
ENDBRANCH  12  16
ENDBRANCH   3   9
BRANCH   1  29
HETATM   29  C   UNL     1       5.465  26.726  53.110  1.00  0.00     0.246 C 
HETATM   30  N   UNL     1       5.576  25.774  54.104  1.00  0.00    -0.325 N 
HETATM   31  H   UNL     1       4.845  25.711  54.803  1.00  0.00     0.169 HD
HETATM   32  O   UNL     1       6.124  26.762  52.067  1.00  0.00    -0.271 OA
BRANCH  30  33
HETATM   33  C   UNL     1       6.582  24.787  54.204  1.00  0.00     0.035 A 
HETATM   34  C   UNL     1       7.514  24.736  55.242  1.00  0.00     0.032 A 
HETATM   35  C   UNL     1       8.452  23.698  55.311  1.00  0.00     0.039 A 
HETATM   36  C   UNL     1       8.475  22.704  54.336  1.00  0.00     0.068 A 
HETATM   37  C   UNL     1       7.554  22.761  53.290  1.00  0.00     0.039 A 
HETATM   38  C   UNL     1       6.604  23.785  53.229  1.00  0.00     0.032 A 
BRANCH  36  39
HETATM   39  O   UNL     1       9.335  21.645  54.289  1.00  0.00    -0.352 OA
BRANCH  39  40
HETATM   40  C   UNL     1       8.773  20.346  54.472  1.00  0.00     0.171 C 
HETATM   41  C   UNL     1       8.319  20.229  55.916  1.00  0.00     0.034 C 
ENDBRANCH  39  40
ENDBRANCH  36  39
ENDBRANCH  30  33
ENDBRANCH   1  29
TORSDOF 8
ENDMDL
MODEL 8
REMARK VINA RESULT:     -10.1      3.231     12.072
REMARK  8 active torsions:
REMARK  status: ('A' for Active; 'I' for Inactive)
REMARK    1  A    between atoms: C_2  and  O_3 
REMARK    2  A    between atoms: O_3  and  C_4 
REMARK    3  A    between atoms: C_7  and  N_8 
REMARK       I    between atoms: N_8  and  C_9 
REMARK    4  A    between atoms: C_9  and  C_10 
REMARK    5  A    between atoms: C_12  and  N_13 
REMARK    6  A    between atoms: N_16  and  C_18 
REMARK    7  A    between atoms: C_18  and  C_19 
REMARK    8  A    between atoms: C_18  and  C_25 
ROOT
HETATM    1  C   UNL     1       7.081  30.034  57.804  1.00  0.00     0.200 C 
HETATM    2  N   UNL     1       5.840  30.715  58.204  1.00  0.00    -0.211 N 
HETATM    3  C   UNL     1       5.898  31.818  58.993  1.00  0.00     0.702 C 
HETATM    4  N   UNL     1       7.006  32.350  59.396  1.00  0.00    -0.028 NA
HETATM    5  C   UNL     1       8.180  31.691  59.116  1.00  0.00     0.263 C 
HETATM    6  O   UNL     1       9.264  32.264  59.065  1.00  0.00    -0.271 OA
HETATM    7  C   UNL     1       8.092  30.204  58.910  1.00  0.00     0.141 C 
HETATM    8  H   UNL     1       5.134  30.018  58.446  1.00  0.00     0.178 HD
ENDROOT
BRANCH   3   9
HETATM    9  N   UNL     1       4.681  32.400  59.286  1.00  0.00    -0.213 N 
HETATM   10  C   UNL     1       4.350  33.806  59.000  1.00  0.00     0.169 C 
HETATM   11  C   UNL     1       4.752  34.685  60.198  1.00  0.00     0.256 C 
HETATM   12  N   UNL     1       4.013  34.197  61.450  1.00  0.00    -0.056 N 
HETATM   13  H   UNL     1       3.014  34.199  61.236  1.00  0.00     0.281 HD
HETATM   14  C   UNL     1       4.338  32.717  61.713  1.00  0.00     0.256 C 
HETATM   15  C   UNL     1       3.950  31.882  60.467  1.00  0.00     0.169 C 
BRANCH  12  16
HETATM   16  C   UNL     1       4.158  35.103  62.675  1.00  0.00     0.254 C 
BRANCH  16  17
HETATM   17  C   UNL     1       5.172  34.557  63.680  1.00  0.00    -0.023 A 
HETATM   18  C   UNL     1       6.457  34.136  63.288  1.00  0.00     0.009 A 
HETATM   19  C   UNL     1       7.358  33.623  64.224  1.00  0.00     0.001 A 
HETATM   20  C   UNL     1       6.992  33.525  65.564  1.00  0.00     0.000 A 
HETATM   21  C   UNL     1       5.728  33.944  65.972  1.00  0.00     0.001 A 
HETATM   22  C   UNL     1       4.824  34.456  65.039  1.00  0.00     0.009 A 
ENDBRANCH  16  17
BRANCH  16  23
HETATM   23  C   UNL     1       4.305  36.603  62.342  1.00  0.00    -0.023 A 
HETATM   24  C   UNL     1       3.241  37.386  61.849  1.00  0.00     0.009 A 
HETATM   25  C   UNL     1       3.401  38.753  61.592  1.00  0.00     0.001 A 
HETATM   26  C   UNL     1       4.618  39.374  61.840  1.00  0.00     0.000 A 
HETATM   27  C   UNL     1       5.672  38.637  62.363  1.00  0.00     0.001 A 
HETATM   28  C   UNL     1       5.514  37.274  62.626  1.00  0.00     0.009 A 
ENDBRANCH  16  23
ENDBRANCH  12  16
ENDBRANCH   3   9
BRANCH   1  29
HETATM   29  C   UNL     1       6.732  28.566  57.489  1.00  0.00     0.246 C 
HETATM   30  N   UNL     1       7.810  27.755  57.191  1.00  0.00    -0.325 N 
HETATM   31  H   UNL     1       8.741  28.073  57.433  1.00  0.00     0.169 HD
HETATM   32  O   UNL     1       5.547  28.222  57.488  1.00  0.00    -0.271 OA
BRANCH  30  33
HETATM   33  C   UNL     1       7.747  26.452  56.650  1.00  0.00     0.035 A 
HETATM   34  C   UNL     1       8.119  25.305  57.352  1.00  0.00     0.032 A 
HETATM   35  C   UNL     1       7.981  24.036  56.776  1.00  0.00     0.039 A 
HETATM   36  C   UNL     1       7.475  23.900  55.486  1.00  0.00     0.068 A 
HETATM   37  C   UNL     1       7.115  25.046  54.776  1.00  0.00     0.039 A 
HETATM   38  C   UNL     1       7.235  26.313  55.356  1.00  0.00     0.032 A 
BRANCH  36  39
HETATM   39  O   UNL     1       7.292  22.726  54.813  1.00  0.00    -0.352 OA
BRANCH  39  40
HETATM   40  C   UNL     1       8.356  22.293  53.966  1.00  0.00     0.171 C 
HETATM   41  C   UNL     1       7.960  20.960  53.358  1.00  0.00     0.034 C 
ENDBRANCH  39  40
ENDBRANCH  36  39
ENDBRANCH  30  33
ENDBRANCH   1  29
TORSDOF 8
ENDMDL
MODEL 9
REMARK VINA RESULT:     -10.0      3.767      8.597
REMARK  8 active torsions:
REMARK  status: ('A' for Active; 'I' for Inactive)
REMARK    1  A    between atoms: C_2  and  O_3 
REMARK    2  A    between atoms: O_3  and  C_4 
REMARK    3  A    between atoms: C_7  and  N_8 
REMARK       I    between atoms: N_8  and  C_9 
REMARK    4  A    between atoms: C_9  and  C_10 
REMARK    5  A    between atoms: C_12  and  N_13 
REMARK    6  A    between atoms: N_16  and  C_18 
REMARK    7  A    between atoms: C_18  and  C_19 
REMARK    8  A    between atoms: C_18  and  C_25 
ROOT
HETATM    1  C   UNL     1       4.782  30.041  56.250  1.00  0.00     0.200 C 
HETATM    2  N   UNL     1       5.777  28.960  56.301  1.00  0.00    -0.211 N 
HETATM    3  C   UNL     1       6.748  28.979  57.249  1.00  0.00     0.702 C 
HETATM    4  N   UNL     1       6.835  29.890  58.163  1.00  0.00    -0.028 NA
HETATM    5  C   UNL     1       5.977  30.962  58.093  1.00  0.00     0.263 C 
HETATM    6  O   UNL     1       5.680  31.638  59.073  1.00  0.00    -0.271 OA
HETATM    7  C   UNL     1       5.436  31.311  56.734  1.00  0.00     0.141 C 
HETATM    8  H   UNL     1       6.072  28.725  55.352  1.00  0.00     0.178 HD
ENDROOT
BRANCH   3   9
HETATM    9  N   UNL     1       7.613  27.903  57.232  1.00  0.00    -0.213 N 
HETATM   10  C   UNL     1       8.465  27.550  56.085  1.00  0.00     0.169 C 
HETATM   11  C   UNL     1       7.699  26.602  55.144  1.00  0.00     0.256 C 
HETATM   12  N   UNL     1       7.288  25.347  55.921  1.00  0.00    -0.056 N 
HETATM   13  H   UNL     1       8.135  24.948  56.330  1.00  0.00     0.281 HD
HETATM   14  C   UNL     1       6.430  25.735  57.138  1.00  0.00     0.256 C 
HETATM   15  C   UNL     1       7.231  26.715  58.032  1.00  0.00     0.169 C 
BRANCH  12  16
HETATM   16  C   UNL     1       6.697  24.225  55.064  1.00  0.00     0.254 C 
BRANCH  16  17
HETATM   17  C   UNL     1       6.306  24.712  53.668  1.00  0.00    -0.023 A 
HETATM   18  C   UNL     1       7.269  25.004  52.682  1.00  0.00     0.009 A 
HETATM   19  C   UNL     1       6.886  25.464  51.422  1.00  0.00     0.001 A 
HETATM   20  C   UNL     1       5.537  25.639  51.123  1.00  0.00     0.000 A 
HETATM   21  C   UNL     1       4.570  25.349  52.081  1.00  0.00     0.001 A 
HETATM   22  C   UNL     1       4.949  24.889  53.344  1.00  0.00     0.009 A 
ENDBRANCH  16  17
BRANCH  16  23
HETATM   23  C   UNL     1       7.499  22.908  55.099  1.00  0.00    -0.023 A 
HETATM   24  C   UNL     1       8.066  22.388  56.281  1.00  0.00     0.009 A 
HETATM   25  C   UNL     1       8.757  21.171  56.283  1.00  0.00     0.001 A 
HETATM   26  C   UNL     1       8.882  20.434  55.112  1.00  0.00     0.000 A 
HETATM   27  C   UNL     1       8.298  20.901  53.941  1.00  0.00     0.001 A 
HETATM   28  C   UNL     1       7.603  22.113  53.938  1.00  0.00     0.009 A 
ENDBRANCH  16  23
ENDBRANCH  12  16
ENDBRANCH   3   9
BRANCH   1  29
HETATM   29  C   UNL     1       4.245  30.120  54.806  1.00  0.00     0.246 C 
HETATM   30  N   UNL     1       4.600  29.065  53.988  1.00  0.00    -0.325 N 
HETATM   31  H   UNL     1       4.950  28.214  54.413  1.00  0.00     0.169 HD
HETATM   32  O   UNL     1       3.582  31.104  54.470  1.00  0.00    -0.271 OA
BRANCH  30  33
HETATM   33  C   UNL     1       4.437  29.008  52.586  1.00  0.00     0.035 A 
HETATM   34  C   UNL     1       3.209  28.792  51.959  1.00  0.00     0.032 A 
HETATM   35  C   UNL     1       3.107  28.801  50.562  1.00  0.00     0.039 A 
HETATM   36  C   UNL     1       4.236  29.018  49.775  1.00  0.00     0.068 A 
HETATM   37  C   UNL     1       5.467  29.219  50.400  1.00  0.00     0.039 A 
HETATM   38  C   UNL     1       5.567  29.229  51.794  1.00  0.00     0.032 A 
BRANCH  36  39
HETATM   39  O   UNL     1       4.271  29.050  48.411  1.00  0.00    -0.352 OA
BRANCH  39  40
HETATM   40  C   UNL     1       3.456  28.103  47.720  1.00  0.00     0.171 C 
HETATM   41  C   UNL     1       4.222  26.795  47.637  1.00  0.00     0.034 C 
ENDBRANCH  39  40
ENDBRANCH  36  39
ENDBRANCH  30  33
ENDBRANCH   1  29
TORSDOF 8
ENDMDL
MODEL 10
REMARK VINA RESULT:     -10.0      3.033     12.776
REMARK  8 active torsions:
REMARK  status: ('A' for Active; 'I' for Inactive)
REMARK    1  A    between atoms: C_2  and  O_3 
REMARK    2  A    between atoms: O_3  and  C_4 
REMARK    3  A    between atoms: C_7  and  N_8 
REMARK       I    between atoms: N_8  and  C_9 
REMARK    4  A    between atoms: C_9  and  C_10 
REMARK    5  A    between atoms: C_12  and  N_13 
REMARK    6  A    between atoms: N_16  and  C_18 
REMARK    7  A    between atoms: C_18  and  C_19 
REMARK    8  A    between atoms: C_18  and  C_25 
ROOT
HETATM    1  C   UNL     1       7.194  30.258  57.873  1.00  0.00     0.200 C 
HETATM    2  N   UNL     1       6.083  30.847  58.636  1.00  0.00    -0.211 N 
HETATM    3  C   UNL     1       6.331  31.823  59.545  1.00  0.00     0.702 C 
HETATM    4  N   UNL     1       7.508  32.314  59.763  1.00  0.00    -0.028 NA
HETATM    5  C   UNL     1       8.581  31.729  59.133  1.00  0.00     0.263 C 
HETATM    6  O   UNL     1       9.633  32.325  58.926  1.00  0.00    -0.271 OA
HETATM    7  C   UNL     1       8.430  30.286  58.737  1.00  0.00     0.141 C 
HETATM    8  H   UNL     1       5.441  30.107  58.925  1.00  0.00     0.178 HD
ENDROOT
BRANCH   3   9
HETATM    9  N   UNL     1       5.218  32.331  60.185  1.00  0.00    -0.213 N 
HETATM   10  C   UNL     1       4.651  33.663  59.918  1.00  0.00     0.169 C 
HETATM   11  C   UNL     1       5.317  34.702  60.838  1.00  0.00     0.256 C 
HETATM   12  N   UNL     1       5.092  34.299  62.300  1.00  0.00    -0.056 N 
HETATM   13  H   UNL     1       4.086  34.193  62.436  1.00  0.00     0.281 HD
HETATM   14  C   UNL     1       5.655  32.889  62.553  1.00  0.00     0.256 C 
HETATM   15  C   UNL     1       4.980  31.890  61.580  1.00  0.00     0.169 C 
BRANCH  12  16
HETATM   16  C   UNL     1       5.524  35.346  63.329  1.00  0.00     0.254 C 
BRANCH  16  17
HETATM   17  C   UNL     1       5.171  36.767  62.888  1.00  0.00    -0.023 A 
HETATM   18  C   UNL     1       3.927  37.082  62.310  1.00  0.00     0.009 A 
HETATM   19  C   UNL     1       3.638  38.385  61.900  1.00  0.00     0.001 A 
HETATM   20  C   UNL     1       4.583  39.393  62.061  1.00  0.00     0.000 A 
HETATM   21  C   UNL     1       5.817  39.103  62.638  1.00  0.00     0.001 A 
HETATM   22  C   UNL     1       6.111  37.801  63.049  1.00  0.00     0.009 A 
ENDBRANCH  16  17
BRANCH  16  23
HETATM   23  C   UNL     1       5.149  34.998  64.785  1.00  0.00    -0.023 A 
HETATM   24  C   UNL     1       6.075  34.471  65.709  1.00  0.00     0.009 A 
HETATM   25  C   UNL     1       5.709  34.200  67.033  1.00  0.00     0.001 A 
HETATM   26  C   UNL     1       4.418  34.468  67.471  1.00  0.00     0.000 A 
HETATM   27  C   UNL     1       3.497  35.024  66.594  1.00  0.00     0.001 A 
HETATM   28  C   UNL     1       3.860  35.301  65.274  1.00  0.00     0.009 A 
ENDBRANCH  16  23
ENDBRANCH  12  16
ENDBRANCH   3   9
BRANCH   1  29
HETATM   29  C   UNL     1       6.765  28.844  57.432  1.00  0.00     0.246 C 
HETATM   30  N   UNL     1       7.798  28.002  57.069  1.00  0.00    -0.325 N 
HETATM   31  H   UNL     1       8.743  28.243  57.341  1.00  0.00     0.169 HD
HETATM   32  O   UNL     1       5.563  28.570  57.397  1.00  0.00    -0.271 OA
BRANCH  30  33
HETATM   33  C   UNL     1       7.665  26.755  56.419  1.00  0.00     0.035 A 
HETATM   34  C   UNL     1       7.892  25.528  57.045  1.00  0.00     0.032 A 
HETATM   35  C   UNL     1       7.690  24.324  56.357  1.00  0.00     0.039 A 
HETATM   36  C   UNL     1       7.266  24.335  55.031  1.00  0.00     0.068 A 
HETATM   37  C   UNL     1       7.053  25.560  54.398  1.00  0.00     0.039 A 
HETATM   38  C   UNL     1       7.236  26.762  55.088  1.00  0.00     0.032 A 
BRANCH  36  39
HETATM   39  O   UNL     1       7.035  23.237  54.253  1.00  0.00    -0.352 OA
BRANCH  39  40
HETATM   40  C   UNL     1       8.111  22.789  53.429  1.00  0.00     0.171 C 
HETATM   41  C   UNL     1       7.988  21.284  53.273  1.00  0.00     0.034 C 
ENDBRANCH  39  40
ENDBRANCH  36  39
ENDBRANCH  30  33
ENDBRANCH   1  29
TORSDOF 8
ENDMDL
