MODEL 1
REMARK VINA RESULT:      -9.7      0.000      0.000
REMARK  6 active torsions:
REMARK  status: ('A' for Active; 'I' for Inactive)
REMARK    1  A    between atoms: O_2  and  C_3 
REMARK    2  A    between atoms: C_6  and  C_7 
REMARK    3  A    between atoms: C_11  and  C_12 
REMARK       I    between atoms: C_12  and  N_13 
REMARK    4  A    between atoms: N_13  and  N_14 
REMARK       I    between atoms: N_14  and  C_15 
REMARK    5  A    between atoms: C_15  and  C_16 
REMARK    6  A    between atoms: C_17  and  C_18 
ROOT
HETATM    1  C   UNL     1       6.797  26.154  52.626  1.00  0.00     0.288 C 
HETATM    2  N   UNL     1       6.431  26.354  53.938  1.00  0.00    -0.262 N 
HETATM    3  O   UNL     1       7.826  25.555  52.316  1.00  0.00    -0.264 OA
HETATM    4  H   UNL     1       5.561  26.797  54.224  1.00  0.00     0.190 HD
ENDROOT
BRANCH   1   5
HETATM    5  C   UNL     1       5.895  26.701  51.649  1.00  0.00     0.121 A 
HETATM    6  N   UNL     1       5.692  28.046  51.524  1.00  0.00    -0.272 N 
HETATM    7  N   UNL     1       4.815  28.385  50.568  1.00  0.00    -0.174 NA
HETATM    8  H   UNL     1       6.130  28.782  52.071  1.00  0.00     0.189 HD
HETATM    9  C   UNL     1       4.400  27.215  50.055  1.00  0.00     0.089 A 
HETATM   10  C   UNL     1       5.068  26.135  50.699  1.00  0.00     0.071 A 
BRANCH   9  11
HETATM   11  C   UNL     1       3.399  27.148  48.984  1.00  0.00    -0.005 A 
HETATM   12  C   UNL     1       3.501  26.183  47.971  1.00  0.00     0.016 A 
HETATM   13  C   UNL     1       2.546  26.102  46.949  1.00  0.00     0.037 A 
HETATM   14  C   UNL     1       1.471  26.989  46.923  1.00  0.00     0.068 A 
HETATM   15  C   UNL     1       1.370  27.961  47.920  1.00  0.00     0.037 A 
HETATM   16  C   UNL     1       2.321  28.042  48.942  1.00  0.00     0.016 A 
BRANCH  14  17
HETATM   17  O   UNL     1       0.472  27.019  45.991  1.00  0.00    -0.356 OA
HETATM   18  C   UNL     1      -0.573  27.961  46.200  1.00  0.00     0.210 C 
ENDBRANCH  14  17
ENDBRANCH   9  11
ENDBRANCH   1   5
BRANCH   2  19
HETATM   19  N   UNL     1       7.262  25.901  54.966  1.00  0.00    -0.267 N 
HETATM   20  C   UNL     1       6.711  25.077  55.921  1.00  0.00     0.240 C 
HETATM   21  O   UNL     1       5.526  24.753  55.913  1.00  0.00    -0.271 OA
HETATM   22  H   UNL     1       8.260  26.060  54.859  1.00  0.00     0.190 HD
BRANCH  20  23
HETATM   23  C   UNL     1       7.598  24.582  57.005  1.00  0.00     0.089 A 
HETATM   24  C   UNL     1       8.346  23.264  56.911  1.00  0.00     0.036 A 
HETATM   25  C   UNL     1       9.100  24.575  56.945  1.00  0.00     0.025 A 
BRANCH  24  26
HETATM   26  C   UNL     1       8.343  22.418  55.658  1.00  0.00    -0.015 A 
HETATM   27  C   UNL     1       7.931  21.074  55.668  1.00  0.00     0.123 A 
HETATM   28  F   UNL     1       7.545  20.511  56.823  1.00  0.00    -0.206 F 
HETATM   29  C   UNL     1       7.906  20.295  54.514  1.00  0.00     0.043 A 
HETATM   30  C   UNL     1       8.291  20.852  53.298  1.00  0.00     0.003 A 
HETATM   31  C   UNL     1       8.690  22.185  53.248  1.00  0.00     0.001 A 
HETATM   32  C   UNL     1       8.710  22.958  54.414  1.00  0.00     0.011 A 
ENDBRANCH  24  26
ENDBRANCH  20  23
ENDBRANCH   2  19
TORSDOF 6
ENDMDL
MODEL 2
REMARK VINA RESULT:      -9.4      6.153      9.356
REMARK  6 active torsions:
REMARK  status: ('A' for Active; 'I' for Inactive)
REMARK    1  A    between atoms: O_2  and  C_3 
REMARK    2  A    between atoms: C_6  and  C_7 
REMARK    3  A    between atoms: C_11  and  C_12 
REMARK       I    between atoms: C_12  and  N_13 
REMARK    4  A    between atoms: N_13  and  N_14 
REMARK       I    between atoms: N_14  and  C_15 
REMARK    5  A    between atoms: C_15  and  C_16 
REMARK    6  A    between atoms: C_17  and  C_18 
ROOT
HETATM    1  C   UNL     1       4.328  28.966  56.342  1.00  0.00     0.288 C 
HETATM    2  N   UNL     1       4.800  29.082  57.631  1.00  0.00    -0.262 N 
HETATM    3  O   UNL     1       3.530  29.768  55.862  1.00  0.00    -0.264 OA
HETATM    4  H   UNL     1       5.500  28.466  58.037  1.00  0.00     0.190 HD
ENDROOT
BRANCH   1   5
HETATM    5  C   UNL     1       4.831  27.838  55.606  1.00  0.00     0.121 A 
HETATM    6  N   UNL     1       4.446  27.579  54.322  1.00  0.00    -0.272 N 
HETATM    7  N   UNL     1       5.007  26.485  53.788  1.00  0.00    -0.174 NA
HETATM    8  H   UNL     1       3.796  28.122  53.760  1.00  0.00     0.189 HD
HETATM    9  C   UNL     1       5.776  25.982  54.767  1.00  0.00     0.089 A 
HETATM   10  C   UNL     1       5.703  26.814  55.921  1.00  0.00     0.071 A 
BRANCH   9  11
HETATM   11  C   UNL     1       6.550  24.749  54.590  1.00  0.00    -0.005 A 
HETATM   12  C   UNL     1       6.968  24.002  55.702  1.00  0.00     0.016 A 
HETATM   13  C   UNL     1       7.698  22.817  55.546  1.00  0.00     0.037 A 
HETATM   14  C   UNL     1       8.027  22.359  54.272  1.00  0.00     0.068 A 
HETATM   15  C   UNL     1       7.627  23.103  53.160  1.00  0.00     0.037 A 
HETATM   16  C   UNL     1       6.895  24.285  53.314  1.00  0.00     0.016 A 
BRANCH  14  17
HETATM   17  O   UNL     1       8.728  21.223  53.977  1.00  0.00    -0.356 OA
HETATM   18  C   UNL     1       8.277  20.460  52.866  1.00  0.00     0.210 C 
ENDBRANCH  14  17
ENDBRANCH   9  11
ENDBRANCH   1   5
BRANCH   2  19
HETATM   19  N   UNL     1       4.339  30.119  58.446  1.00  0.00    -0.267 N 
HETATM   20  C   UNL     1       5.078  31.278  58.491  1.00  0.00     0.240 C 
HETATM   21  O   UNL     1       6.127  31.420  57.866  1.00  0.00    -0.271 OA
HETATM   22  H   UNL     1       3.400  30.028  58.825  1.00  0.00     0.190 HD
BRANCH  20  23
HETATM   23  C   UNL     1       4.580  32.387  59.345  1.00  0.00     0.089 A 
HETATM   24  C   UNL     1       5.327  32.870  60.575  1.00  0.00     0.036 A 
HETATM   25  C   UNL     1       5.160  33.773  59.373  1.00  0.00     0.025 A 
BRANCH  24  26
HETATM   26  C   UNL     1       6.695  32.347  60.951  1.00  0.00    -0.015 A 
HETATM   27  C   UNL     1       6.892  31.512  62.064  1.00  0.00     0.123 A 
HETATM   28  F   UNL     1       5.844  31.180  62.835  1.00  0.00    -0.206 F 
HETATM   29  C   UNL     1       8.145  31.008  62.404  1.00  0.00     0.043 A 
HETATM   30  C   UNL     1       9.251  31.325  61.621  1.00  0.00     0.003 A 
HETATM   31  C   UNL     1       9.090  32.137  60.501  1.00  0.00     0.001 A 
HETATM   32  C   UNL     1       7.825  32.636  60.169  1.00  0.00     0.011 A 
ENDBRANCH  24  26
ENDBRANCH  20  23
ENDBRANCH   2  19
TORSDOF 6
ENDMDL
MODEL 3
REMARK VINA RESULT:      -9.4      5.936      9.957
REMARK  6 active torsions:
REMARK  status: ('A' for Active; 'I' for Inactive)
REMARK    1  A    between atoms: O_2  and  C_3 
REMARK    2  A    between atoms: C_6  and  C_7 
REMARK    3  A    between atoms: C_11  and  C_12 
REMARK       I    between atoms: C_12  and  N_13 
REMARK    4  A    between atoms: N_13  and  N_14 
REMARK       I    between atoms: N_14  and  C_15 
REMARK    5  A    between atoms: C_15  and  C_16 
REMARK    6  A    between atoms: C_17  and  C_18 
ROOT
HETATM    1  C   UNL     1       8.371  29.159  55.920  1.00  0.00     0.288 C 
HETATM    2  N   UNL     1       7.497  28.243  55.378  1.00  0.00    -0.262 N 
HETATM    3  O   UNL     1       9.484  29.365  55.441  1.00  0.00    -0.264 OA
HETATM    4  H   UNL     1       6.551  28.090  55.719  1.00  0.00     0.190 HD
ENDROOT
BRANCH   1   5
HETATM    5  C   UNL     1       7.890  29.845  57.088  1.00  0.00     0.121 A 
HETATM    6  N   UNL     1       6.625  30.357  57.159  1.00  0.00    -0.272 N 
HETATM    7  N   UNL     1       6.342  30.970  58.317  1.00  0.00    -0.174 NA
HETATM    8  H   UNL     1       5.910  30.315  56.438  1.00  0.00     0.189 HD
HETATM    9  C   UNL     1       7.474  30.884  59.034  1.00  0.00     0.089 A 
HETATM   10  C   UNL     1       8.464  30.171  58.301  1.00  0.00     0.071 A 
BRANCH   9  11
HETATM   11  C   UNL     1       7.589  31.468  60.375  1.00  0.00    -0.005 A 
HETATM   12  C   UNL     1       6.655  32.414  60.825  1.00  0.00     0.016 A 
HETATM   13  C   UNL     1       6.748  32.970  62.107  1.00  0.00     0.037 A 
HETATM   14  C   UNL     1       7.781  32.592  62.963  1.00  0.00     0.068 A 
HETATM   15  C   UNL     1       8.722  31.662  62.518  1.00  0.00     0.037 A 
HETATM   16  C   UNL     1       8.629  31.102  61.239  1.00  0.00     0.016 A 
BRANCH  14  17
HETATM   17  O   UNL     1       7.987  33.051  64.233  1.00  0.00    -0.356 OA
HETATM   18  C   UNL     1       6.906  33.739  64.850  1.00  0.00     0.210 C 
ENDBRANCH  14  17
ENDBRANCH   9  11
ENDBRANCH   1   5
BRANCH   2  19
HETATM   19  N   UNL     1       7.885  27.489  54.267  1.00  0.00    -0.267 N 
HETATM   20  C   UNL     1       7.056  26.467  53.864  1.00  0.00     0.240 C 
HETATM   21  O   UNL     1       6.016  26.185  54.453  1.00  0.00    -0.271 OA
HETATM   22  H   UNL     1       8.663  27.841  53.717  1.00  0.00     0.190 HD
BRANCH  20  23
HETATM   23  C   UNL     1       7.460  25.675  52.674  1.00  0.00     0.089 A 
HETATM   24  C   UNL     1       8.016  24.266  52.779  1.00  0.00     0.036 A 
HETATM   25  C   UNL     1       6.682  24.519  52.111  1.00  0.00     0.025 A 
BRANCH  24  26
HETATM   26  C   UNL     1       8.081  23.517  54.091  1.00  0.00    -0.015 A 
HETATM   27  C   UNL     1       7.761  22.152  54.185  1.00  0.00     0.123 A 
HETATM   28  F   UNL     1       7.364  21.489  53.088  1.00  0.00    -0.206 F 
HETATM   29  C   UNL     1       7.840  21.450  55.386  1.00  0.00     0.043 A 
HETATM   30  C   UNL     1       8.257  22.105  56.540  1.00  0.00     0.003 A 
HETATM   31  C   UNL     1       8.598  23.453  56.481  1.00  0.00     0.001 A 
HETATM   32  C   UNL     1       8.515  24.148  55.269  1.00  0.00     0.011 A 
ENDBRANCH  24  26
ENDBRANCH  20  23
ENDBRANCH   2  19
TORSDOF 6
ENDMDL
MODEL 4
REMARK VINA RESULT:      -9.4      6.042     10.184
REMARK  6 active torsions:
REMARK  status: ('A' for Active; 'I' for Inactive)
REMARK    1  A    between atoms: O_2  and  C_3 
REMARK    2  A    between atoms: C_6  and  C_7 
REMARK    3  A    between atoms: C_11  and  C_12 
REMARK       I    between atoms: C_12  and  N_13 
REMARK    4  A    between atoms: N_13  and  N_14 
REMARK       I    between atoms: N_14  and  C_15 
REMARK    5  A    between atoms: C_15  and  C_16 
REMARK    6  A    between atoms: C_17  and  C_18 
ROOT
HETATM    1  C   UNL     1       8.173  28.498  56.326  1.00  0.00     0.288 C 
HETATM    2  N   UNL     1       7.957  29.119  55.115  1.00  0.00    -0.262 N 
HETATM    3  O   UNL     1       8.171  27.275  56.444  1.00  0.00    -0.264 OA
HETATM    4  H   UNL     1       8.006  30.125  54.976  1.00  0.00     0.190 HD
ENDROOT
BRANCH   1   5
HETATM    5  C   UNL     1       8.389  29.385  57.436  1.00  0.00     0.121 A 
HETATM    6  N   UNL     1       9.633  29.844  57.766  1.00  0.00    -0.272 N 
HETATM    7  N   UNL     1       9.656  30.658  58.831  1.00  0.00    -0.174 NA
HETATM    8  H   UNL     1      10.506  29.630  57.292  1.00  0.00     0.189 HD
HETATM    9  C   UNL     1       8.379  30.720  59.241  1.00  0.00     0.089 A 
HETATM   10  C   UNL     1       7.551  29.945  58.380  1.00  0.00     0.071 A 
BRANCH   9  11
HETATM   11  C   UNL     1       7.979  31.500  60.417  1.00  0.00    -0.005 A 
HETATM   12  C   UNL     1       8.735  31.451  61.598  1.00  0.00     0.016 A 
HETATM   13  C   UNL     1       8.369  32.200  62.724  1.00  0.00     0.037 A 
HETATM   14  C   UNL     1       7.236  33.011  62.689  1.00  0.00     0.068 A 
HETATM   15  C   UNL     1       6.470  33.055  61.523  1.00  0.00     0.037 A 
HETATM   16  C   UNL     1       6.836  32.310  60.396  1.00  0.00     0.016 A 
BRANCH  14  17
HETATM   17  O   UNL     1       6.770  33.791  63.709  1.00  0.00    -0.356 OA
HETATM   18  C   UNL     1       7.196  33.454  65.023  1.00  0.00     0.210 C 
ENDBRANCH  14  17
ENDBRANCH   9  11
ENDBRANCH   1   5
BRANCH   2  19
HETATM   19  N   UNL     1       7.691  28.348  53.980  1.00  0.00    -0.267 N 
HETATM   20  C   UNL     1       6.374  28.148  53.634  1.00  0.00     0.240 C 
HETATM   21  O   UNL     1       5.440  28.596  54.294  1.00  0.00    -0.271 OA
HETATM   22  H   UNL     1       8.478  28.124  53.377  1.00  0.00     0.190 HD
BRANCH  20  23
HETATM   23  C   UNL     1       6.091  27.343  52.418  1.00  0.00     0.089 A 
HETATM   24  C   UNL     1       6.301  25.840  52.365  1.00  0.00     0.036 A 
HETATM   25  C   UNL     1       4.911  26.427  52.254  1.00  0.00     0.025 A 
BRANCH  24  26
HETATM   26  C   UNL     1       6.692  25.033  53.583  1.00  0.00    -0.015 A 
HETATM   27  C   UNL     1       7.847  24.233  53.606  1.00  0.00     0.123 A 
HETATM   28  F   UNL     1       8.621  24.160  52.512  1.00  0.00    -0.206 F 
HETATM   29  C   UNL     1       8.226  23.504  54.730  1.00  0.00     0.043 A 
HETATM   30  C   UNL     1       7.449  23.565  55.884  1.00  0.00     0.003 A 
HETATM   31  C   UNL     1       6.307  24.359  55.902  1.00  0.00     0.001 A 
HETATM   32  C   UNL     1       5.938  25.089  54.767  1.00  0.00     0.011 A 
ENDBRANCH  24  26
ENDBRANCH  20  23
ENDBRANCH   2  19
TORSDOF 6
ENDMDL
MODEL 5
REMARK VINA RESULT:      -9.3      8.092     11.281
REMARK  6 active torsions:
REMARK  status: ('A' for Active; 'I' for Inactive)
REMARK    1  A    between atoms: O_2  and  C_3 
REMARK    2  A    between atoms: C_6  and  C_7 
REMARK    3  A    between atoms: C_11  and  C_12 
REMARK       I    between atoms: C_12  and  N_13 
REMARK    4  A    between atoms: N_13  and  N_14 
REMARK       I    between atoms: N_14  and  C_15 
REMARK    5  A    between atoms: C_15  and  C_16 
REMARK    6  A    between atoms: C_17  and  C_18 
ROOT
HETATM    1  C   UNL     1       7.633  30.811  59.083  1.00  0.00     0.288 C 
HETATM    2  N   UNL     1       7.990  30.592  60.396  1.00  0.00    -0.262 N 
HETATM    3  O   UNL     1       7.545  31.941  58.608  1.00  0.00    -0.264 OA
HETATM    4  H   UNL     1       8.123  29.669  60.802  1.00  0.00     0.190 HD
ENDROOT
BRANCH   1   5
HETATM    5  C   UNL     1       7.366  29.625  58.317  1.00  0.00     0.121 A 
HETATM    6  N   UNL     1       6.108  29.306  57.890  1.00  0.00    -0.272 N 
HETATM    7  N   UNL     1       6.036  28.163  57.193  1.00  0.00    -0.174 NA
HETATM    8  H   UNL     1       5.257  29.838  58.049  1.00  0.00     0.189 HD
HETATM    9  C   UNL     1       7.292  27.691  57.179  1.00  0.00     0.089 A 
HETATM   10  C   UNL     1       8.160  28.590  57.863  1.00  0.00     0.071 A 
BRANCH   9  11
HETATM   11  C   UNL     1       7.638  26.422  56.529  1.00  0.00    -0.005 A 
HETATM   12  C   UNL     1       8.321  25.420  57.235  1.00  0.00     0.016 A 
HETATM   13  C   UNL     1       8.647  24.200  56.628  1.00  0.00     0.037 A 
HETATM   14  C   UNL     1       8.297  23.962  55.301  1.00  0.00     0.068 A 
HETATM   15  C   UNL     1       7.630  24.959  54.586  1.00  0.00     0.037 A 
HETATM   16  C   UNL     1       7.300  26.176  55.191  1.00  0.00     0.016 A 
BRANCH  14  17
HETATM   17  O   UNL     1       8.549  22.821  54.591  1.00  0.00    -0.356 OA
HETATM   18  C   UNL     1       7.695  22.550  53.487  1.00  0.00     0.210 C 
ENDBRANCH  14  17
ENDBRANCH   9  11
ENDBRANCH   1   5
BRANCH   2  19
HETATM   19  N   UNL     1       8.228  31.680  61.240  1.00  0.00    -0.267 N 
HETATM   20  C   UNL     1       7.602  31.691  62.466  1.00  0.00     0.240 C 
HETATM   21  O   UNL     1       6.835  30.802  62.826  1.00  0.00    -0.271 OA
HETATM   22  H   UNL     1       8.978  32.314  60.978  1.00  0.00     0.190 HD
BRANCH  20  23
HETATM   23  C   UNL     1       7.867  32.839  63.370  1.00  0.00     0.089 A 
HETATM   24  C   UNL     1       6.889  33.988  63.541  1.00  0.00     0.036 A 
HETATM   25  C   UNL     1       7.194  33.058  64.695  1.00  0.00     0.025 A 
BRANCH  24  26
HETATM   26  C   UNL     1       5.518  33.987  62.903  1.00  0.00    -0.015 A 
HETATM   27  C   UNL     1       4.345  33.821  63.659  1.00  0.00     0.123 A 
HETATM   28  F   UNL     1       4.435  33.635  64.985  1.00  0.00    -0.206 F 
HETATM   29  C   UNL     1       3.078  33.841  63.081  1.00  0.00     0.043 A 
HETATM   30  C   UNL     1       2.950  34.040  61.709  1.00  0.00     0.003 A 
HETATM   31  C   UNL     1       4.090  34.225  60.932  1.00  0.00     0.001 A 
HETATM   32  C   UNL     1       5.357  34.204  61.524  1.00  0.00     0.011 A 
ENDBRANCH  24  26
ENDBRANCH  20  23
ENDBRANCH   2  19
TORSDOF 6
ENDMDL
MODEL 6
REMARK VINA RESULT:      -9.1      7.769     11.748
REMARK  6 active torsions:
REMARK  status: ('A' for Active; 'I' for Inactive)
REMARK    1  A    between atoms: O_2  and  C_3 
REMARK    2  A    between atoms: C_6  and  C_7 
REMARK    3  A    between atoms: C_11  and  C_12 
REMARK       I    between atoms: C_12  and  N_13 
REMARK    4  A    between atoms: N_13  and  N_14 
REMARK       I    between atoms: N_14  and  C_15 
REMARK    5  A    between atoms: C_15  and  C_16 
REMARK    6  A    between atoms: C_17  and  C_18 
ROOT
HETATM    1  C   UNL     1       8.237  30.598  58.652  1.00  0.00     0.288 C 
HETATM    2  N   UNL     1       7.111  30.125  58.016  1.00  0.00    -0.262 N 
HETATM    3  O   UNL     1       9.316  30.715  58.075  1.00  0.00    -0.264 OA
HETATM    4  H   UNL     1       6.194  30.068  58.452  1.00  0.00     0.190 HD
ENDROOT
BRANCH   1   5
HETATM    5  C   UNL     1       8.059  30.936  60.039  1.00  0.00     0.121 A 
HETATM    6  N   UNL     1       8.694  30.255  61.038  1.00  0.00    -0.272 N 
HETATM    7  N   UNL     1       8.412  30.697  62.272  1.00  0.00    -0.174 NA
HETATM    8  H   UNL     1       9.336  29.475  60.931  1.00  0.00     0.189 HD
HETATM    9  C   UNL     1       7.533  31.695  62.085  1.00  0.00     0.089 A 
HETATM   10  C   UNL     1       7.298  31.884  60.693  1.00  0.00     0.071 A 
BRANCH   9  11
HETATM   11  C   UNL     1       6.947  32.434  63.209  1.00  0.00    -0.005 A 
HETATM   12  C   UNL     1       5.555  32.502  63.370  1.00  0.00     0.016 A 
HETATM   13  C   UNL     1       4.984  33.196  64.445  1.00  0.00     0.037 A 
HETATM   14  C   UNL     1       5.798  33.838  65.377  1.00  0.00     0.068 A 
HETATM   15  C   UNL     1       7.183  33.786  65.216  1.00  0.00     0.037 A 
HETATM   16  C   UNL     1       7.756  33.091  64.145  1.00  0.00     0.016 A 
BRANCH  14  17
HETATM   17  O   UNL     1       5.375  34.543  66.469  1.00  0.00    -0.356 OA
HETATM   18  C   UNL     1       4.169  35.283  66.328  1.00  0.00     0.210 C 
ENDBRANCH  14  17
ENDBRANCH   9  11
ENDBRANCH   1   5
BRANCH   2  19
HETATM   19  N   UNL     1       7.188  29.725  56.679  1.00  0.00    -0.267 N 
HETATM   20  C   UNL     1       6.211  28.880  56.204  1.00  0.00     0.240 C 
HETATM   21  O   UNL     1       5.303  28.453  56.913  1.00  0.00    -0.271 OA
HETATM   22  H   UNL     1       7.855  30.213  56.088  1.00  0.00     0.190 HD
BRANCH  20  23
HETATM   23  C   UNL     1       6.283  28.468  54.779  1.00  0.00     0.089 A 
HETATM   24  C   UNL     1       6.832  27.122  54.344  1.00  0.00     0.036 A 
HETATM   25  C   UNL     1       5.373  27.461  54.133  1.00  0.00     0.025 A 
BRANCH  24  26
HETATM   26  C   UNL     1       7.231  26.050  55.333  1.00  0.00    -0.015 A 
HETATM   27  C   UNL     1       6.832  24.711  55.182  1.00  0.00     0.123 A 
HETATM   28  F   UNL     1       6.057  24.367  54.141  1.00  0.00    -0.206 F 
HETATM   29  C   UNL     1       7.213  23.715  56.077  1.00  0.00     0.043 A 
HETATM   30  C   UNL     1       8.024  24.037  57.162  1.00  0.00     0.003 A 
HETATM   31  C   UNL     1       8.451  25.351  57.335  1.00  0.00     0.001 A 
HETATM   32  C   UNL     1       8.062  26.343  56.427  1.00  0.00     0.011 A 
ENDBRANCH  24  26
ENDBRANCH  20  23
ENDBRANCH   2  19
TORSDOF 6
ENDMDL
MODEL 7
REMARK VINA RESULT:      -9.1     14.525     17.648
REMARK  6 active torsions:
REMARK  status: ('A' for Active; 'I' for Inactive)
REMARK    1  A    between atoms: O_2  and  C_3 
REMARK    2  A    between atoms: C_6  and  C_7 
REMARK    3  A    between atoms: C_11  and  C_12 
REMARK       I    between atoms: C_12  and  N_13 
REMARK    4  A    between atoms: N_13  and  N_14 
REMARK       I    between atoms: N_14  and  C_15 
REMARK    5  A    between atoms: C_15  and  C_16 
REMARK    6  A    between atoms: C_17  and  C_18 
ROOT
HETATM    1  C   UNL     1       5.523  34.288  67.397  1.00  0.00     0.288 C 
HETATM    2  N   UNL     1       6.490  35.174  67.818  1.00  0.00    -0.262 N 
HETATM    3  O   UNL     1       4.605  33.924  68.128  1.00  0.00    -0.264 OA
HETATM    4  H   UNL     1       7.230  35.535  67.221  1.00  0.00     0.190 HD
ENDROOT
BRANCH   1   5
HETATM    5  C   UNL     1       5.673  33.818  66.047  1.00  0.00     0.121 A 
HETATM    6  N   UNL     1       4.603  33.436  65.289  1.00  0.00    -0.272 N 
HETATM    7  N   UNL     1       4.921  33.020  64.055  1.00  0.00    -0.174 NA
HETATM    8  H   UNL     1       3.626  33.441  65.568  1.00  0.00     0.189 HD
HETATM    9  C   UNL     1       6.260  33.104  64.001  1.00  0.00     0.089 A 
HETATM   10  C   UNL     1       6.768  33.616  65.229  1.00  0.00     0.071 A 
BRANCH   9  11
HETATM   11  C   UNL     1       7.016  32.706  62.808  1.00  0.00    -0.005 A 
HETATM   12  C   UNL     1       8.342  32.262  62.918  1.00  0.00     0.016 A 
HETATM   13  C   UNL     1       9.070  31.870  61.787  1.00  0.00     0.037 A 
HETATM   14  C   UNL     1       8.483  31.916  60.524  1.00  0.00     0.068 A 
HETATM   15  C   UNL     1       7.168  32.369  60.404  1.00  0.00     0.037 A 
HETATM   16  C   UNL     1       6.438  32.759  61.532  1.00  0.00     0.016 A 
BRANCH  14  17
HETATM   17  O   UNL     1       9.075  31.561  59.344  1.00  0.00    -0.356 OA
HETATM   18  C   UNL     1       8.787  30.260  58.847  1.00  0.00     0.210 C 
ENDBRANCH  14  17
ENDBRANCH   9  11
ENDBRANCH   1   5
BRANCH   2  19
HETATM   19  N   UNL     1       6.463  35.657  69.130  1.00  0.00    -0.267 N 
HETATM   20  C   UNL     1       7.596  35.504  69.895  1.00  0.00     0.240 C 
HETATM   21  O   UNL     1       8.606  34.943  69.477  1.00  0.00    -0.271 OA
HETATM   22  H   UNL     1       5.676  36.245  69.390  1.00  0.00     0.190 HD
BRANCH  20  23
HETATM   23  C   UNL     1       7.573  36.031  71.283  1.00  0.00     0.089 A 
HETATM   24  C   UNL     1       7.411  35.133  72.496  1.00  0.00     0.036 A 
HETATM   25  C   UNL     1       8.699  35.894  72.269  1.00  0.00     0.025 A 
BRANCH  24  26
HETATM   26  C   UNL     1       7.388  33.625  72.392  1.00  0.00    -0.015 A 
HETATM   27  C   UNL     1       6.381  32.943  71.687  1.00  0.00     0.123 A 
HETATM   28  F   UNL     1       5.395  33.641  71.104  1.00  0.00    -0.206 F 
HETATM   29  C   UNL     1       6.365  31.555  71.568  1.00  0.00     0.043 A 
HETATM   30  C   UNL     1       7.379  30.803  72.154  1.00  0.00     0.003 A 
HETATM   31  C   UNL     1       8.401  31.446  72.846  1.00  0.00     0.001 A 
HETATM   32  C   UNL     1       8.407  32.840  72.958  1.00  0.00     0.011 A 
ENDBRANCH  24  26
ENDBRANCH  20  23
ENDBRANCH   2  19
TORSDOF 6
ENDMDL
MODEL 8
REMARK VINA RESULT:      -9.0      2.462      4.164
REMARK  6 active torsions:
REMARK  status: ('A' for Active; 'I' for Inactive)
REMARK    1  A    between atoms: O_2  and  C_3 
REMARK    2  A    between atoms: C_6  and  C_7 
REMARK    3  A    between atoms: C_11  and  C_12 
REMARK       I    between atoms: C_12  and  N_13 
REMARK    4  A    between atoms: N_13  and  N_14 
REMARK       I    between atoms: N_14  and  C_15 
REMARK    5  A    between atoms: C_15  and  C_16 
REMARK    6  A    between atoms: C_17  and  C_18 
ROOT
HETATM    1  C   UNL     1       5.082  27.497  50.805  1.00  0.00     0.288 C 
HETATM    2  N   UNL     1       5.460  26.187  50.608  1.00  0.00    -0.262 N 
HETATM    3  O   UNL     1       5.731  28.267  51.510  1.00  0.00    -0.264 OA
HETATM    4  H   UNL     1       4.975  25.542  49.988  1.00  0.00     0.190 HD
ENDROOT
BRANCH   1   5
HETATM    5  C   UNL     1       3.873  27.891  50.134  1.00  0.00     0.121 A 
HETATM    6  N   UNL     1       2.876  28.569  50.776  1.00  0.00    -0.272 N 
HETATM    7  N   UNL     1       1.817  28.854  50.004  1.00  0.00    -0.174 NA
HETATM    8  H   UNL     1       2.868  28.864  51.748  1.00  0.00     0.189 HD
HETATM    9  C   UNL     1       2.113  28.319  48.808  1.00  0.00     0.089 A 
HETATM   10  C   UNL     1       3.404  27.718  48.847  1.00  0.00     0.071 A 
BRANCH   9  11
HETATM   11  C   UNL     1       1.183  28.390  47.675  1.00  0.00    -0.005 A 
HETATM   12  C   UNL     1       0.593  29.609  47.311  1.00  0.00     0.016 A 
HETATM   13  C   UNL     1      -0.287  29.692  46.224  1.00  0.00     0.037 A 
HETATM   14  C   UNL     1      -0.596  28.552  45.484  1.00  0.00     0.068 A 
HETATM   15  C   UNL     1      -0.024  27.332  45.848  1.00  0.00     0.037 A 
HETATM   16  C   UNL     1       0.858  27.248  46.931  1.00  0.00     0.016 A 
BRANCH  14  17
HETATM   17  O   UNL     1      -1.432  28.492  44.404  1.00  0.00    -0.356 OA
HETATM   18  C   UNL     1      -1.048  27.627  43.343  1.00  0.00     0.210 C 
ENDBRANCH  14  17
ENDBRANCH   9  11
ENDBRANCH   1   5
BRANCH   2  19
HETATM   19  N   UNL     1       6.597  25.690  51.251  1.00  0.00    -0.267 N 
HETATM   20  C   UNL     1       6.419  24.712  52.204  1.00  0.00     0.240 C 
HETATM   21  O   UNL     1       5.310  24.287  52.518  1.00  0.00    -0.271 OA
HETATM   22  H   UNL     1       7.499  25.949  50.864  1.00  0.00     0.190 HD
BRANCH  20  23
HETATM   23  C   UNL     1       7.629  24.172  52.876  1.00  0.00     0.089 A 
HETATM   24  C   UNL     1       7.988  24.515  54.311  1.00  0.00     0.036 A 
HETATM   25  C   UNL     1       7.614  23.099  53.929  1.00  0.00     0.025 A 
BRANCH  24  26
HETATM   26  C   UNL     1       7.078  25.330  55.202  1.00  0.00    -0.015 A 
HETATM   27  C   UNL     1       7.001  26.730  55.105  1.00  0.00     0.123 A 
HETATM   28  F   UNL     1       7.769  27.374  54.212  1.00  0.00    -0.206 F 
HETATM   29  C   UNL     1       6.149  27.486  55.908  1.00  0.00     0.043 A 
HETATM   30  C   UNL     1       5.333  26.848  56.837  1.00  0.00     0.003 A 
HETATM   31  C   UNL     1       5.372  25.461  56.950  1.00  0.00     0.001 A 
HETATM   32  C   UNL     1       6.231  24.713  56.137  1.00  0.00     0.011 A 
ENDBRANCH  24  26
ENDBRANCH  20  23
ENDBRANCH   2  19
TORSDOF 6
ENDMDL
MODEL 9
REMARK VINA RESULT:      -8.4      3.658      9.718
REMARK  6 active torsions:
REMARK  status: ('A' for Active; 'I' for Inactive)
REMARK    1  A    between atoms: O_2  and  C_3 
REMARK    2  A    between atoms: C_6  and  C_7 
REMARK    3  A    between atoms: C_11  and  C_12 
REMARK       I    between atoms: C_12  and  N_13 
REMARK    4  A    between atoms: N_13  and  N_14 
REMARK       I    between atoms: N_14  and  C_15 
REMARK    5  A    between atoms: C_15  and  C_16 
REMARK    6  A    between atoms: C_17  and  C_18 
ROOT
HETATM    1  C   UNL     1       5.340  28.463  51.963  1.00  0.00     0.288 C 
HETATM    2  N   UNL     1       5.609  29.812  52.032  1.00  0.00    -0.262 N 
HETATM    3  O   UNL     1       4.508  28.000  51.186  1.00  0.00    -0.264 OA
HETATM    4  H   UNL     1       6.328  30.219  52.625  1.00  0.00     0.190 HD
ENDROOT
BRANCH   1   5
HETATM    5  C   UNL     1       6.096  27.643  52.869  1.00  0.00     0.121 A 
HETATM    6  N   UNL     1       7.001  28.173  53.744  1.00  0.00    -0.272 N 
HETATM    7  N   UNL     1       7.621  27.266  54.513  1.00  0.00    -0.174 NA
HETATM    8  H   UNL     1       7.236  29.155  53.858  1.00  0.00     0.189 HD
HETATM    9  C   UNL     1       7.127  26.084  54.113  1.00  0.00     0.089 A 
HETATM   10  C   UNL     1       6.154  26.281  53.092  1.00  0.00     0.071 A 
BRANCH   9  11
HETATM   11  C   UNL     1       7.577  24.816  54.698  1.00  0.00    -0.005 A 
HETATM   12  C   UNL     1       7.681  23.661  53.908  1.00  0.00     0.016 A 
HETATM   13  C   UNL     1       8.120  22.448  54.453  1.00  0.00     0.037 A 
HETATM   14  C   UNL     1       8.461  22.367  55.802  1.00  0.00     0.068 A 
HETATM   15  C   UNL     1       8.347  23.508  56.599  1.00  0.00     0.037 A 
HETATM   16  C   UNL     1       7.912  24.722  56.056  1.00  0.00     0.016 A 
BRANCH  14  17
HETATM   17  O   UNL     1       8.904  21.254  56.458  1.00  0.00    -0.356 OA
HETATM   18  C   UNL     1       8.470  19.997  55.956  1.00  0.00     0.210 C 
ENDBRANCH  14  17
ENDBRANCH   9  11
ENDBRANCH   1   5
BRANCH   2  19
HETATM   19  N   UNL     1       4.896  30.703  51.225  1.00  0.00    -0.267 N 
HETATM   20  C   UNL     1       5.477  31.107  50.045  1.00  0.00     0.240 C 
HETATM   21  O   UNL     1       6.595  30.735  49.696  1.00  0.00    -0.271 OA
HETATM   22  H   UNL     1       3.922  30.869  51.466  1.00  0.00     0.190 HD
BRANCH  20  23
HETATM   23  C   UNL     1       4.712  32.041  49.179  1.00  0.00     0.089 A 
HETATM   24  C   UNL     1       3.615  31.573  48.240  1.00  0.00     0.036 A 
HETATM   25  C   UNL     1       3.290  32.460  49.421  1.00  0.00     0.025 A 
BRANCH  24  26
HETATM   26  C   UNL     1       3.133  30.140  48.207  1.00  0.00    -0.015 A 
HETATM   27  C   UNL     1       3.820  29.139  47.499  1.00  0.00     0.123 A 
HETATM   28  F   UNL     1       4.927  29.459  46.810  1.00  0.00    -0.206 F 
HETATM   29  C   UNL     1       3.394  27.813  47.481  1.00  0.00     0.043 A 
HETATM   30  C   UNL     1       2.255  27.447  48.192  1.00  0.00     0.003 A 
HETATM   31  C   UNL     1       1.558  28.409  48.918  1.00  0.00     0.001 A 
HETATM   32  C   UNL     1       1.997  29.737  48.929  1.00  0.00     0.011 A 
ENDBRANCH  24  26
ENDBRANCH  20  23
ENDBRANCH   2  19
TORSDOF 6
ENDMDL
MODEL 10
REMARK VINA RESULT:      -8.3      3.571      9.915
REMARK  6 active torsions:
REMARK  status: ('A' for Active; 'I' for Inactive)
REMARK    1  A    between atoms: O_2  and  C_3 
REMARK    2  A    between atoms: C_6  and  C_7 
REMARK    3  A    between atoms: C_11  and  C_12 
REMARK       I    between atoms: C_12  and  N_13 
REMARK    4  A    between atoms: N_13  and  N_14 
REMARK       I    between atoms: N_14  and  C_15 
REMARK    5  A    between atoms: C_15  and  C_16 
REMARK    6  A    between atoms: C_17  and  C_18 
ROOT
HETATM    1  C   UNL     1       5.108  27.385  50.451  1.00  0.00     0.288 C 
HETATM    2  N   UNL     1       5.282  28.686  50.866  1.00  0.00    -0.262 N 
HETATM    3  O   UNL     1       4.729  27.104  49.316  1.00  0.00    -0.264 OA
HETATM    4  H   UNL     1       5.645  28.948  51.779  1.00  0.00     0.190 HD
ENDROOT
BRANCH   1   5
HETATM    5  C   UNL     1       5.393  26.384  51.443  1.00  0.00     0.121 A 
HETATM    6  N   UNL     1       4.471  26.007  52.378  1.00  0.00    -0.272 N 
HETATM    7  N   UNL     1       4.903  25.066  53.230  1.00  0.00    -0.174 NA
HETATM    8  H   UNL     1       3.525  26.363  52.479  1.00  0.00     0.189 HD
HETATM    9  C   UNL     1       6.172  24.829  52.862  1.00  0.00     0.089 A 
HETATM   10  C   UNL     1       6.511  25.627  51.733  1.00  0.00     0.071 A 
BRANCH   9  11
HETATM   11  C   UNL     1       7.020  23.866  53.574  1.00  0.00    -0.005 A 
HETATM   12  C   UNL     1       7.008  23.805  54.976  1.00  0.00     0.016 A 
HETATM   13  C   UNL     1       7.805  22.883  55.667  1.00  0.00     0.037 A 
HETATM   14  C   UNL     1       8.631  22.006  54.966  1.00  0.00     0.068 A 
HETATM   15  C   UNL     1       8.658  22.069  53.572  1.00  0.00     0.037 A 
HETATM   16  C   UNL     1       7.861  22.987  52.880  1.00  0.00     0.016 A 
BRANCH  14  17
HETATM   17  O   UNL     1       9.452  21.059  55.512  1.00  0.00    -0.356 OA
HETATM   18  C   UNL     1       8.922  20.290  56.584  1.00  0.00     0.210 C 
ENDBRANCH  14  17
ENDBRANCH   9  11
ENDBRANCH   1   5
BRANCH   2  19
HETATM   19  N   UNL     1       4.989  29.737  49.992  1.00  0.00    -0.267 N 
HETATM   20  C   UNL     1       3.795  30.400  50.162  1.00  0.00     0.240 C 
HETATM   21  O   UNL     1       2.981  30.087  51.028  1.00  0.00    -0.271 OA
HETATM   22  H   UNL     1       5.742  30.066  49.394  1.00  0.00     0.190 HD
BRANCH  20  23
HETATM   23  C   UNL     1       3.491  31.527  49.244  1.00  0.00     0.089 A 
HETATM   24  C   UNL     1       2.724  31.341  47.947  1.00  0.00     0.036 A 
HETATM   25  C   UNL     1       2.134  32.153  49.079  1.00  0.00     0.025 A 
BRANCH  24  26
HETATM   26  C   UNL     1       2.105  30.018  47.554  1.00  0.00    -0.015 A 
HETATM   27  C   UNL     1       2.883  28.930  47.124  1.00  0.00     0.123 A 
HETATM   28  F   UNL     1       4.216  29.065  47.037  1.00  0.00    -0.206 F 
HETATM   29  C   UNL     1       2.322  27.703  46.781  1.00  0.00     0.043 A 
HETATM   30  C   UNL     1       0.944  27.527  46.869  1.00  0.00     0.003 A 
HETATM   31  C   UNL     1       0.143  28.578  47.306  1.00  0.00     0.001 A 
HETATM   32  C   UNL     1       0.719  29.806  47.649  1.00  0.00     0.011 A 
ENDBRANCH  24  26
ENDBRANCH  20  23
ENDBRANCH   2  19
TORSDOF 6
ENDMDL
