MODEL 1
REMARK VINA RESULT:     -10.3      0.000      0.000
REMARK  5 active torsions:
REMARK  status: ('A' for Active; 'I' for Inactive)
REMARK    1  A    between atoms: C_2  and  C_3 
REMARK       I    between atoms: C_3  and  N_4 
REMARK    2  A    between atoms: N_4  and  N_5 
REMARK    3  A    between atoms: N_5  and  C_6 
REMARK    4  A    between atoms: N_7  and  C_8 
REMARK    5  A    between atoms: C_8  and  C_9 
ROOT
HETATM    1  C   UNL     1       5.860  27.096  51.203  1.00  0.00     0.200 A 
HETATM    2  N   UNL     1       5.540  28.188  51.985  1.00  0.00    -0.283 N 
HETATM    3  C   UNL     1       5.603  28.118  53.366  1.00  0.00     0.259 A 
HETATM    4  O   UNL     1       5.308  29.074  54.081  1.00  0.00    -0.267 OA
HETATM    5  C   UNL     1       6.059  26.834  53.966  1.00  0.00     0.049 A 
HETATM    6  C   UNL     1       6.405  25.875  53.085  1.00  0.00     0.083 A 
HETATM    7  C   UNL     1       6.951  24.588  53.593  1.00  0.00    -0.000 A 
HETATM    8  C   UNL     1       6.739  24.216  54.929  1.00  0.00    -0.044 A 
HETATM    9  C   UNL     1       7.218  22.988  55.407  1.00  0.00     0.008 A 
HETATM   10  C   UNL     1       7.933  22.138  54.565  1.00  0.00     0.001 A 
HETATM   11  C   UNL     1       8.164  22.505  53.243  1.00  0.00     0.001 A 
HETATM   12  C   UNL     1       7.673  23.719  52.760  1.00  0.00     0.014 A 
HETATM   13  C   UNL     1       5.937  25.128  55.815  1.00  0.00     0.054 C 
HETATM   14  C   UNL     1       6.168  26.629  55.488  1.00  0.00    -0.002 C 
HETATM   15  C   UNL     1       7.555  27.090  55.998  1.00  0.00     0.015 C 
HETATM   16  C   UNL     1       7.373  28.555  56.358  1.00  0.00     0.001 C 
HETATM   17  C   UNL     1       5.976  28.625  56.955  1.00  0.00     0.001 C 
HETATM   18  C   UNL     1       5.189  27.446  56.374  1.00  0.00     0.015 C 
HETATM   19  N   UNL     1       6.293  25.985  51.729  1.00  0.00    -0.218 NA
ENDROOT
BRANCH   1  20
HETATM   20  N   UNL     1       5.717  27.150  49.823  1.00  0.00    -0.188 NA
HETATM   21  H   UNL     1       5.471  28.063  49.439  1.00  0.00     0.150 HD
BRANCH  20  22
HETATM   22  N   UNL     1       4.836  26.150  49.314  1.00  0.00    -0.189 NA
HETATM   23  C   UNL     1       4.412  26.370  48.016  1.00  0.00     0.210 C 
HETATM   24  O   UNL     1       4.989  27.143  47.252  1.00  0.00    -0.279 OA
HETATM   25  H   UNL     1       4.133  25.887  50.008  1.00  0.00     0.150 HD
BRANCH  23  26
HETATM   26  C   UNL     1       3.171  25.595  47.634  1.00  0.00     0.093 C 
HETATM   27  C   UNL     1       2.153  26.512  46.982  1.00  0.00     0.014 C 
ENDBRANCH  23  26
ENDBRANCH  20  22
ENDBRANCH   1  20
BRANCH   2  28
HETATM   28  C   UNL     1       5.199  29.489  51.403  1.00  0.00     0.173 C 
BRANCH  28  29
HETATM   29  C   UNL     1       3.891  29.454  50.639  1.00  0.00    -0.040 A 
HETATM   30  C   UNL     1       2.716  28.984  51.245  1.00  0.00     0.009 A 
HETATM   31  C   UNL     1       1.516  28.946  50.532  1.00  0.00     0.001 A 
HETATM   32  C   UNL     1       1.475  29.377  49.207  1.00  0.00     0.000 A 
HETATM   33  C   UNL     1       2.633  29.850  48.595  1.00  0.00     0.001 A 
HETATM   34  C   UNL     1       3.833  29.891  49.307  1.00  0.00     0.009 A 
ENDBRANCH  28  29
ENDBRANCH   2  28
TORSDOF 5
ENDMDL
MODEL 2
REMARK VINA RESULT:     -10.0      3.716      6.853
REMARK  5 active torsions:
REMARK  status: ('A' for Active; 'I' for Inactive)
REMARK    1  A    between atoms: C_2  and  C_3 
REMARK       I    between atoms: C_3  and  N_4 
REMARK    2  A    between atoms: N_4  and  N_5 
REMARK    3  A    between atoms: N_5  and  C_6 
REMARK    4  A    between atoms: N_7  and  C_8 
REMARK    5  A    between atoms: C_8  and  C_9 
ROOT
HETATM    1  C   UNL     1       7.884  27.040  56.660  1.00  0.00     0.200 A 
HETATM    2  N   UNL     1       7.449  27.697  55.527  1.00  0.00    -0.283 N 
HETATM    3  C   UNL     1       7.204  27.005  54.353  1.00  0.00     0.259 A 
HETATM    4  O   UNL     1       6.830  27.572  53.327  1.00  0.00    -0.267 OA
HETATM    5  C   UNL     1       7.399  25.529  54.375  1.00  0.00     0.049 A 
HETATM    6  C   UNL     1       7.760  25.012  55.565  1.00  0.00     0.083 A 
HETATM    7  C   UNL     1       7.896  23.537  55.702  1.00  0.00    -0.000 A 
HETATM    8  C   UNL     1       8.048  22.738  54.558  1.00  0.00    -0.044 A 
HETATM    9  C   UNL     1       8.214  21.351  54.680  1.00  0.00     0.008 A 
HETATM   10  C   UNL     1       8.202  20.750  55.937  1.00  0.00     0.001 A 
HETATM   11  C   UNL     1       8.035  21.530  57.077  1.00  0.00     0.001 A 
HETATM   12  C   UNL     1       7.887  22.914  56.960  1.00  0.00     0.014 A 
HETATM   13  C   UNL     1       8.092  23.405  53.212  1.00  0.00     0.054 C 
HETATM   14  C   UNL     1       7.164  24.649  53.134  1.00  0.00    -0.002 C 
HETATM   15  C   UNL     1       5.680  24.217  53.049  1.00  0.00     0.015 C 
HETATM   16  C   UNL     1       5.003  25.300  52.226  1.00  0.00     0.001 C 
HETATM   17  C   UNL     1       6.033  25.669  51.170  1.00  0.00     0.001 C 
HETATM   18  C   UNL     1       7.406  25.312  51.751  1.00  0.00     0.015 C 
HETATM   19  N   UNL     1       8.019  25.744  56.688  1.00  0.00    -0.218 NA
ENDROOT
BRANCH   1  20
HETATM   20  N   UNL     1       8.203  27.751  57.809  1.00  0.00    -0.188 NA
HETATM   21  H   UNL     1       7.435  28.270  58.236  1.00  0.00     0.150 HD
BRANCH  20  22
HETATM   22  N   UNL     1       9.336  28.602  57.642  1.00  0.00    -0.189 NA
HETATM   23  C   UNL     1       9.288  29.769  58.384  1.00  0.00     0.210 C 
HETATM   24  O   UNL     1       8.534  29.913  59.345  1.00  0.00    -0.279 OA
HETATM   25  H   UNL     1       9.605  28.672  56.658  1.00  0.00     0.150 HD
BRANCH  23  26
HETATM   26  C   UNL     1      10.225  30.849  57.892  1.00  0.00     0.093 C 
HETATM   27  C   UNL     1      11.495  30.235  57.332  1.00  0.00     0.014 C 
ENDBRANCH  23  26
ENDBRANCH  20  22
ENDBRANCH   1  20
BRANCH   2  28
HETATM   28  C   UNL     1       7.145  29.130  55.526  1.00  0.00     0.173 C 
BRANCH  28  29
HETATM   29  C   UNL     1       5.777  29.430  56.104  1.00  0.00    -0.040 A 
HETATM   30  C   UNL     1       4.611  29.012  55.446  1.00  0.00     0.009 A 
HETATM   31  C   UNL     1       3.352  29.299  55.979  1.00  0.00     0.001 A 
HETATM   32  C   UNL     1       3.245  30.006  57.176  1.00  0.00     0.000 A 
HETATM   33  C   UNL     1       4.394  30.422  57.842  1.00  0.00     0.001 A 
HETATM   34  C   UNL     1       5.653  30.134  57.311  1.00  0.00     0.009 A 
ENDBRANCH  28  29
ENDBRANCH   2  28
TORSDOF 5
ENDMDL
MODEL 3
REMARK VINA RESULT:      -9.6      3.145      6.940
REMARK  5 active torsions:
REMARK  status: ('A' for Active; 'I' for Inactive)
REMARK    1  A    between atoms: C_2  and  C_3 
REMARK       I    between atoms: C_3  and  N_4 
REMARK    2  A    between atoms: N_4  and  N_5 
REMARK    3  A    between atoms: N_5  and  C_6 
REMARK    4  A    between atoms: N_7  and  C_8 
REMARK    5  A    between atoms: C_8  and  C_9 
ROOT
HETATM    1  C   UNL     1       6.189  29.118  55.634  1.00  0.00     0.200 A 
HETATM    2  N   UNL     1       6.677  28.193  56.536  1.00  0.00    -0.283 N 
HETATM    3  C   UNL     1       6.762  26.852  56.203  1.00  0.00     0.259 A 
HETATM    4  O   UNL     1       7.179  26.009  56.997  1.00  0.00    -0.267 OA
HETATM    5  C   UNL     1       6.340  26.458  54.831  1.00  0.00     0.049 A 
HETATM    6  C   UNL     1       5.950  27.472  54.034  1.00  0.00     0.083 A 
HETATM    7  C   UNL     1       5.590  27.183  52.620  1.00  0.00    -0.000 A 
HETATM    8  C   UNL     1       5.269  25.873  52.232  1.00  0.00    -0.044 A 
HETATM    9  C   UNL     1       4.893  25.597  50.910  1.00  0.00     0.008 A 
HETATM   10  C   UNL     1       4.861  26.619  49.962  1.00  0.00     0.001 A 
HETATM   11  C   UNL     1       5.194  27.918  50.331  1.00  0.00     0.001 A 
HETATM   12  C   UNL     1       5.552  28.199  51.651  1.00  0.00     0.014 A 
HETATM   13  C   UNL     1       5.276  24.789  53.273  1.00  0.00     0.054 C 
HETATM   14  C   UNL     1       6.383  24.999  54.343  1.00  0.00    -0.002 C 
HETATM   15  C   UNL     1       7.777  24.665  53.757  1.00  0.00     0.015 C 
HETATM   16  C   UNL     1       8.582  24.140  54.933  1.00  0.00     0.001 C 
HETATM   17  C   UNL     1       7.580  23.330  55.743  1.00  0.00     0.001 C 
HETATM   18  C   UNL     1       6.193  23.896  55.419  1.00  0.00     0.015 C 
HETATM   19  N   UNL     1       5.854  28.777  54.422  1.00  0.00    -0.218 NA
ENDROOT
BRANCH   1  20
HETATM   20  N   UNL     1       6.032  30.447  56.002  1.00  0.00    -0.188 NA
HETATM   21  H   UNL     1       5.716  30.607  56.959  1.00  0.00     0.150 HD
BRANCH  20  22
HETATM   22  N   UNL     1       5.225  31.188  55.089  1.00  0.00    -0.189 NA
HETATM   23  C   UNL     1       3.918  31.372  55.501  1.00  0.00     0.210 C 
HETATM   24  O   UNL     1       3.565  31.225  56.671  1.00  0.00    -0.279 OA
HETATM   25  H   UNL     1       5.384  30.886  54.125  1.00  0.00     0.150 HD
BRANCH  23  26
HETATM   26  C   UNL     1       2.967  31.744  54.386  1.00  0.00     0.093 C 
HETATM   27  C   UNL     1       3.329  31.004  53.111  1.00  0.00     0.014 C 
ENDBRANCH  23  26
ENDBRANCH  20  22
ENDBRANCH   1  20
BRANCH   2  28
HETATM   28  C   UNL     1       7.200  28.585  57.847  1.00  0.00     0.173 C 
BRANCH  28  29
HETATM   29  C   UNL     1       8.531  29.304  57.744  1.00  0.00    -0.040 A 
HETATM   30  C   UNL     1       8.756  30.503  58.436  1.00  0.00     0.009 A 
HETATM   31  C   UNL     1       9.981  31.165  58.329  1.00  0.00     0.001 A 
HETATM   32  C   UNL     1      10.995  30.637  57.532  1.00  0.00     0.000 A 
HETATM   33  C   UNL     1      10.786  29.445  56.843  1.00  0.00     0.001 A 
HETATM   34  C   UNL     1       9.563  28.780  56.951  1.00  0.00     0.009 A 
ENDBRANCH  28  29
ENDBRANCH   2  28
TORSDOF 5
ENDMDL
MODEL 4
REMARK VINA RESULT:      -9.1      1.710      2.341
REMARK  5 active torsions:
REMARK  status: ('A' for Active; 'I' for Inactive)
REMARK    1  A    between atoms: C_2  and  C_3 
REMARK       I    between atoms: C_3  and  N_4 
REMARK    2  A    between atoms: N_4  and  N_5 
REMARK    3  A    between atoms: N_5  and  C_6 
REMARK    4  A    between atoms: N_7  and  C_8 
REMARK    5  A    between atoms: C_8  and  C_9 
ROOT
HETATM    1  C   UNL     1       4.408  27.803  51.052  1.00  0.00     0.200 A 
HETATM    2  N   UNL     1       3.951  28.766  51.929  1.00  0.00    -0.283 N 
HETATM    3  C   UNL     1       4.234  28.689  53.282  1.00  0.00     0.259 A 
HETATM    4  O   UNL     1       3.824  29.528  54.083  1.00  0.00    -0.267 OA
HETATM    5  C   UNL     1       5.074  27.549  53.742  1.00  0.00     0.049 A 
HETATM    6  C   UNL     1       5.508  26.723  52.770  1.00  0.00     0.083 A 
HETATM    7  C   UNL     1       6.420  25.603  53.127  1.00  0.00    -0.000 A 
HETATM    8  C   UNL     1       6.506  25.165  54.457  1.00  0.00    -0.044 A 
HETATM    9  C   UNL     1       7.336  24.087  54.796  1.00  0.00     0.008 A 
HETATM   10  C   UNL     1       8.104  23.458  53.817  1.00  0.00     0.001 A 
HETATM   11  C   UNL     1       8.040  23.895  52.498  1.00  0.00     0.001 A 
HETATM   12  C   UNL     1       7.201  24.957  52.154  1.00  0.00     0.014 A 
HETATM   13  C   UNL     1       5.647  25.832  55.494  1.00  0.00     0.054 C 
HETATM   14  C   UNL     1       5.453  27.350  55.220  1.00  0.00    -0.002 C 
HETATM   15  C   UNL     1       6.746  28.132  55.557  1.00  0.00     0.015 C 
HETATM   16  C   UNL     1       6.268  29.499  56.018  1.00  0.00     0.001 C 
HETATM   17  C   UNL     1       5.001  29.207  56.807  1.00  0.00     0.001 C 
HETATM   18  C   UNL     1       4.448  27.879  56.278  1.00  0.00     0.015 C 
HETATM   19  N   UNL     1       5.172  26.826  51.451  1.00  0.00    -0.218 NA
ENDROOT
BRANCH   1  20
HETATM   20  N   UNL     1       4.053  27.845  49.711  1.00  0.00    -0.188 NA
HETATM   21  H   UNL     1       3.389  28.575  49.451  1.00  0.00     0.150 HD
BRANCH  20  22
HETATM   22  N   UNL     1       3.616  26.583  49.210  1.00  0.00    -0.189 NA
HETATM   23  C   UNL     1       3.883  26.378  47.868  1.00  0.00     0.210 C 
HETATM   24  O   UNL     1       4.708  27.046  47.246  1.00  0.00    -0.279 OA
HETATM   25  H   UNL     1       2.680  26.352  49.551  1.00  0.00     0.150 HD
BRANCH  23  26
HETATM   26  C   UNL     1       3.055  25.281  47.237  1.00  0.00     0.093 C 
HETATM   27  C   UNL     1       2.911  24.110  48.191  1.00  0.00     0.014 C 
ENDBRANCH  23  26
ENDBRANCH  20  22
ENDBRANCH   1  20
BRANCH   2  28
HETATM   28  C   UNL     1       3.221  29.952  51.472  1.00  0.00     0.173 C 
BRANCH  28  29
HETATM   29  C   UNL     1       4.137  31.135  51.233  1.00  0.00    -0.040 A 
HETATM   30  C   UNL     1       5.124  31.092  50.237  1.00  0.00     0.009 A 
HETATM   31  C   UNL     1       5.971  32.183  50.028  1.00  0.00     0.001 A 
HETATM   32  C   UNL     1       5.841  33.329  50.810  1.00  0.00     0.000 A 
HETATM   33  C   UNL     1       4.863  33.387  51.800  1.00  0.00     0.001 A 
HETATM   34  C   UNL     1       4.014  32.299  52.008  1.00  0.00     0.009 A 
ENDBRANCH  28  29
ENDBRANCH   2  28
TORSDOF 5
ENDMDL
MODEL 5
REMARK VINA RESULT:      -9.0      2.554      5.374
REMARK  5 active torsions:
REMARK  status: ('A' for Active; 'I' for Inactive)
REMARK    1  A    between atoms: C_2  and  C_3 
REMARK       I    between atoms: C_3  and  N_4 
REMARK    2  A    between atoms: N_4  and  N_5 
REMARK    3  A    between atoms: N_5  and  C_6 
REMARK    4  A    between atoms: N_7  and  C_8 
REMARK    5  A    between atoms: C_8  and  C_9 
ROOT
HETATM    1  C   UNL     1       7.168  27.126  54.043  1.00  0.00     0.200 A 
HETATM    2  N   UNL     1       5.808  27.363  54.009  1.00  0.00    -0.283 N 
HETATM    3  C   UNL     1       5.223  28.274  54.872  1.00  0.00     0.259 A 
HETATM    4  O   UNL     1       4.012  28.489  54.869  1.00  0.00    -0.267 OA
HETATM    5  C   UNL     1       6.121  29.005  55.808  1.00  0.00     0.049 A 
HETATM    6  C   UNL     1       7.433  28.726  55.685  1.00  0.00     0.083 A 
HETATM    7  C   UNL     1       8.412  29.470  56.522  1.00  0.00    -0.000 A 
HETATM    8  C   UNL     1       7.981  30.138  57.679  1.00  0.00    -0.044 A 
HETATM    9  C   UNL     1       8.903  30.810  58.494  1.00  0.00     0.008 A 
HETATM   10  C   UNL     1      10.252  30.845  58.146  1.00  0.00     0.001 A 
HETATM   11  C   UNL     1      10.689  30.202  56.993  1.00  0.00     0.001 A 
HETATM   12  C   UNL     1       9.776  29.516  56.189  1.00  0.00     0.014 A 
HETATM   13  C   UNL     1       6.529  30.062  58.057  1.00  0.00     0.054 C 
HETATM   14  C   UNL     1       5.591  30.039  56.818  1.00  0.00    -0.002 C 
HETATM   15  C   UNL     1       5.515  31.442  56.167  1.00  0.00     0.015 C 
HETATM   16  C   UNL     1       4.117  31.523  55.576  1.00  0.00     0.001 C 
HETATM   17  C   UNL     1       3.239  30.804  56.588  1.00  0.00     0.001 C 
HETATM   18  C   UNL     1       4.146  29.826  57.343  1.00  0.00     0.015 C 
HETATM   19  N   UNL     1       7.957  27.793  54.837  1.00  0.00    -0.218 NA
ENDROOT
BRANCH   1  20
HETATM   20  N   UNL     1       7.735  26.154  53.229  1.00  0.00    -0.188 NA
HETATM   21  H   UNL     1       7.244  25.967  52.355  1.00  0.00     0.150 HD
BRANCH  20  22
HETATM   22  N   UNL     1       7.994  24.933  53.918  1.00  0.00    -0.189 NA
HETATM   23  C   UNL     1       7.839  23.797  53.143  1.00  0.00     0.210 C 
HETATM   24  O   UNL     1       7.823  23.830  51.914  1.00  0.00    -0.279 OA
HETATM   25  H   UNL     1       7.573  24.935  54.850  1.00  0.00     0.150 HD
BRANCH  23  26
HETATM   26  C   UNL     1       7.671  22.525  53.943  1.00  0.00     0.093 C 
HETATM   27  C   UNL     1       7.981  21.313  53.084  1.00  0.00     0.014 C 
ENDBRANCH  23  26
ENDBRANCH  20  22
ENDBRANCH   1  20
BRANCH   2  28
HETATM   28  C   UNL     1       4.933  26.734  53.017  1.00  0.00     0.173 C 
BRANCH  28  29
HETATM   29  C   UNL     1       5.053  27.380  51.651  1.00  0.00    -0.040 A 
HETATM   30  C   UNL     1       4.938  26.615  50.481  1.00  0.00     0.009 A 
HETATM   31  C   UNL     1       5.058  27.214  49.225  1.00  0.00     0.001 A 
HETATM   32  C   UNL     1       5.295  28.584  49.124  1.00  0.00     0.000 A 
HETATM   33  C   UNL     1       5.407  29.357  50.278  1.00  0.00     0.001 A 
HETATM   34  C   UNL     1       5.284  28.759  51.533  1.00  0.00     0.009 A 
ENDBRANCH  28  29
ENDBRANCH   2  28
TORSDOF 5
ENDMDL
MODEL 6
REMARK VINA RESULT:      -8.6      1.883      2.493
REMARK  5 active torsions:
REMARK  status: ('A' for Active; 'I' for Inactive)
REMARK    1  A    between atoms: C_2  and  C_3 
REMARK       I    between atoms: C_3  and  N_4 
REMARK    2  A    between atoms: N_4  and  N_5 
REMARK    3  A    between atoms: N_5  and  C_6 
REMARK    4  A    between atoms: N_7  and  C_8 
REMARK    5  A    between atoms: C_8  and  C_9 
ROOT
HETATM    1  C   UNL     1       4.087  27.934  52.127  1.00  0.00     0.200 A 
HETATM    2  N   UNL     1       3.964  28.945  53.059  1.00  0.00    -0.283 N 
HETATM    3  C   UNL     1       4.621  28.875  54.275  1.00  0.00     0.259 A 
HETATM    4  O   UNL     1       4.514  29.758  55.126  1.00  0.00    -0.267 OA
HETATM    5  C   UNL     1       5.485  27.688  54.520  1.00  0.00     0.049 A 
HETATM    6  C   UNL     1       5.567  26.813  53.498  1.00  0.00     0.083 A 
HETATM    7  C   UNL     1       6.472  25.639  53.622  1.00  0.00    -0.000 A 
HETATM    8  C   UNL     1       6.911  25.223  54.888  1.00  0.00    -0.044 A 
HETATM    9  C   UNL     1       7.735  24.096  55.017  1.00  0.00     0.008 A 
HETATM   10  C   UNL     1       8.146  23.394  53.886  1.00  0.00     0.001 A 
HETATM   11  C   UNL     1       7.730  23.807  52.624  1.00  0.00     0.001 A 
HETATM   12  C   UNL     1       6.896  24.919  52.494  1.00  0.00     0.014 A 
HETATM   13  C   UNL     1       6.432  25.970  56.101  1.00  0.00     0.054 C 
HETATM   14  C   UNL     1       6.263  27.492  55.834  1.00  0.00    -0.002 C 
HETATM   15  C   UNL     1       7.644  28.187  55.753  1.00  0.00     0.015 C 
HETATM   16  C   UNL     1       7.406  29.594  56.277  1.00  0.00     0.001 C 
HETATM   17  C   UNL     1       6.406  29.409  57.408  1.00  0.00     0.001 C 
HETATM   18  C   UNL     1       5.641  28.114  57.113  1.00  0.00     0.015 C 
HETATM   19  N   UNL     1       4.871  26.913  52.328  1.00  0.00    -0.218 NA
ENDROOT
BRANCH   1  20
HETATM   20  N   UNL     1       3.362  27.974  50.943  1.00  0.00    -0.188 NA
HETATM   21  H   UNL     1       2.570  27.333  50.887  1.00  0.00     0.150 HD
BRANCH  20  22
HETATM   22  N   UNL     1       4.182  27.844  49.783  1.00  0.00    -0.189 NA
HETATM   23  C   UNL     1       3.546  27.273  48.695  1.00  0.00     0.210 C 
HETATM   24  O   UNL     1       2.321  27.200  48.607  1.00  0.00    -0.279 OA
HETATM   25  H   UNL     1       5.115  27.502  50.024  1.00  0.00     0.150 HD
BRANCH  23  26
HETATM   26  C   UNL     1       4.490  26.731  47.646  1.00  0.00     0.093 C 
HETATM   27  C   UNL     1       5.521  27.779  47.268  1.00  0.00     0.014 C 
ENDBRANCH  23  26
ENDBRANCH  20  22
ENDBRANCH   1  20
BRANCH   2  28
HETATM   28  C   UNL     1       3.209  30.170  52.784  1.00  0.00     0.173 C 
BRANCH  28  29
HETATM   29  C   UNL     1       4.079  31.264  52.197  1.00  0.00    -0.040 A 
HETATM   30  C   UNL     1       4.132  32.535  52.788  1.00  0.00     0.009 A 
HETATM   31  C   UNL     1       4.929  33.541  52.237  1.00  0.00     0.001 A 
HETATM   32  C   UNL     1       5.682  33.289  51.091  1.00  0.00     0.000 A 
HETATM   33  C   UNL     1       5.642  32.030  50.498  1.00  0.00     0.001 A 
HETATM   34  C   UNL     1       4.848  31.022  51.049  1.00  0.00     0.009 A 
ENDBRANCH  28  29
ENDBRANCH   2  28
TORSDOF 5
ENDMDL
MODEL 7
REMARK VINA RESULT:      -8.4      6.604     10.311
REMARK  5 active torsions:
REMARK  status: ('A' for Active; 'I' for Inactive)
REMARK    1  A    between atoms: C_2  and  C_3 
REMARK       I    between atoms: C_3  and  N_4 
REMARK    2  A    between atoms: N_4  and  N_5 
REMARK    3  A    between atoms: N_5  and  C_6 
REMARK    4  A    between atoms: N_7  and  C_8 
REMARK    5  A    between atoms: C_8  and  C_9 
ROOT
HETATM    1  C   UNL     1       6.511  32.225  59.192  1.00  0.00     0.200 A 
HETATM    2  N   UNL     1       5.411  32.737  58.532  1.00  0.00    -0.283 N 
HETATM    3  C   UNL     1       4.415  33.405  59.223  1.00  0.00     0.259 A 
HETATM    4  O   UNL     1       3.419  33.855  58.658  1.00  0.00    -0.267 OA
HETATM    5  C   UNL     1       4.595  33.574  60.691  1.00  0.00     0.049 A 
HETATM    6  C   UNL     1       5.746  33.086  61.192  1.00  0.00     0.083 A 
HETATM    7  C   UNL     1       6.049  33.284  62.635  1.00  0.00    -0.000 A 
HETATM    8  C   UNL     1       5.016  33.597  63.532  1.00  0.00    -0.044 A 
HETATM    9  C   UNL     1       5.287  33.749  64.899  1.00  0.00     0.008 A 
HETATM   10  C   UNL     1       6.590  33.618  65.375  1.00  0.00     0.001 A 
HETATM   11  C   UNL     1       7.625  33.324  64.493  1.00  0.00     0.001 A 
HETATM   12  C   UNL     1       7.356  33.154  63.134  1.00  0.00     0.014 A 
HETATM   13  C   UNL     1       3.612  33.703  63.007  1.00  0.00     0.054 C 
HETATM   14  C   UNL     1       3.556  34.293  61.570  1.00  0.00    -0.002 C 
HETATM   15  C   UNL     1       3.831  35.817  61.597  1.00  0.00     0.015 C 
HETATM   16  C   UNL     1       3.024  36.382  60.440  1.00  0.00     0.001 C 
HETATM   17  C   UNL     1       1.743  35.563  60.441  1.00  0.00     0.001 C 
HETATM   18  C   UNL     1       2.077  34.222  61.105  1.00  0.00     0.015 C 
HETATM   19  N   UNL     1       6.685  32.406  60.470  1.00  0.00    -0.218 NA
ENDROOT
BRANCH   1  20
HETATM   20  N   UNL     1       7.466  31.489  58.504  1.00  0.00    -0.188 NA
HETATM   21  H   UNL     1       7.538  31.680  57.504  1.00  0.00     0.150 HD
BRANCH  20  22
HETATM   22  N   UNL     1       7.355  30.084  58.727  1.00  0.00    -0.189 NA
HETATM   23  C   UNL     1       7.805  29.301  57.679  1.00  0.00     0.210 C 
HETATM   24  O   UNL     1       8.540  29.738  56.795  1.00  0.00    -0.279 OA
HETATM   25  H   UNL     1       6.454  29.846  59.148  1.00  0.00     0.150 HD
BRANCH  23  26
HETATM   26  C   UNL     1       7.294  27.879  57.710  1.00  0.00     0.093 C 
HETATM   27  C   UNL     1       7.549  27.194  56.380  1.00  0.00     0.014 C 
ENDBRANCH  23  26
ENDBRANCH  20  22
ENDBRANCH   1  20
BRANCH   2  28
HETATM   28  C   UNL     1       5.279  32.675  57.075  1.00  0.00     0.173 C 
BRANCH  28  29
HETATM   29  C   UNL     1       4.867  31.299  56.591  1.00  0.00    -0.040 A 
HETATM   30  C   UNL     1       3.991  30.504  57.345  1.00  0.00     0.009 A 
HETATM   31  C   UNL     1       3.622  29.233  56.899  1.00  0.00     0.001 A 
HETATM   32  C   UNL     1       4.123  28.743  55.694  1.00  0.00     0.000 A 
HETATM   33  C   UNL     1       4.989  29.524  54.933  1.00  0.00     0.001 A 
HETATM   34  C   UNL     1       5.357  30.795  55.377  1.00  0.00     0.009 A 
ENDBRANCH  28  29
ENDBRANCH   2  28
TORSDOF 5
ENDMDL
MODEL 8
REMARK VINA RESULT:      -8.3      4.433      8.404
REMARK  5 active torsions:
REMARK  status: ('A' for Active; 'I' for Inactive)
REMARK    1  A    between atoms: C_2  and  C_3 
REMARK       I    between atoms: C_3  and  N_4 
REMARK    2  A    between atoms: N_4  and  N_5 
REMARK    3  A    between atoms: N_5  and  C_6 
REMARK    4  A    between atoms: N_7  and  C_8 
REMARK    5  A    between atoms: C_8  and  C_9 
ROOT
HETATM    1  C   UNL     1       8.223  29.416  58.149  1.00  0.00     0.200 A 
HETATM    2  N   UNL     1       7.379  30.216  57.405  1.00  0.00    -0.283 N 
HETATM    3  C   UNL     1       6.729  29.719  56.288  1.00  0.00     0.259 A 
HETATM    4  O   UNL     1       5.984  30.418  55.603  1.00  0.00    -0.267 OA
HETATM    5  C   UNL     1       6.951  28.287  55.947  1.00  0.00     0.049 A 
HETATM    6  C   UNL     1       7.744  27.607  56.798  1.00  0.00     0.083 A 
HETATM    7  C   UNL     1       7.955  26.150  56.582  1.00  0.00    -0.000 A 
HETATM    8  C   UNL     1       7.686  25.581  55.328  1.00  0.00    -0.044 A 
HETATM    9  C   UNL     1       7.917  24.216  55.105  1.00  0.00     0.008 A 
HETATM   10  C   UNL     1       8.391  23.407  56.136  1.00  0.00     0.001 A 
HETATM   11  C   UNL     1       8.646  23.957  57.388  1.00  0.00     0.001 A 
HETATM   12  C   UNL     1       8.434  25.319  57.608  1.00  0.00     0.014 A 
HETATM   13  C   UNL     1       7.206  26.473  54.218  1.00  0.00     0.054 C 
HETATM   14  C   UNL     1       6.289  27.619  54.729  1.00  0.00    -0.002 C 
HETATM   15  C   UNL     1       4.891  27.069  55.106  1.00  0.00     0.015 C 
HETATM   16  C   UNL     1       3.930  28.209  54.816  1.00  0.00     0.001 C 
HETATM   17  C   UNL     1       4.481  28.854  53.554  1.00  0.00     0.001 C 
HETATM   18  C   UNL     1       5.979  28.533  53.512  1.00  0.00     0.015 C 
HETATM   19  N   UNL     1       8.388  28.154  57.870  1.00  0.00    -0.218 NA
ENDROOT
BRANCH   1  20
HETATM   20  N   UNL     1       8.933  29.943  59.219  1.00  0.00    -0.188 NA
HETATM   21  H   UNL     1       9.827  29.494  59.422  1.00  0.00     0.150 HD
BRANCH  20  22
HETATM   22  N   UNL     1       8.154  30.044  60.409  1.00  0.00    -0.189 NA
HETATM   23  C   UNL     1       8.434  31.156  61.183  1.00  0.00     0.210 C 
HETATM   24  O   UNL     1       9.033  32.136  60.743  1.00  0.00    -0.279 OA
HETATM   25  H   UNL     1       8.079  29.140  60.882  1.00  0.00     0.150 HD
BRANCH  23  26
HETATM   26  C   UNL     1       7.961  31.044  62.615  1.00  0.00     0.093 C 
HETATM   27  C   UNL     1       8.035  32.394  63.305  1.00  0.00     0.014 C 
ENDBRANCH  23  26
ENDBRANCH  20  22
ENDBRANCH   1  20
BRANCH   2  28
HETATM   28  C   UNL     1       7.065  31.592  57.797  1.00  0.00     0.173 C 
BRANCH  28  29
HETATM   29  C   UNL     1       5.770  31.687  58.579  1.00  0.00    -0.040 A 
HETATM   30  C   UNL     1       5.665  32.528  59.697  1.00  0.00     0.009 A 
HETATM   31  C   UNL     1       4.472  32.603  60.419  1.00  0.00     0.001 A 
HETATM   32  C   UNL     1       3.371  31.841  60.033  1.00  0.00     0.000 A 
HETATM   33  C   UNL     1       3.461  31.005  58.922  1.00  0.00     0.001 A 
HETATM   34  C   UNL     1       4.651  30.931  58.198  1.00  0.00     0.009 A 
ENDBRANCH  28  29
ENDBRANCH   2  28
TORSDOF 5
ENDMDL
MODEL 9
REMARK VINA RESULT:      -8.3     10.867     15.062
REMARK  5 active torsions:
REMARK  status: ('A' for Active; 'I' for Inactive)
REMARK    1  A    between atoms: C_2  and  C_3 
REMARK       I    between atoms: C_3  and  N_4 
REMARK    2  A    between atoms: N_4  and  N_5 
REMARK    3  A    between atoms: N_5  and  C_6 
REMARK    4  A    between atoms: N_7  and  C_8 
REMARK    5  A    between atoms: C_8  and  C_9 
ROOT
HETATM    1  C   UNL     1       6.011  34.734  63.200  1.00  0.00     0.200 A 
HETATM    2  N   UNL     1       5.339  34.000  62.243  1.00  0.00    -0.283 N 
HETATM    3  C   UNL     1       4.544  34.624  61.296  1.00  0.00     0.259 A 
HETATM    4  O   UNL     1       3.925  33.988  60.444  1.00  0.00    -0.267 OA
HETATM    5  C   UNL     1       4.473  36.110  61.334  1.00  0.00     0.049 A 
HETATM    6  C   UNL     1       5.233  36.701  62.277  1.00  0.00     0.083 A 
HETATM    7  C   UNL     1       5.288  38.186  62.336  1.00  0.00    -0.000 A 
HETATM    8  C   UNL     1       4.287  38.950  61.716  1.00  0.00    -0.044 A 
HETATM    9  C   UNL     1       4.311  40.350  61.798  1.00  0.00     0.008 A 
HETATM   10  C   UNL     1       5.345  40.995  62.472  1.00  0.00     0.001 A 
HETATM   11  C   UNL     1       6.352  40.250  63.076  1.00  0.00     0.001 A 
HETATM   12  C   UNL     1       6.321  38.855  63.012  1.00  0.00     0.014 A 
HETATM   13  C   UNL     1       3.161  38.237  61.022  1.00  0.00     0.054 C 
HETATM   14  C   UNL     1       3.621  36.919  60.339  1.00  0.00    -0.002 C 
HETATM   15  C   UNL     1       4.432  37.225  59.057  1.00  0.00     0.015 C 
HETATM   16  C   UNL     1       4.146  36.059  58.125  1.00  0.00     0.001 C 
HETATM   17  C   UNL     1       2.680  35.734  58.368  1.00  0.00     0.001 C 
HETATM   18  C   UNL     1       2.349  36.225  59.782  1.00  0.00     0.015 C 
HETATM   19  N   UNL     1       5.976  36.036  63.209  1.00  0.00    -0.218 NA
ENDROOT
BRANCH   1  20
HETATM   20  N   UNL     1       6.741  34.096  64.194  1.00  0.00    -0.188 NA
HETATM   21  H   UNL     1       6.748  33.076  64.153  1.00  0.00     0.150 HD
BRANCH  20  22
HETATM   22  N   UNL     1       6.395  34.531  65.507  1.00  0.00    -0.189 NA
HETATM   23  C   UNL     1       5.176  34.062  65.962  1.00  0.00     0.210 C 
HETATM   24  O   UNL     1       4.603  33.100  65.451  1.00  0.00    -0.279 OA
HETATM   25  H   UNL     1       6.602  35.525  65.635  1.00  0.00     0.150 HD
BRANCH  23  26
HETATM   26  C   UNL     1       4.607  34.849  67.121  1.00  0.00     0.093 C 
HETATM   27  C   UNL     1       3.460  35.726  66.654  1.00  0.00     0.014 C 
ENDBRANCH  23  26
ENDBRANCH  20  22
ENDBRANCH   1  20
BRANCH   2  28
HETATM   28  C   UNL     1       5.492  32.548  62.126  1.00  0.00     0.173 C 
BRANCH  28  29
HETATM   29  C   UNL     1       6.884  32.150  61.676  1.00  0.00    -0.040 A 
HETATM   30  C   UNL     1       7.657  31.257  62.433  1.00  0.00     0.009 A 
HETATM   31  C   UNL     1       8.942  30.902  62.017  1.00  0.00     0.001 A 
HETATM   32  C   UNL     1       9.469  31.433  60.841  1.00  0.00     0.000 A 
HETATM   33  C   UNL     1       8.710  32.317  60.078  1.00  0.00     0.001 A 
HETATM   34  C   UNL     1       7.424  32.671  60.490  1.00  0.00     0.009 A 
ENDBRANCH  28  29
ENDBRANCH   2  28
TORSDOF 5
ENDMDL
MODEL 10
REMARK VINA RESULT:      -7.9      2.660      5.349
REMARK  5 active torsions:
REMARK  status: ('A' for Active; 'I' for Inactive)
REMARK    1  A    between atoms: C_2  and  C_3 
REMARK       I    between atoms: C_3  and  N_4 
REMARK    2  A    between atoms: N_4  and  N_5 
REMARK    3  A    between atoms: N_5  and  C_6 
REMARK    4  A    between atoms: N_7  and  C_8 
REMARK    5  A    between atoms: C_8  and  C_9 
ROOT
HETATM    1  C   UNL     1       4.235  30.048  54.237  1.00  0.00     0.200 A 
HETATM    2  N   UNL     1       4.200  28.759  53.744  1.00  0.00    -0.283 N 
HETATM    3  C   UNL     1       5.019  27.774  54.268  1.00  0.00     0.259 A 
HETATM    4  O   UNL     1       5.015  26.623  53.834  1.00  0.00    -0.267 OA
HETATM    5  C   UNL     1       5.908  28.154  55.400  1.00  0.00     0.049 A 
HETATM    6  C   UNL     1       5.790  29.427  55.825  1.00  0.00     0.083 A 
HETATM    7  C   UNL     1       6.580  29.872  57.004  1.00  0.00    -0.000 A 
HETATM    8  C   UNL     1       7.704  29.138  57.413  1.00  0.00    -0.044 A 
HETATM    9  C   UNL     1       8.475  29.571  58.501  1.00  0.00     0.008 A 
HETATM   10  C   UNL     1       8.116  30.719  59.204  1.00  0.00     0.001 A 
HETATM   11  C   UNL     1       6.994  31.446  58.818  1.00  0.00     0.001 A 
HETATM   12  C   UNL     1       6.234  31.028  57.724  1.00  0.00     0.014 A 
HETATM   13  C   UNL     1       8.097  27.921  56.625  1.00  0.00     0.054 C 
HETATM   14  C   UNL     1       6.868  27.151  56.065  1.00  0.00    -0.002 C 
HETATM   15  C   UNL     1       6.146  26.382  57.198  1.00  0.00     0.015 C 
HETATM   16  C   UNL     1       5.563  25.150  56.526  1.00  0.00     0.001 C 
HETATM   17  C   UNL     1       6.617  24.743  55.508  1.00  0.00     0.001 C 
HETATM   18  C   UNL     1       7.415  26.007  55.170  1.00  0.00     0.015 C 
HETATM   19  N   UNL     1       4.987  30.370  55.251  1.00  0.00    -0.218 NA
ENDROOT
BRANCH   1  20
HETATM   20  N   UNL     1       3.468  31.048  53.653  1.00  0.00    -0.188 NA
HETATM   21  H   UNL     1       2.591  30.743  53.229  1.00  0.00     0.150 HD
BRANCH  20  22
HETATM   22  N   UNL     1       4.205  31.849  52.732  1.00  0.00    -0.189 NA
HETATM   23  C   UNL     1       3.440  32.422  51.732  1.00  0.00     0.210 C 
HETATM   24  O   UNL     1       2.216  32.525  51.811  1.00  0.00    -0.279 OA
HETATM   25  H   UNL     1       5.081  31.395  52.462  1.00  0.00     0.150 HD
BRANCH  23  26
HETATM   26  C   UNL     1       4.237  32.883  50.533  1.00  0.00     0.093 C 
HETATM   27  C   UNL     1       5.683  32.435  50.654  1.00  0.00     0.014 C 
ENDBRANCH  23  26
ENDBRANCH  20  22
ENDBRANCH   1  20
BRANCH   2  28
HETATM   28  C   UNL     1       3.249  28.347  52.708  1.00  0.00     0.173 C 
BRANCH  28  29
HETATM   29  C   UNL     1       3.722  28.709  51.314  1.00  0.00    -0.040 A 
HETATM   30  C   UNL     1       2.815  29.151  50.339  1.00  0.00     0.009 A 
HETATM   31  C   UNL     1       3.256  29.475  49.054  1.00  0.00     0.001 A 
HETATM   32  C   UNL     1       4.607  29.361  48.729  1.00  0.00     0.000 A 
HETATM   33  C   UNL     1       5.518  28.928  49.689  1.00  0.00     0.001 A 
HETATM   34  C   UNL     1       5.079  28.607  50.975  1.00  0.00     0.009 A 
ENDBRANCH  28  29
ENDBRANCH   2  28
TORSDOF 5
ENDMDL
