MODEL 1
REMARK VINA RESULT:      -8.5      0.000      0.000
REMARK  6 active torsions:
REMARK  status: ('A' for Active; 'I' for Inactive)
REMARK    1  A    between atoms: C_2  and  C_3 
REMARK    2  A    between atoms: C_3  and  N_4 
REMARK       I    between atoms: N_4  and  C_5 
REMARK    3  A    between atoms: C_5  and  C_6 
REMARK    4  A    between atoms: C_11  and  C_12 
REMARK    5  A    between atoms: C_15  and  O_16 
REMARK    6  A    between atoms: C_21  and  C_22 
ROOT
HETATM    1  C   UNL     1       4.637  27.203  50.831  1.00  0.00     0.170 A 
HETATM    2  N   UNL     1       5.386  26.119  51.162  1.00  0.00    -0.163 NA
HETATM    3  N   UNL     1       5.438  26.167  52.504  1.00  0.00    -0.238 N 
HETATM    4  C   UNL     1       4.700  27.175  53.057  1.00  0.00     0.145 A 
HETATM    5  N   UNL     1       4.592  27.314  54.401  1.00  0.00    -0.365 N 
HETATM    6  C   UNL     1       5.368  26.510  55.337  1.00  0.00     0.118 C 
HETATM    7  C   UNL     1       5.675  25.132  54.721  1.00  0.00     0.066 C 
HETATM    8  C   UNL     1       6.182  25.184  53.268  1.00  0.00     0.221 C 
HETATM    9  C   UNL     1       4.185  27.883  51.996  1.00  0.00     0.115 A 
HETATM   10 CL   UNL     1       3.210  29.270  52.085  1.00  0.00    -0.077 Cl
HETATM   11  H   UNL     1       4.141  28.140  54.797  1.00  0.00     0.162 HD
ENDROOT
BRANCH   6  12
HETATM   12  C   UNL     1       6.568  27.249  55.905  1.00  0.00    -0.035 A 
HETATM   13  C   UNL     1       6.826  28.604  55.648  1.00  0.00     0.012 A 
HETATM   14  C   UNL     1       7.926  29.248  56.221  1.00  0.00     0.037 A 
HETATM   15  C   UNL     1       8.790  28.564  57.076  1.00  0.00     0.068 A 
HETATM   16  C   UNL     1       8.549  27.218  57.344  1.00  0.00     0.037 A 
HETATM   17  C   UNL     1       7.448  26.570  56.767  1.00  0.00     0.012 A 
BRANCH  15  18
HETATM   18  O   UNL     1       9.817  29.315  57.574  1.00  0.00    -0.356 OA
HETATM   19  C   UNL     1      10.865  29.650  56.674  1.00  0.00     0.210 C 
ENDBRANCH  15  18
ENDBRANCH   6  12
BRANCH   8  20
HETATM   20  C   UNL     1       7.667  25.440  53.142  1.00  0.00     0.409 C 
HETATM   21  F   UNL     1       7.999  26.743  53.156  1.00  0.00    -0.169 F 
HETATM   22  F   UNL     1       8.332  24.844  54.167  1.00  0.00    -0.169 F 
HETATM   23  F   UNL     1       8.172  24.905  52.006  1.00  0.00    -0.169 F 
ENDBRANCH   8  20
BRANCH   1  24
HETATM   24  C   UNL     1       4.388  27.545  49.422  1.00  0.00     0.273 C 
HETATM   25  N   UNL     1       3.205  27.018  48.945  1.00  0.00    -0.356 N 
HETATM   26  H   UNL     1       2.701  26.420  49.594  1.00  0.00     0.162 HD
HETATM   27  O   UNL     1       5.155  28.209  48.733  1.00  0.00    -0.266 OA
BRANCH  25  28
HETATM   28  C   UNL     1       2.815  27.090  47.557  1.00  0.00     0.122 C 
BRANCH  28  29
HETATM   29  C   UNL     1       2.721  25.711  46.906  1.00  0.00     0.015 C 
HETATM   30  C   UNL     1       2.919  24.578  47.903  1.00  0.00     0.006 C 
ENDBRANCH  28  29
ENDBRANCH  25  28
ENDBRANCH   1  24
TORSDOF 6
ENDMDL
MODEL 2
REMARK VINA RESULT:      -7.8      4.077      8.726
REMARK  6 active torsions:
REMARK  status: ('A' for Active; 'I' for Inactive)
REMARK    1  A    between atoms: C_2  and  C_3 
REMARK    2  A    between atoms: C_3  and  N_4 
REMARK       I    between atoms: N_4  and  C_5 
REMARK    3  A    between atoms: C_5  and  C_6 
REMARK    4  A    between atoms: C_11  and  C_12 
REMARK    5  A    between atoms: C_15  and  O_16 
REMARK    6  A    between atoms: C_21  and  C_22 
ROOT
HETATM    1  C   UNL     1       8.733  30.013  58.186  1.00  0.00     0.170 A 
HETATM    2  N   UNL     1       7.438  29.680  58.430  1.00  0.00    -0.163 NA
HETATM    3  N   UNL     1       7.210  28.657  57.589  1.00  0.00    -0.238 N 
HETATM    4  C   UNL     1       8.308  28.263  56.877  1.00  0.00     0.145 A 
HETATM    5  N   UNL     1       8.260  27.198  56.040  1.00  0.00    -0.365 N 
HETATM    6  C   UNL     1       7.017  26.505  55.723  1.00  0.00     0.118 C 
HETATM    7  C   UNL     1       6.041  26.604  56.910  1.00  0.00     0.066 C 
HETATM    8  C   UNL     1       5.912  28.016  57.511  1.00  0.00     0.221 C 
HETATM    9  C   UNL     1       9.310  29.139  57.223  1.00  0.00     0.115 A 
HETATM   10 CL   UNL     1      10.896  29.151  56.620  1.00  0.00    -0.077 Cl
HETATM   11  H   UNL     1       9.049  26.992  55.425  1.00  0.00     0.162 HD
ENDROOT
BRANCH   6  12
HETATM   12  C   UNL     1       6.441  26.900  54.374  1.00  0.00    -0.035 A 
HETATM   13  C   UNL     1       6.902  28.001  53.637  1.00  0.00     0.012 A 
HETATM   14  C   UNL     1       6.361  28.305  52.384  1.00  0.00     0.037 A 
HETATM   15  C   UNL     1       5.358  27.512  51.827  1.00  0.00     0.068 A 
HETATM   16  C   UNL     1       4.890  26.414  52.544  1.00  0.00     0.037 A 
HETATM   17  C   UNL     1       5.428  26.110  53.801  1.00  0.00     0.012 A 
BRANCH  15  18
HETATM   18  O   UNL     1       4.929  27.915  50.594  1.00  0.00    -0.356 OA
HETATM   19  C   UNL     1       4.531  26.895  49.687  1.00  0.00     0.210 C 
ENDBRANCH  15  18
ENDBRANCH   6  12
BRANCH   8  20
HETATM   20  C   UNL     1       4.932  28.909  56.783  1.00  0.00     0.409 C 
HETATM   21  F   UNL     1       5.499  29.692  55.848  1.00  0.00    -0.169 F 
HETATM   22  F   UNL     1       3.988  28.156  56.160  1.00  0.00    -0.169 F 
HETATM   23  F   UNL     1       4.263  29.718  57.637  1.00  0.00    -0.169 F 
ENDBRANCH   8  20
BRANCH   1  24
HETATM   24  C   UNL     1       9.360  31.150  58.878  1.00  0.00     0.273 C 
HETATM   25  N   UNL     1       9.134  31.138  60.240  1.00  0.00    -0.356 N 
HETATM   26  H   UNL     1       8.520  30.399  60.573  1.00  0.00     0.162 HD
HETATM   27  O   UNL     1      10.001  32.028  58.311  1.00  0.00    -0.266 OA
BRANCH  25  28
HETATM   28  C   UNL     1       9.519  32.222  61.112  1.00  0.00     0.122 C 
BRANCH  28  29
HETATM   29  C   UNL     1       8.717  32.239  62.411  1.00  0.00     0.015 C 
HETATM   30  C   UNL     1       7.555  31.256  62.394  1.00  0.00     0.006 C 
ENDBRANCH  28  29
ENDBRANCH  25  28
ENDBRANCH   1  24
TORSDOF 6
ENDMDL
MODEL 3
REMARK VINA RESULT:      -7.4      4.215      6.002
REMARK  6 active torsions:
REMARK  status: ('A' for Active; 'I' for Inactive)
REMARK    1  A    between atoms: C_2  and  C_3 
REMARK    2  A    between atoms: C_3  and  N_4 
REMARK       I    between atoms: N_4  and  C_5 
REMARK    3  A    between atoms: C_5  and  C_6 
REMARK    4  A    between atoms: C_11  and  C_12 
REMARK    5  A    between atoms: C_15  and  O_16 
REMARK    6  A    between atoms: C_21  and  C_22 
ROOT
HETATM    1  C   UNL     1       7.058  25.201  54.599  1.00  0.00     0.170 A 
HETATM    2  N   UNL     1       7.584  25.989  55.572  1.00  0.00    -0.163 NA
HETATM    3  N   UNL     1       6.599  26.865  55.838  1.00  0.00    -0.238 N 
HETATM    4  C   UNL     1       5.443  26.632  55.149  1.00  0.00     0.145 A 
HETATM    5  N   UNL     1       4.334  27.382  55.359  1.00  0.00    -0.365 N 
HETATM    6  C   UNL     1       4.339  28.570  56.205  1.00  0.00     0.118 C 
HETATM    7  C   UNL     1       5.400  28.423  57.312  1.00  0.00     0.066 C 
HETATM    8  C   UNL     1       6.768  27.919  56.820  1.00  0.00     0.221 C 
HETATM    9  C   UNL     1       5.714  25.572  54.315  1.00  0.00     0.115 A 
HETATM   10 CL   UNL     1       4.649  24.867  53.198  1.00  0.00    -0.077 Cl
HETATM   11  H   UNL     1       3.520  27.277  54.752  1.00  0.00     0.162 HD
ENDROOT
BRANCH   6  12
HETATM   12  C   UNL     1       4.401  29.866  55.414  1.00  0.00    -0.035 A 
HETATM   13  C   UNL     1       4.207  29.925  54.026  1.00  0.00     0.012 A 
HETATM   14  C   UNL     1       4.242  31.147  53.347  1.00  0.00     0.037 A 
HETATM   15  C   UNL     1       4.457  32.342  54.035  1.00  0.00     0.068 A 
HETATM   16  C   UNL     1       4.650  32.301  55.413  1.00  0.00     0.037 A 
HETATM   17  C   UNL     1       4.619  31.077  56.095  1.00  0.00     0.012 A 
BRANCH  15  18
HETATM   18  O   UNL     1       4.454  33.461  53.252  1.00  0.00    -0.356 OA
HETATM   19  C   UNL     1       5.281  34.540  53.671  1.00  0.00     0.210 C 
ENDBRANCH  15  18
ENDBRANCH   6  12
BRANCH   8  20
HETATM   20  C   UNL     1       7.664  29.006  56.269  1.00  0.00     0.409 C 
HETATM   21  F   UNL     1       8.977  28.758  56.419  1.00  0.00    -0.169 F 
HETATM   22  F   UNL     1       7.434  29.172  54.940  1.00  0.00    -0.169 F 
HETATM   23  F   UNL     1       7.410  30.204  56.846  1.00  0.00    -0.169 F 
ENDBRANCH   8  20
BRANCH   1  24
HETATM   24  C   UNL     1       7.858  24.132  53.982  1.00  0.00     0.273 C 
HETATM   25  N   UNL     1       8.228  23.152  54.881  1.00  0.00    -0.356 N 
HETATM   26  H   UNL     1       7.962  23.326  55.847  1.00  0.00     0.162 HD
HETATM   27  O   UNL     1       8.183  24.116  52.799  1.00  0.00    -0.266 OA
BRANCH  25  28
HETATM   28  C   UNL     1       9.137  22.081  54.550  1.00  0.00     0.122 C 
BRANCH  28  29
HETATM   29  C   UNL     1       8.412  20.767  54.267  1.00  0.00     0.015 C 
HETATM   30  C   UNL     1       8.364  20.432  52.784  1.00  0.00     0.006 C 
ENDBRANCH  28  29
ENDBRANCH  25  28
ENDBRANCH   1  24
TORSDOF 6
ENDMDL
MODEL 4
REMARK VINA RESULT:      -7.2      8.628     11.131
REMARK  6 active torsions:
REMARK  status: ('A' for Active; 'I' for Inactive)
REMARK    1  A    between atoms: C_2  and  C_3 
REMARK    2  A    between atoms: C_3  and  N_4 
REMARK       I    between atoms: N_4  and  C_5 
REMARK    3  A    between atoms: C_5  and  C_6 
REMARK    4  A    between atoms: C_11  and  C_12 
REMARK    5  A    between atoms: C_15  and  O_16 
REMARK    6  A    between atoms: C_21  and  C_22 
ROOT
HETATM    1  C   UNL     1       7.208  31.567  59.538  1.00  0.00     0.170 A 
HETATM    2  N   UNL     1       7.386  31.244  60.846  1.00  0.00    -0.163 NA
HETATM    3  N   UNL     1       6.413  31.925  61.476  1.00  0.00    -0.238 N 
HETATM    4  C   UNL     1       5.572  32.602  60.638  1.00  0.00     0.145 A 
HETATM    5  N   UNL     1       4.497  33.277  61.113  1.00  0.00    -0.365 N 
HETATM    6  C   UNL     1       4.254  33.460  62.539  1.00  0.00     0.118 C 
HETATM    7  C   UNL     1       4.838  32.274  63.330  1.00  0.00     0.066 C 
HETATM    8  C   UNL     1       6.267  31.877  62.918  1.00  0.00     0.221 C 
HETATM    9  C   UNL     1       6.075  32.410  59.372  1.00  0.00     0.115 A 
HETATM   10 CL   UNL     1       5.451  33.051  57.930  1.00  0.00    -0.077 Cl
HETATM   11  H   UNL     1       3.952  33.877  60.492  1.00  0.00     0.162 HD
ENDROOT
BRANCH   6  12
HETATM   12  C   UNL     1       4.656  34.837  63.042  1.00  0.00    -0.035 A 
HETATM   13  C   UNL     1       5.215  35.821  62.213  1.00  0.00     0.012 A 
HETATM   14  C   UNL     1       5.538  37.085  62.716  1.00  0.00     0.037 A 
HETATM   15  C   UNL     1       5.302  37.405  64.053  1.00  0.00     0.068 A 
HETATM   16  C   UNL     1       4.747  36.440  64.889  1.00  0.00     0.037 A 
HETATM   17  C   UNL     1       4.425  35.172  64.388  1.00  0.00     0.012 A 
BRANCH  15  18
HETATM   18  O   UNL     1       5.654  38.676  64.409  1.00  0.00    -0.356 OA
HETATM   19  C   UNL     1       6.651  39.311  63.620  1.00  0.00     0.210 C 
ENDBRANCH  15  18
ENDBRANCH   6  12
BRANCH   8  20
HETATM   20  C   UNL     1       7.350  32.699  63.579  1.00  0.00     0.409 C 
HETATM   21  F   UNL     1       7.062  33.067  64.840  1.00  0.00    -0.169 F 
HETATM   22  F   UNL     1       8.512  31.995  63.621  1.00  0.00    -0.169 F 
HETATM   23  F   UNL     1       7.620  33.827  62.880  1.00  0.00    -0.169 F 
ENDBRANCH   8  20
BRANCH   1  24
HETATM   24  C   UNL     1       8.127  31.060  58.507  1.00  0.00     0.273 C 
HETATM   25  N   UNL     1       7.516  30.187  57.629  1.00  0.00    -0.356 N 
HETATM   26  H   UNL     1       6.548  29.960  57.843  1.00  0.00     0.162 HD
HETATM   27  O   UNL     1       9.313  31.360  58.439  1.00  0.00    -0.266 OA
BRANCH  25  28
HETATM   28  C   UNL     1       8.240  29.445  56.624  1.00  0.00     0.122 C 
BRANCH  28  29
HETATM   29  C   UNL     1       8.714  28.086  57.132  1.00  0.00     0.015 C 
HETATM   30  C   UNL     1       7.563  27.184  57.554  1.00  0.00     0.006 C 
ENDBRANCH  28  29
ENDBRANCH  25  28
ENDBRANCH   1  24
TORSDOF 6
ENDMDL
MODEL 5
REMARK VINA RESULT:      -7.1      4.153      5.645
REMARK  6 active torsions:
REMARK  status: ('A' for Active; 'I' for Inactive)
REMARK    1  A    between atoms: C_2  and  C_3 
REMARK    2  A    between atoms: C_3  and  N_4 
REMARK       I    between atoms: N_4  and  C_5 
REMARK    3  A    between atoms: C_5  and  C_6 
REMARK    4  A    between atoms: C_11  and  C_12 
REMARK    5  A    between atoms: C_15  and  O_16 
REMARK    6  A    between atoms: C_21  and  C_22 
ROOT
HETATM    1  C   UNL     1       7.010  24.030  53.881  1.00  0.00     0.170 A 
HETATM    2  N   UNL     1       6.014  24.298  54.765  1.00  0.00    -0.163 NA
HETATM    3  N   UNL     1       5.981  25.642  54.807  1.00  0.00    -0.238 N 
HETATM    4  C   UNL     1       6.844  26.250  53.940  1.00  0.00     0.145 A 
HETATM    5  N   UNL     1       6.879  27.598  53.810  1.00  0.00    -0.365 N 
HETATM    6  C   UNL     1       6.125  28.490  54.683  1.00  0.00     0.118 C 
HETATM    7  C   UNL     1       4.843  27.790  55.171  1.00  0.00     0.066 C 
HETATM    8  C   UNL     1       5.056  26.349  55.671  1.00  0.00     0.221 C 
HETATM    9  C   UNL     1       7.547  25.231  53.339  1.00  0.00     0.115 A 
HETATM   10 CL   UNL     1       8.784  25.398  52.189  1.00  0.00    -0.077 Cl
HETATM   11  H   UNL     1       7.611  28.042  53.252  1.00  0.00     0.162 HD
ENDROOT
BRANCH   6  12
HETATM   12  C   UNL     1       6.976  29.119  55.773  1.00  0.00    -0.035 A 
HETATM   13  C   UNL     1       6.456  29.981  56.749  1.00  0.00     0.012 A 
HETATM   14  C   UNL     1       7.275  30.509  57.752  1.00  0.00     0.037 A 
HETATM   15  C   UNL     1       8.629  30.182  57.816  1.00  0.00     0.068 A 
HETATM   16  C   UNL     1       9.162  29.326  56.855  1.00  0.00     0.037 A 
HETATM   17  C   UNL     1       8.344  28.799  55.848  1.00  0.00     0.012 A 
BRANCH  15  18
HETATM   18  O   UNL     1       9.309  30.758  58.852  1.00  0.00    -0.356 OA
HETATM   19  C   UNL     1       8.790  30.546  60.158  1.00  0.00     0.210 C 
ENDBRANCH  15  18
ENDBRANCH   6  12
BRANCH   8  20
HETATM   20  C   UNL     1       5.513  26.258  57.110  1.00  0.00     0.409 C 
HETATM   21  F   UNL     1       6.846  26.149  57.253  1.00  0.00    -0.169 F 
HETATM   22  F   UNL     1       5.124  27.365  57.795  1.00  0.00    -0.169 F 
HETATM   23  F   UNL     1       4.950  25.205  57.748  1.00  0.00    -0.169 F 
ENDBRANCH   8  20
BRANCH   1  24
HETATM   24  C   UNL     1       7.408  22.643  53.594  1.00  0.00     0.273 C 
HETATM   25  N   UNL     1       7.546  21.879  54.736  1.00  0.00    -0.356 N 
HETATM   26  H   UNL     1       7.423  22.380  55.612  1.00  0.00     0.162 HD
HETATM   27  O   UNL     1       7.615  22.209  52.466  1.00  0.00    -0.266 OA
BRANCH  25  28
HETATM   28  C   UNL     1       8.070  20.534  54.725  1.00  0.00     0.122 C 
BRANCH  28  29
HETATM   29  C   UNL     1       8.656  20.125  56.074  1.00  0.00     0.015 C 
HETATM   30  C   UNL     1       8.416  21.168  57.157  1.00  0.00     0.006 C 
ENDBRANCH  28  29
ENDBRANCH  25  28
ENDBRANCH   1  24
TORSDOF 6
ENDMDL
MODEL 6
REMARK VINA RESULT:      -7.0      3.350      4.708
REMARK  6 active torsions:
REMARK  status: ('A' for Active; 'I' for Inactive)
REMARK    1  A    between atoms: C_2  and  C_3 
REMARK    2  A    between atoms: C_3  and  N_4 
REMARK       I    between atoms: N_4  and  C_5 
REMARK    3  A    between atoms: C_5  and  C_6 
REMARK    4  A    between atoms: C_11  and  C_12 
REMARK    5  A    between atoms: C_15  and  O_16 
REMARK    6  A    between atoms: C_21  and  C_22 
ROOT
HETATM    1  C   UNL     1       4.380  28.639  53.013  1.00  0.00     0.170 A 
HETATM    2  N   UNL     1       4.492  28.503  54.360  1.00  0.00    -0.163 NA
HETATM    3  N   UNL     1       5.636  27.816  54.516  1.00  0.00    -0.238 N 
HETATM    4  C   UNL     1       6.306  27.572  53.351  1.00  0.00     0.145 A 
HETATM    5  N   UNL     1       7.512  26.954  53.346  1.00  0.00    -0.365 N 
HETATM    6  C   UNL     1       8.099  26.371  54.547  1.00  0.00     0.118 C 
HETATM    7  C   UNL     1       7.627  27.146  55.792  1.00  0.00     0.066 C 
HETATM    8  C   UNL     1       6.115  27.430  55.830  1.00  0.00     0.221 C 
HETATM    9  C   UNL     1       5.505  28.073  52.350  1.00  0.00     0.115 A 
HETATM   10 CL   UNL     1       5.818  28.021  50.683  1.00  0.00    -0.077 Cl
HETATM   11  H   UNL     1       7.940  26.670  52.463  1.00  0.00     0.162 HD
ENDROOT
BRANCH   6  12
HETATM   12  C   UNL     1       7.935  24.863  54.620  1.00  0.00    -0.035 A 
HETATM   13  C   UNL     1       7.551  24.080  53.521  1.00  0.00     0.012 A 
HETATM   14  C   UNL     1       7.446  22.690  53.630  1.00  0.00     0.037 A 
HETATM   15  C   UNL     1       7.735  22.043  54.832  1.00  0.00     0.068 A 
HETATM   16  C   UNL     1       8.119  22.805  55.932  1.00  0.00     0.037 A 
HETATM   17  C   UNL     1       8.222  24.198  55.826  1.00  0.00     0.012 A 
BRANCH  15  18
HETATM   18  O   UNL     1       7.603  20.684  54.796  1.00  0.00    -0.356 OA
HETATM   19  C   UNL     1       8.793  19.928  54.610  1.00  0.00     0.210 C 
ENDBRANCH  15  18
ENDBRANCH   6  12
BRANCH   8  20
HETATM   20  C   UNL     1       5.286  26.287  56.372  1.00  0.00     0.409 C 
HETATM   21  F   UNL     1       4.125  26.672  56.931  1.00  0.00    -0.169 F 
HETATM   22  F   UNL     1       4.983  25.415  55.375  1.00  0.00    -0.169 F 
HETATM   23  F   UNL     1       5.966  25.573  57.300  1.00  0.00    -0.169 F 
ENDBRANCH   8  20
BRANCH   1  24
HETATM   24  C   UNL     1       3.207  29.298  52.418  1.00  0.00     0.273 C 
HETATM   25  N   UNL     1       2.563  28.506  51.488  1.00  0.00    -0.356 N 
HETATM   26  H   UNL     1       3.011  27.616  51.290  1.00  0.00     0.162 HD
HETATM   27  O   UNL     1       2.845  30.435  52.698  1.00  0.00    -0.266 OA
BRANCH  25  28
HETATM   28  C   UNL     1       1.480  28.984  50.663  1.00  0.00     0.122 C 
BRANCH  28  29
HETATM   29  C   UNL     1       1.822  28.952  49.175  1.00  0.00     0.015 C 
HETATM   30  C   UNL     1       1.424  27.642  48.511  1.00  0.00     0.006 C 
ENDBRANCH  28  29
ENDBRANCH  25  28
ENDBRANCH   1  24
TORSDOF 6
ENDMDL
MODEL 7
REMARK VINA RESULT:      -7.0      3.679      6.205
REMARK  6 active torsions:
REMARK  status: ('A' for Active; 'I' for Inactive)
REMARK    1  A    between atoms: C_2  and  C_3 
REMARK    2  A    between atoms: C_3  and  N_4 
REMARK       I    between atoms: N_4  and  C_5 
REMARK    3  A    between atoms: C_5  and  C_6 
REMARK    4  A    between atoms: C_11  and  C_12 
REMARK    5  A    between atoms: C_15  and  O_16 
REMARK    6  A    between atoms: C_21  and  C_22 
ROOT
HETATM    1  C   UNL     1       6.582  25.000  53.949  1.00  0.00     0.170 A 
HETATM    2  N   UNL     1       6.748  25.880  54.970  1.00  0.00    -0.163 NA
HETATM    3  N   UNL     1       5.760  26.772  54.784  1.00  0.00    -0.238 N 
HETATM    4  C   UNL     1       4.921  26.469  53.748  1.00  0.00     0.145 A 
HETATM    5  N   UNL     1       3.833  27.231  53.476  1.00  0.00    -0.365 N 
HETATM    6  C   UNL     1       3.571  28.494  54.155  1.00  0.00     0.118 C 
HETATM    7  C   UNL     1       4.159  28.459  55.578  1.00  0.00     0.066 C 
HETATM    8  C   UNL     1       5.597  27.916  55.659  1.00  0.00     0.221 C 
HETATM    9  C   UNL     1       5.441  25.335  53.168  1.00  0.00     0.115 A 
HETATM   10 CL   UNL     1       4.827  24.522  51.811  1.00  0.00    -0.077 Cl
HETATM   11  H   UNL     1       3.289  27.064  52.629  1.00  0.00     0.162 HD
ENDROOT
BRANCH   6  12
HETATM   12  C   UNL     1       3.952  29.708  53.325  1.00  0.00    -0.035 A 
HETATM   13  C   UNL     1       4.531  29.614  52.051  1.00  0.00     0.012 A 
HETATM   14  C   UNL     1       4.834  30.761  51.312  1.00  0.00     0.037 A 
HETATM   15  C   UNL     1       4.555  32.031  51.816  1.00  0.00     0.068 A 
HETATM   16  C   UNL     1       3.979  32.144  53.079  1.00  0.00     0.037 A 
HETATM   17  C   UNL     1       3.678  30.995  53.822  1.00  0.00     0.012 A 
BRANCH  15  18
HETATM   18  O   UNL     1       4.891  33.063  50.986  1.00  0.00    -0.356 OA
HETATM   19  C   UNL     1       4.233  33.116  49.727  1.00  0.00     0.210 C 
ENDBRANCH  15  18
ENDBRANCH   6  12
BRANCH   8  20
HETATM   20  C   UNL     1       6.663  28.950  55.371  1.00  0.00     0.409 C 
HETATM   21  F   UNL     1       7.091  28.951  54.096  1.00  0.00    -0.169 F 
HETATM   22  F   UNL     1       6.191  30.195  55.639  1.00  0.00    -0.169 F 
HETATM   23  F   UNL     1       7.749  28.782  56.162  1.00  0.00    -0.169 F 
ENDBRANCH   8  20
BRANCH   1  24
HETATM   24  C   UNL     1       7.518  23.880  53.762  1.00  0.00     0.273 C 
HETATM   25  N   UNL     1       7.462  22.958  54.787  1.00  0.00    -0.356 N 
HETATM   26  H   UNL     1       6.843  23.200  55.557  1.00  0.00     0.162 HD
HETATM   27  O   UNL     1       8.282  23.779  52.808  1.00  0.00    -0.266 OA
BRANCH  25  28
HETATM   28  C   UNL     1       8.384  21.854  54.905  1.00  0.00     0.122 C 
BRANCH  28  29
HETATM   29  C   UNL     1       7.847  20.575  54.266  1.00  0.00     0.015 C 
HETATM   30  C   UNL     1       8.346  20.378  52.842  1.00  0.00     0.006 C 
ENDBRANCH  28  29
ENDBRANCH  25  28
ENDBRANCH   1  24
TORSDOF 6
ENDMDL
MODEL 8
REMARK VINA RESULT:      -6.9      4.724      8.180
REMARK  6 active torsions:
REMARK  status: ('A' for Active; 'I' for Inactive)
REMARK    1  A    between atoms: C_2  and  C_3 
REMARK    2  A    between atoms: C_3  and  N_4 
REMARK       I    between atoms: N_4  and  C_5 
REMARK    3  A    between atoms: C_5  and  C_6 
REMARK    4  A    between atoms: C_11  and  C_12 
REMARK    5  A    between atoms: C_15  and  O_16 
REMARK    6  A    between atoms: C_21  and  C_22 
ROOT
HETATM    1  C   UNL     1       5.526  31.033  58.031  1.00  0.00     0.170 A 
HETATM    2  N   UNL     1       6.861  30.878  57.834  1.00  0.00    -0.163 NA
HETATM    3  N   UNL     1       6.932  29.990  56.828  1.00  0.00    -0.238 N 
HETATM    4  C   UNL     1       5.718  29.627  56.315  1.00  0.00     0.145 A 
HETATM    5  N   UNL     1       5.623  28.795  55.249  1.00  0.00    -0.365 N 
HETATM    6  C   UNL     1       6.780  28.113  54.682  1.00  0.00     0.118 C 
HETATM    7  C   UNL     1       8.049  28.960  54.895  1.00  0.00     0.066 C 
HETATM    8  C   UNL     1       8.207  29.520  56.321  1.00  0.00     0.221 C 
HETATM    9  C   UNL     1       4.780  30.269  57.090  1.00  0.00     0.115 A 
HETATM   10 CL   UNL     1       3.094  30.161  56.932  1.00  0.00    -0.077 Cl
HETATM   11  H   UNL     1       4.713  28.438  54.956  1.00  0.00     0.162 HD
ENDROOT
BRANCH   6  12
HETATM   12  C   UNL     1       6.889  26.661  55.115  1.00  0.00    -0.035 A 
HETATM   13  C   UNL     1       6.199  26.138  56.219  1.00  0.00     0.012 A 
HETATM   14  C   UNL     1       6.306  24.786  56.558  1.00  0.00     0.037 A 
HETATM   15  C   UNL     1       7.091  23.917  55.800  1.00  0.00     0.068 A 
HETATM   16  C   UNL     1       7.781  24.420  54.699  1.00  0.00     0.037 A 
HETATM   17  C   UNL     1       7.678  25.775  54.360  1.00  0.00     0.012 A 
BRANCH  15  18
HETATM   18  O   UNL     1       7.097  22.623  56.235  1.00  0.00    -0.356 OA
HETATM   19  C   UNL     1       8.324  21.913  56.123  1.00  0.00     0.210 C 
ENDBRANCH  15  18
ENDBRANCH   6  12
BRANCH   8  20
HETATM   20  C   UNL     1       8.832  28.551  57.298  1.00  0.00     0.409 C 
HETATM   21  F   UNL     1       7.950  27.972  58.132  1.00  0.00    -0.169 F 
HETATM   22  F   UNL     1       9.466  27.553  56.627  1.00  0.00    -0.169 F 
HETATM   23  F   UNL     1       9.777  29.149  58.061  1.00  0.00    -0.169 F 
ENDBRANCH   8  20
BRANCH   1  24
HETATM   24  C   UNL     1       5.019  31.900  59.107  1.00  0.00     0.273 C 
HETATM   25  N   UNL     1       5.878  31.970  60.186  1.00  0.00    -0.356 N 
HETATM   26  H   UNL     1       6.700  31.374  60.127  1.00  0.00     0.162 HD
HETATM   27  O   UNL     1       3.943  32.485  59.066  1.00  0.00    -0.266 OA
BRANCH  25  28
HETATM   28  C   UNL     1       5.537  32.634  61.421  1.00  0.00     0.122 C 
BRANCH  28  29
HETATM   29  C   UNL     1       6.705  33.432  61.996  1.00  0.00     0.015 C 
HETATM   30  C   UNL     1       7.647  32.574  62.828  1.00  0.00     0.006 C 
ENDBRANCH  28  29
ENDBRANCH  25  28
ENDBRANCH   1  24
TORSDOF 6
ENDMDL
MODEL 9
REMARK VINA RESULT:      -6.4      4.071      8.823
REMARK  6 active torsions:
REMARK  status: ('A' for Active; 'I' for Inactive)
REMARK    1  A    between atoms: C_2  and  C_3 
REMARK    2  A    between atoms: C_3  and  N_4 
REMARK       I    between atoms: N_4  and  C_5 
REMARK    3  A    between atoms: C_5  and  C_6 
REMARK    4  A    between atoms: C_11  and  C_12 
REMARK    5  A    between atoms: C_15  and  O_16 
REMARK    6  A    between atoms: C_21  and  C_22 
ROOT
HETATM    1  C   UNL     1       7.639  30.295  57.903  1.00  0.00     0.170 A 
HETATM    2  N   UNL     1       6.323  30.628  57.903  1.00  0.00    -0.163 NA
HETATM    3  N   UNL     1       5.766  29.723  57.080  1.00  0.00    -0.238 N 
HETATM    4  C   UNL     1       6.638  28.780  56.614  1.00  0.00     0.145 A 
HETATM    5  N   UNL     1       6.218  27.756  55.831  1.00  0.00    -0.365 N 
HETATM    6  C   UNL     1       4.860  27.676  55.308  1.00  0.00     0.118 C 
HETATM    7  C   UNL     1       3.881  28.367  56.275  1.00  0.00     0.066 C 
HETATM    8  C   UNL     1       4.348  29.745  56.777  1.00  0.00     0.221 C 
HETATM    9  C   UNL     1       7.871  29.136  57.111  1.00  0.00     0.115 A 
HETATM   10 CL   UNL     1       9.343  28.339  56.830  1.00  0.00    -0.077 Cl
HETATM   11  H   UNL     1       6.898  27.133  55.393  1.00  0.00     0.162 HD
ENDROOT
BRANCH   6  12
HETATM   12  C   UNL     1       4.754  28.111  53.856  1.00  0.00    -0.035 A 
HETATM   13  C   UNL     1       3.527  28.305  53.202  1.00  0.00     0.012 A 
HETATM   14  C   UNL     1       3.481  28.737  51.874  1.00  0.00     0.037 A 
HETATM   15  C   UNL     1       4.654  29.002  51.166  1.00  0.00     0.068 A 
HETATM   16  C   UNL     1       5.880  28.816  51.800  1.00  0.00     0.037 A 
HETATM   17  C   UNL     1       5.928  28.379  53.130  1.00  0.00     0.012 A 
BRANCH  15  18
HETATM   18  O   UNL     1       4.465  29.429  49.883  1.00  0.00    -0.356 OA
HETATM   19  C   UNL     1       3.178  29.214  49.317  1.00  0.00     0.210 C 
ENDBRANCH  15  18
ENDBRANCH   6  12
BRANCH   8  20
HETATM   20  C   UNL     1       4.034  30.884  55.833  1.00  0.00     0.409 C 
HETATM   21  F   UNL     1       2.916  30.699  55.108  1.00  0.00    -0.169 F 
HETATM   22  F   UNL     1       3.875  32.039  56.530  1.00  0.00    -0.169 F 
HETATM   23  F   UNL     1       5.048  31.107  54.963  1.00  0.00    -0.169 F 
ENDBRANCH   8  20
BRANCH   1  24
HETATM   24  C   UNL     1       8.618  31.096  58.655  1.00  0.00     0.273 C 
HETATM   25  N   UNL     1       8.119  31.565  59.853  1.00  0.00    -0.356 N 
HETATM   26  H   UNL     1       7.139  31.357  60.027  1.00  0.00     0.162 HD
HETATM   27  O   UNL     1       9.752  31.341  58.257  1.00  0.00    -0.266 OA
BRANCH  25  28
HETATM   28  C   UNL     1       8.834  32.494  60.695  1.00  0.00     0.122 C 
BRANCH  28  29
HETATM   29  C   UNL     1       9.088  31.937  62.094  1.00  0.00     0.015 C 
HETATM   30  C   UNL     1       9.138  30.416  62.118  1.00  0.00     0.006 C 
ENDBRANCH  28  29
ENDBRANCH  25  28
ENDBRANCH   1  24
TORSDOF 6
ENDMDL
MODEL 10
REMARK VINA RESULT:      -6.3      3.611      7.007
REMARK  6 active torsions:
REMARK  status: ('A' for Active; 'I' for Inactive)
REMARK    1  A    between atoms: C_2  and  C_3 
REMARK    2  A    between atoms: C_3  and  N_4 
REMARK       I    between atoms: N_4  and  C_5 
REMARK    3  A    between atoms: C_5  and  C_6 
REMARK    4  A    between atoms: C_11  and  C_12 
REMARK    5  A    between atoms: C_15  and  O_16 
REMARK    6  A    between atoms: C_21  and  C_22 
ROOT
HETATM    1  C   UNL     1       5.968  26.146  53.897  1.00  0.00     0.170 A 
HETATM    2  N   UNL     1       5.017  26.997  54.363  1.00  0.00    -0.163 NA
HETATM    3  N   UNL     1       4.491  27.527  53.245  1.00  0.00    -0.238 N 
HETATM    4  C   UNL     1       4.995  27.005  52.088  1.00  0.00     0.145 A 
HETATM    5  N   UNL     1       4.516  27.381  50.877  1.00  0.00    -0.365 N 
HETATM    6  C   UNL     1       3.556  28.468  50.717  1.00  0.00     0.118 C 
HETATM    7  C   UNL     1       2.669  28.576  51.971  1.00  0.00     0.066 C 
HETATM    8  C   UNL     1       3.441  28.525  53.302  1.00  0.00     0.221 C 
HETATM    9  C   UNL     1       5.975  26.121  52.474  1.00  0.00     0.115 A 
HETATM   10 CL   UNL     1       6.967  25.200  51.450  1.00  0.00    -0.077 Cl
HETATM   11  H   UNL     1       4.984  27.077  50.022  1.00  0.00     0.162 HD
ENDROOT
BRANCH   6  12
HETATM   12  C   UNL     1       4.197  29.768  50.260  1.00  0.00    -0.035 A 
HETATM   13  C   UNL     1       5.572  29.900  50.018  1.00  0.00     0.012 A 
HETATM   14  C   UNL     1       6.109  31.109  49.567  1.00  0.00     0.037 A 
HETATM   15  C   UNL     1       5.290  32.213  49.333  1.00  0.00     0.068 A 
HETATM   16  C   UNL     1       3.922  32.099  49.567  1.00  0.00     0.037 A 
HETATM   17  C   UNL     1       3.382  30.889  50.022  1.00  0.00     0.012 A 
BRANCH  15  18
HETATM   18  O   UNL     1       5.942  33.326  48.884  1.00  0.00    -0.356 OA
HETATM   19  C   UNL     1       5.960  33.538  47.478  1.00  0.00     0.210 C 
ENDBRANCH  15  18
ENDBRANCH   6  12
BRANCH   8  20
HETATM   20  C   UNL     1       4.011  29.858  53.735  1.00  0.00     0.409 C 
HETATM   21  F   UNL     1       5.268  30.077  53.309  1.00  0.00    -0.169 F 
HETATM   22  F   UNL     1       3.242  30.872  53.259  1.00  0.00    -0.169 F 
HETATM   23  F   UNL     1       4.013  29.988  55.083  1.00  0.00    -0.169 F 
ENDBRANCH   8  20
BRANCH   1  24
HETATM   24  C   UNL     1       6.828  25.397  54.826  1.00  0.00     0.273 C 
HETATM   25  N   UNL     1       6.716  24.030  54.676  1.00  0.00    -0.356 N 
HETATM   26  H   UNL     1       6.019  23.722  54.003  1.00  0.00     0.162 HD
HETATM   27  O   UNL     1       7.556  25.924  55.661  1.00  0.00    -0.266 OA
BRANCH  25  28
HETATM   28  C   UNL     1       7.344  23.085  55.568  1.00  0.00     0.122 C 
BRANCH  28  29
HETATM   29  C   UNL     1       7.967  21.906  54.825  1.00  0.00     0.015 C 
HETATM   30  C   UNL     1       8.214  22.206  53.353  1.00  0.00     0.006 C 
ENDBRANCH  28  29
ENDBRANCH  25  28
ENDBRANCH   1  24
TORSDOF 6
ENDMDL
