MODEL 1
REMARK VINA RESULT:      -9.1      0.000      0.000
REMARK  4 active torsions:
REMARK  status: ('A' for Active; 'I' for Inactive)
REMARK    1  A    between atoms: N_2  and  C_3 
REMARK    2  A    between atoms: C_5  and  C_6 
REMARK    3  A    between atoms: C_6  and  C_7 
REMARK    4  A    between atoms: C_14  and  O_15 
ROOT
HETATM    1  C   UNL     1       7.595  29.991  58.400  1.00  0.00     0.113 A 
HETATM    2  N   UNL     1       6.579  29.363  57.775  1.00  0.00    -0.223 NA
HETATM    3  C   UNL     1       6.795  28.832  56.542  1.00  0.00     0.106 A 
HETATM    4  N   UNL     1       7.975  28.908  55.906  1.00  0.00    -0.347 N 
HETATM    5  H   UNL     1       8.092  28.511  54.978  1.00  0.00     0.167 HD
HETATM    6  C   UNL     1       8.985  29.509  56.529  1.00  0.00     0.020 A 
HETATM    7  C   UNL     1       8.827  30.057  57.790  1.00  0.00     0.005 A 
HETATM    8  C   UNL     1      10.108  30.671  58.258  1.00  0.00     0.044 C 
HETATM    9  C   UNL     1      11.122  30.017  57.300  1.00  0.00     0.011 C 
HETATM   10  C   UNL     1      10.369  29.703  55.998  1.00  0.00     0.058 C 
ENDROOT
BRANCH   3  11
HETATM   11  C   UNL     1       5.640  28.155  55.858  1.00  0.00     0.085 C 
BRANCH  11  12
HETATM   12  C   UNL     1       5.840  26.643  55.708  1.00  0.00     0.021 C 
HETATM   13  C   UNL     1       6.594  26.011  56.881  1.00  0.00     0.181 C 
HETATM   14  O   UNL     1       6.612  24.586  56.769  1.00  0.00    -0.350 OA
HETATM   15  C   UNL     1       7.060  24.121  55.559  1.00  0.00     0.077 A 
HETATM   16  C   UNL     1       7.083  24.907  54.402  1.00  0.00    -0.024 A 
HETATM   17  C   UNL     1       7.464  22.784  55.525  1.00  0.00     0.074 A 
HETATM   18  C   UNL     1       6.636  26.339  54.431  1.00  0.00     0.048 C 
HETATM   19  C   UNL     1       7.564  24.348  53.214  1.00  0.00     0.012 A 
HETATM   20  C   UNL     1       7.986  23.017  53.187  1.00  0.00     0.037 A 
HETATM   21  C   UNL     1       7.936  22.227  54.337  1.00  0.00     0.070 A 
BRANCH  21  22
HETATM   22  O   UNL     1       8.373  20.944  54.166  1.00  0.00    -0.356 OA
HETATM   23  C   UNL     1       8.309  20.408  52.849  1.00  0.00     0.210 C 
ENDBRANCH  21  22
ENDBRANCH  11  12
ENDBRANCH   3  11
BRANCH   1  24
HETATM   24  N   UNL     1       7.433  30.491  59.687  1.00  0.00    -0.281 NA
HETATM   25  C   UNL     1       6.929  31.853  59.792  1.00  0.00     0.114 C 
HETATM   26  H   UNL     1       8.263  30.355  60.258  1.00  0.00     0.128 HD
ENDBRANCH   1  24
TORSDOF 4
ENDMDL
MODEL 2
REMARK VINA RESULT:      -9.0      3.095      7.952
REMARK  4 active torsions:
REMARK  status: ('A' for Active; 'I' for Inactive)
REMARK    1  A    between atoms: N_2  and  C_3 
REMARK    2  A    between atoms: C_5  and  C_6 
REMARK    3  A    between atoms: C_6  and  C_7 
REMARK    4  A    between atoms: C_14  and  O_15 
ROOT
HETATM    1  C   UNL     1       6.715  24.844  52.991  1.00  0.00     0.113 A 
HETATM    2  N   UNL     1       6.162  25.694  53.879  1.00  0.00    -0.223 NA
HETATM    3  C   UNL     1       6.131  25.342  55.193  1.00  0.00     0.106 A 
HETATM    4  N   UNL     1       6.621  24.180  55.653  1.00  0.00    -0.347 N 
HETATM    5  H   UNL     1       6.566  23.949  56.641  1.00  0.00     0.167 HD
HETATM    6  C   UNL     1       7.187  23.349  54.782  1.00  0.00     0.020 A 
HETATM    7  C   UNL     1       7.258  23.660  53.435  1.00  0.00     0.005 A 
HETATM    8  C   UNL     1       7.935  22.561  52.681  1.00  0.00     0.044 C 
HETATM    9  C   UNL     1       8.632  21.796  53.822  1.00  0.00     0.011 C 
HETATM   10  C   UNL     1       7.785  22.013  55.086  1.00  0.00     0.058 C 
ENDROOT
BRANCH   3  11
HETATM   11  C   UNL     1       5.489  26.298  56.159  1.00  0.00     0.085 C 
BRANCH  11  12
HETATM   12  C   UNL     1       6.427  27.435  56.584  1.00  0.00     0.021 C 
HETATM   13  C   UNL     1       7.409  27.031  57.688  1.00  0.00     0.181 C 
HETATM   14  O   UNL     1       8.359  28.070  57.931  1.00  0.00    -0.350 OA
HETATM   15  C   UNL     1       7.802  29.301  58.163  1.00  0.00     0.077 A 
HETATM   16  C   UNL     1       6.498  29.632  57.779  1.00  0.00    -0.024 A 
HETATM   17  C   UNL     1       8.628  30.245  58.779  1.00  0.00     0.074 A 
HETATM   18  C   UNL     1       5.612  28.626  57.105  1.00  0.00     0.048 C 
HETATM   19  C   UNL     1       6.012  30.911  58.065  1.00  0.00     0.012 A 
HETATM   20  C   UNL     1       6.833  31.847  58.698  1.00  0.00     0.037 A 
HETATM   21  C   UNL     1       8.144  31.523  59.054  1.00  0.00     0.070 A 
BRANCH  21  22
HETATM   22  O   UNL     1       8.835  32.534  59.661  1.00  0.00    -0.356 OA
HETATM   23  C   UNL     1       9.548  32.209  60.848  1.00  0.00     0.210 C 
ENDBRANCH  21  22
ENDBRANCH  11  12
ENDBRANCH   3  11
BRANCH   1  24
HETATM   24  N   UNL     1       6.824  25.195  51.650  1.00  0.00    -0.281 NA
HETATM   25  C   UNL     1       5.801  26.092  51.132  1.00  0.00     0.114 C 
HETATM   26  H   UNL     1       6.946  24.382  51.051  1.00  0.00     0.128 HD
ENDBRANCH   1  24
TORSDOF 4
ENDMDL
MODEL 3
REMARK VINA RESULT:      -8.8      1.700      2.528
REMARK  4 active torsions:
REMARK  status: ('A' for Active; 'I' for Inactive)
REMARK    1  A    between atoms: N_2  and  C_3 
REMARK    2  A    between atoms: C_5  and  C_6 
REMARK    3  A    between atoms: C_6  and  C_7 
REMARK    4  A    between atoms: C_14  and  O_15 
ROOT
HETATM    1  C   UNL     1       5.895  29.287  56.935  1.00  0.00     0.113 A 
HETATM    2  N   UNL     1       5.722  28.724  55.723  1.00  0.00    -0.223 NA
HETATM    3  C   UNL     1       6.805  28.552  54.918  1.00  0.00     0.106 A 
HETATM    4  N   UNL     1       8.046  28.923  55.269  1.00  0.00    -0.347 N 
HETATM    5  H   UNL     1       8.828  28.790  54.633  1.00  0.00     0.167 HD
HETATM    6  C   UNL     1       8.224  29.459  56.474  1.00  0.00     0.020 A 
HETATM    7  C   UNL     1       7.160  29.647  57.339  1.00  0.00     0.005 A 
HETATM    8  C   UNL     1       7.629  30.266  58.617  1.00  0.00     0.044 C 
HETATM    9  C   UNL     1       9.145  29.999  58.542  1.00  0.00     0.011 C 
HETATM   10  C   UNL     1       9.516  29.940  57.052  1.00  0.00     0.058 C 
ENDROOT
BRANCH   3  11
HETATM   11  C   UNL     1       6.581  27.942  53.563  1.00  0.00     0.085 C 
BRANCH  11  12
HETATM   12  C   UNL     1       7.245  26.568  53.411  1.00  0.00     0.021 C 
HETATM   13  C   UNL     1       6.809  25.819  52.148  1.00  0.00     0.181 C 
HETATM   14  O   UNL     1       7.574  24.624  51.974  1.00  0.00    -0.350 OA
HETATM   15  C   UNL     1       7.601  23.806  53.074  1.00  0.00     0.077 A 
HETATM   16  C   UNL     1       7.303  24.255  54.364  1.00  0.00    -0.024 A 
HETATM   17  C   UNL     1       7.985  22.482  52.847  1.00  0.00     0.074 A 
HETATM   18  C   UNL     1       6.903  25.680  54.615  1.00  0.00     0.048 C 
HETATM   19  C   UNL     1       7.350  23.345  55.425  1.00  0.00     0.012 A 
HETATM   20  C   UNL     1       7.716  22.017  55.193  1.00  0.00     0.037 A 
HETATM   21  C   UNL     1       8.039  21.579  53.907  1.00  0.00     0.070 A 
BRANCH  21  22
HETATM   22  O   UNL     1       8.384  20.259  53.826  1.00  0.00    -0.356 OA
HETATM   23  C   UNL     1       8.911  19.654  55.001  1.00  0.00     0.210 C 
ENDBRANCH  21  22
ENDBRANCH  11  12
ENDBRANCH   3  11
BRANCH   1  24
HETATM   24  N   UNL     1       4.825  29.421  57.811  1.00  0.00    -0.281 NA
HETATM   25  C   UNL     1       3.792  30.375  57.429  1.00  0.00     0.114 C 
HETATM   26  H   UNL     1       5.131  29.566  58.770  1.00  0.00     0.128 HD
ENDBRANCH   1  24
TORSDOF 4
ENDMDL
MODEL 4
REMARK VINA RESULT:      -8.7      1.655      3.067
REMARK  4 active torsions:
REMARK  status: ('A' for Active; 'I' for Inactive)
REMARK    1  A    between atoms: N_2  and  C_3 
REMARK    2  A    between atoms: C_5  and  C_6 
REMARK    3  A    between atoms: C_6  and  C_7 
REMARK    4  A    between atoms: C_14  and  O_15 
ROOT
HETATM    1  C   UNL     1       9.295  30.594  58.037  1.00  0.00     0.113 A 
HETATM    2  N   UNL     1       8.448  29.926  57.228  1.00  0.00    -0.223 NA
HETATM    3  C   UNL     1       7.133  29.858  57.568  1.00  0.00     0.106 A 
HETATM    4  N   UNL     1       6.632  30.421  58.679  1.00  0.00    -0.347 N 
HETATM    5  H   UNL     1       5.644  30.335  58.905  1.00  0.00     0.167 HD
HETATM    6  C   UNL     1       7.461  31.098  59.468  1.00  0.00     0.020 A 
HETATM    7  C   UNL     1       8.807  31.211  59.166  1.00  0.00     0.005 A 
HETATM    8  C   UNL     1       9.511  32.016  60.211  1.00  0.00     0.044 C 
HETATM    9  C   UNL     1       8.325  32.716  60.902  1.00  0.00     0.011 C 
HETATM   10  C   UNL     1       7.108  31.791  60.745  1.00  0.00     0.058 C 
ENDROOT
BRANCH   3  11
HETATM   11  C   UNL     1       6.214  29.089  56.661  1.00  0.00     0.085 C 
BRANCH  11  12
HETATM   12  C   UNL     1       6.939  27.999  55.863  1.00  0.00     0.021 C 
HETATM   13  C   UNL     1       6.672  28.071  54.356  1.00  0.00     0.181 C 
HETATM   14  O   UNL     1       7.493  27.140  53.648  1.00  0.00    -0.350 OA
HETATM   15  C   UNL     1       7.428  25.855  54.122  1.00  0.00     0.077 A 
HETATM   16  C   UNL     1       6.975  25.539  55.407  1.00  0.00    -0.024 A 
HETATM   17  C   UNL     1       7.883  24.856  53.257  1.00  0.00     0.074 A 
HETATM   18  C   UNL     1       6.499  26.610  56.344  1.00  0.00     0.048 C 
HETATM   19  C   UNL     1       6.937  24.198  55.800  1.00  0.00     0.012 A 
HETATM   20  C   UNL     1       7.374  23.199  54.928  1.00  0.00     0.037 A 
HETATM   21  C   UNL     1       7.852  23.520  53.655  1.00  0.00     0.070 A 
BRANCH  21  22
HETATM   22  O   UNL     1       8.251  22.447  52.910  1.00  0.00    -0.356 OA
HETATM   23  C   UNL     1       7.818  21.162  53.341  1.00  0.00     0.210 C 
ENDBRANCH  21  22
ENDBRANCH  11  12
ENDBRANCH   3  11
BRANCH   1  24
HETATM   24  N   UNL     1      10.634  30.740  57.693  1.00  0.00    -0.281 NA
HETATM   25  C   UNL     1      11.258  29.605  57.026  1.00  0.00     0.114 C 
HETATM   26  H   UNL     1      11.196  31.070  58.473  1.00  0.00     0.128 HD
ENDBRANCH   1  24
TORSDOF 4
ENDMDL
MODEL 5
REMARK VINA RESULT:      -8.6      4.966      7.457
REMARK  4 active torsions:
REMARK  status: ('A' for Active; 'I' for Inactive)
REMARK    1  A    between atoms: N_2  and  C_3 
REMARK    2  A    between atoms: C_5  and  C_6 
REMARK    3  A    between atoms: C_6  and  C_7 
REMARK    4  A    between atoms: C_14  and  O_15 
ROOT
HETATM    1  C   UNL     1       3.070  28.483  49.547  1.00  0.00     0.113 A 
HETATM    2  N   UNL     1       4.127  28.470  50.383  1.00  0.00    -0.223 NA
HETATM    3  C   UNL     1       4.920  27.365  50.420  1.00  0.00     0.106 A 
HETATM    4  N   UNL     1       4.699  26.277  49.665  1.00  0.00    -0.347 N 
HETATM    5  H   UNL     1       5.308  25.466  49.733  1.00  0.00     0.167 HD
HETATM    6  C   UNL     1       3.670  26.296  48.824  1.00  0.00     0.020 A 
HETATM    7  C   UNL     1       2.836  27.397  48.734  1.00  0.00     0.005 A 
HETATM    8  C   UNL     1       1.762  27.159  47.721  1.00  0.00     0.044 C 
HETATM    9  C   UNL     1       2.350  25.973  46.933  1.00  0.00     0.011 C 
HETATM   10  C   UNL     1       3.251  25.194  47.904  1.00  0.00     0.058 C 
ENDROOT
BRANCH   3  11
HETATM   11  C   UNL     1       6.079  27.367  51.377  1.00  0.00     0.085 C 
BRANCH  11  12
HETATM   12  C   UNL     1       6.054  26.179  52.345  1.00  0.00     0.021 C 
HETATM   13  C   UNL     1       6.236  26.586  53.811  1.00  0.00     0.181 C 
HETATM   14  O   UNL     1       6.045  25.467  54.679  1.00  0.00    -0.350 OA
HETATM   15  C   UNL     1       6.794  24.366  54.353  1.00  0.00     0.077 A 
HETATM   16  C   UNL     1       7.351  24.171  53.085  1.00  0.00    -0.024 A 
HETATM   17  C   UNL     1       6.948  23.407  55.359  1.00  0.00     0.074 A 
HETATM   18  C   UNL     1       7.176  25.191  51.999  1.00  0.00     0.048 C 
HETATM   19  C   UNL     1       8.108  23.019  52.848  1.00  0.00     0.012 A 
HETATM   20  C   UNL     1       8.276  22.071  53.860  1.00  0.00     0.037 A 
HETATM   21  C   UNL     1       7.697  22.256  55.117  1.00  0.00     0.070 A 
BRANCH  21  22
HETATM   22  O   UNL     1       7.937  21.248  56.008  1.00  0.00    -0.356 OA
HETATM   23  C   UNL     1       9.164  20.542  55.870  1.00  0.00     0.210 C 
ENDBRANCH  21  22
ENDBRANCH  11  12
ENDBRANCH   3  11
BRANCH   1  24
HETATM   24  N   UNL     1       2.272  29.616  49.434  1.00  0.00    -0.281 NA
HETATM   25  C   UNL     1       2.191  30.470  50.611  1.00  0.00     0.114 C 
HETATM   26  H   UNL     1       1.350  29.400  49.064  1.00  0.00     0.128 HD
ENDBRANCH   1  24
TORSDOF 4
ENDMDL
MODEL 6
REMARK VINA RESULT:      -8.6      4.156      6.213
REMARK  4 active torsions:
REMARK  status: ('A' for Active; 'I' for Inactive)
REMARK    1  A    between atoms: N_2  and  C_3 
REMARK    2  A    between atoms: C_5  and  C_6 
REMARK    3  A    between atoms: C_6  and  C_7 
REMARK    4  A    between atoms: C_14  and  O_15 
ROOT
HETATM    1  C   UNL     1       5.731  29.343  50.347  1.00  0.00     0.113 A 
HETATM    2  N   UNL     1       5.736  29.093  51.671  1.00  0.00    -0.223 NA
HETATM    3  C   UNL     1       5.165  27.945  52.124  1.00  0.00     0.106 A 
HETATM    4  N   UNL     1       4.586  27.044  51.315  1.00  0.00    -0.347 N 
HETATM    5  H   UNL     1       4.158  26.204  51.695  1.00  0.00     0.167 HD
HETATM    6  C   UNL     1       4.599  27.277  50.005  1.00  0.00     0.020 A 
HETATM    7  C   UNL     1       5.176  28.423  49.486  1.00  0.00     0.005 A 
HETATM    8  C   UNL     1       5.052  28.442  47.996  1.00  0.00     0.044 C 
HETATM    9  C   UNL     1       4.731  26.964  47.702  1.00  0.00     0.011 C 
HETATM   10  C   UNL     1       4.010  26.409  48.941  1.00  0.00     0.058 C 
ENDROOT
BRANCH   3  11
HETATM   11  C   UNL     1       5.165  27.701  53.607  1.00  0.00     0.085 C 
BRANCH  11  12
HETATM   12  C   UNL     1       5.498  26.249  53.972  1.00  0.00     0.021 C 
HETATM   13  C   UNL     1       5.955  26.078  55.423  1.00  0.00     0.181 C 
HETATM   14  O   UNL     1       6.096  24.694  55.754  1.00  0.00    -0.350 OA
HETATM   15  C   UNL     1       6.877  23.982  54.880  1.00  0.00     0.077 A 
HETATM   16  C   UNL     1       7.153  24.414  53.579  1.00  0.00    -0.024 A 
HETATM   17  C   UNL     1       7.364  22.758  55.347  1.00  0.00     0.074 A 
HETATM   18  C   UNL     1       6.621  25.721  53.069  1.00  0.00     0.048 C 
HETATM   19  C   UNL     1       7.967  23.624  52.762  1.00  0.00     0.012 A 
HETATM   20  C   UNL     1       8.468  22.410  53.237  1.00  0.00     0.037 A 
HETATM   21  C   UNL     1       8.168  21.968  54.527  1.00  0.00     0.070 A 
BRANCH  21  22
HETATM   22  O   UNL     1       8.719  20.762  54.859  1.00  0.00    -0.356 OA
HETATM   23  C   UNL     1       9.005  20.538  56.234  1.00  0.00     0.210 C 
ENDBRANCH  21  22
ENDBRANCH  11  12
ENDBRANCH   3  11
BRANCH   1  24
HETATM   24  N   UNL     1       6.360  30.474  49.838  1.00  0.00    -0.281 NA
HETATM   25  C   UNL     1       5.580  31.704  49.843  1.00  0.00     0.114 C 
HETATM   26  H   UNL     1       6.780  30.302  48.928  1.00  0.00     0.128 HD
ENDBRANCH   1  24
TORSDOF 4
ENDMDL
MODEL 7
REMARK VINA RESULT:      -8.5      3.728      8.930
REMARK  4 active torsions:
REMARK  status: ('A' for Active; 'I' for Inactive)
REMARK    1  A    between atoms: N_2  and  C_3 
REMARK    2  A    between atoms: C_5  and  C_6 
REMARK    3  A    between atoms: C_6  and  C_7 
REMARK    4  A    between atoms: C_14  and  O_15 
ROOT
HETATM    1  C   UNL     1       7.856  26.453  57.024  1.00  0.00     0.113 A 
HETATM    2  N   UNL     1       8.388  27.482  57.713  1.00  0.00    -0.223 NA
HETATM    3  C   UNL     1       8.515  28.688  57.097  1.00  0.00     0.106 A 
HETATM    4  N   UNL     1       8.142  28.906  55.827  1.00  0.00    -0.347 N 
HETATM    5  H   UNL     1       8.267  29.820  55.398  1.00  0.00     0.167 HD
HETATM    6  C   UNL     1       7.597  27.899  55.151  1.00  0.00     0.020 A 
HETATM    7  C   UNL     1       7.431  26.653  55.731  1.00  0.00     0.005 A 
HETATM    8  C   UNL     1       6.802  25.704  54.761  1.00  0.00     0.044 C 
HETATM    9  C   UNL     1       6.228  26.680  53.715  1.00  0.00     0.011 C 
HETATM   10  C   UNL     1       7.120  27.931  53.734  1.00  0.00     0.058 C 
ENDROOT
BRANCH   3  11
HETATM   11  C   UNL     1       9.131  29.814  57.881  1.00  0.00     0.085 C 
BRANCH  11  12
HETATM   12  C   UNL     1       8.236  30.302  59.026  1.00  0.00     0.021 C 
HETATM   13  C   UNL     1       7.292  31.437  58.615  1.00  0.00     0.181 C 
HETATM   14  O   UNL     1       6.375  31.743  59.668  1.00  0.00    -0.350 OA
HETATM   15  C   UNL     1       6.966  31.978  60.882  1.00  0.00     0.077 A 
HETATM   16  C   UNL     1       8.260  31.548  61.195  1.00  0.00    -0.024 A 
HETATM   17  C   UNL     1       6.186  32.649  61.827  1.00  0.00     0.074 A 
HETATM   18  C   UNL     1       9.096  30.815  60.188  1.00  0.00     0.048 C 
HETATM   19  C   UNL     1       8.783  31.842  62.458  1.00  0.00     0.012 A 
HETATM   20  C   UNL     1       8.008  32.529  63.395  1.00  0.00     0.037 A 
HETATM   21  C   UNL     1       6.707  32.933  63.088  1.00  0.00     0.070 A 
BRANCH  21  22
HETATM   22  O   UNL     1       6.062  33.590  64.099  1.00  0.00    -0.356 OA
HETATM   23  C   UNL     1       6.788  33.792  65.306  1.00  0.00     0.210 C 
ENDBRANCH  21  22
ENDBRANCH  11  12
ENDBRANCH   3  11
BRANCH   1  24
HETATM   24  N   UNL     1       7.651  25.223  57.638  1.00  0.00    -0.281 NA
HETATM   25  C   UNL     1       8.733  24.255  57.525  1.00  0.00     0.114 C 
HETATM   26  H   UNL     1       6.756  24.813  57.383  1.00  0.00     0.128 HD
ENDBRANCH   1  24
TORSDOF 4
ENDMDL
MODEL 8
REMARK VINA RESULT:      -8.5      2.999      7.701
REMARK  4 active torsions:
REMARK  status: ('A' for Active; 'I' for Inactive)
REMARK    1  A    between atoms: N_2  and  C_3 
REMARK    2  A    between atoms: C_5  and  C_6 
REMARK    3  A    between atoms: C_6  and  C_7 
REMARK    4  A    between atoms: C_14  and  O_15 
ROOT
HETATM    1  C   UNL     1       8.016  24.000  56.167  1.00  0.00     0.113 A 
HETATM    2  N   UNL     1       7.620  25.287  56.114  1.00  0.00    -0.223 NA
HETATM    3  C   UNL     1       7.307  25.828  54.907  1.00  0.00     0.106 A 
HETATM    4  N   UNL     1       7.378  25.143  53.754  1.00  0.00    -0.347 N 
HETATM    5  H   UNL     1       7.148  25.589  52.870  1.00  0.00     0.167 HD
HETATM    6  C   UNL     1       7.748  23.866  53.806  1.00  0.00     0.020 A 
HETATM    7  C   UNL     1       8.066  23.259  55.008  1.00  0.00     0.005 A 
HETATM    8  C   UNL     1       8.450  21.831  54.787  1.00  0.00     0.044 C 
HETATM    9  C   UNL     1       7.884  21.582  53.376  1.00  0.00     0.011 C 
HETATM   10  C   UNL     1       7.894  22.934  52.646  1.00  0.00     0.058 C 
ENDROOT
BRANCH   3  11
HETATM   11  C   UNL     1       6.889  27.272  54.873  1.00  0.00     0.085 C 
BRANCH  11  12
HETATM   12  C   UNL     1       7.273  28.033  56.148  1.00  0.00     0.021 C 
HETATM   13  C   UNL     1       6.217  29.052  56.587  1.00  0.00     0.181 C 
HETATM   14  O   UNL     1       6.547  29.614  57.859  1.00  0.00    -0.350 OA
HETATM   15  C   UNL     1       7.818  30.122  57.938  1.00  0.00     0.077 A 
HETATM   16  C   UNL     1       8.840  29.759  57.055  1.00  0.00    -0.024 A 
HETATM   17  C   UNL     1       8.062  31.011  58.989  1.00  0.00     0.074 A 
HETATM   18  C   UNL     1       8.588  28.794  55.934  1.00  0.00     0.048 C 
HETATM   19  C   UNL     1      10.105  30.336  57.209  1.00  0.00     0.012 A 
HETATM   20  C   UNL     1      10.341  31.239  58.248  1.00  0.00     0.037 A 
HETATM   21  C   UNL     1       9.325  31.578  59.144  1.00  0.00     0.070 A 
BRANCH  21  22
HETATM   22  O   UNL     1       9.696  32.467  60.115  1.00  0.00    -0.356 OA
HETATM   23  C   UNL     1       9.663  32.006  61.461  1.00  0.00     0.210 C 
ENDBRANCH  21  22
ENDBRANCH  11  12
ENDBRANCH   3  11
BRANCH   1  24
HETATM   24  N   UNL     1       8.284  23.392  57.388  1.00  0.00    -0.281 NA
HETATM   25  C   UNL     1       8.946  24.216  58.389  1.00  0.00     0.114 C 
HETATM   26  H   UNL     1       8.750  22.495  57.275  1.00  0.00     0.128 HD
ENDBRANCH   1  24
TORSDOF 4
ENDMDL
MODEL 9
REMARK VINA RESULT:      -8.4      4.127      9.347
REMARK  4 active torsions:
REMARK  status: ('A' for Active; 'I' for Inactive)
REMARK    1  A    between atoms: N_2  and  C_3 
REMARK    2  A    between atoms: C_5  and  C_6 
REMARK    3  A    between atoms: C_6  and  C_7 
REMARK    4  A    between atoms: C_14  and  O_15 
ROOT
HETATM    1  C   UNL     1       5.486  27.948  56.989  1.00  0.00     0.113 A 
HETATM    2  N   UNL     1       6.030  29.121  57.369  1.00  0.00    -0.223 NA
HETATM    3  C   UNL     1       7.318  29.136  57.806  1.00  0.00     0.106 A 
HETATM    4  N   UNL     1       8.079  28.033  57.883  1.00  0.00    -0.347 N 
HETATM    5  H   UNL     1       9.034  28.085  58.229  1.00  0.00     0.167 HD
HETATM    6  C   UNL     1       7.553  26.878  57.488  1.00  0.00     0.020 A 
HETATM    7  C   UNL     1       6.251  26.804  57.023  1.00  0.00     0.005 A 
HETATM    8  C   UNL     1       5.908  25.398  56.649  1.00  0.00     0.044 C 
HETATM    9  C   UNL     1       7.309  24.766  56.540  1.00  0.00     0.011 C 
HETATM   10  C   UNL     1       8.226  25.543  57.497  1.00  0.00     0.058 C 
ENDROOT
BRANCH   3  11
HETATM   11  C   UNL     1       7.893  30.453  58.245  1.00  0.00     0.085 C 
BRANCH  11  12
HETATM   12  C   UNL     1       7.211  31.012  59.500  1.00  0.00     0.021 C 
HETATM   13  C   UNL     1       6.460  32.323  59.249  1.00  0.00     0.181 C 
HETATM   14  O   UNL     1       5.714  32.714  60.404  1.00  0.00    -0.350 OA
HETATM   15  C   UNL     1       6.447  32.754  61.562  1.00  0.00     0.077 A 
HETATM   16  C   UNL     1       7.662  32.079  61.718  1.00  0.00    -0.024 A 
HETATM   17  C   UNL     1       5.893  33.485  62.616  1.00  0.00     0.074 A 
HETATM   18  C   UNL     1       8.254  31.281  60.594  1.00  0.00     0.048 C 
HETATM   19  C   UNL     1       8.343  32.184  62.935  1.00  0.00     0.012 A 
HETATM   20  C   UNL     1       7.797  32.931  63.981  1.00  0.00     0.037 A 
HETATM   21  C   UNL     1       6.571  33.582  63.830  1.00  0.00     0.070 A 
BRANCH  21  22
HETATM   22  O   UNL     1       6.153  34.271  64.934  1.00  0.00    -0.356 OA
HETATM   23  C   UNL     1       4.909  33.883  65.506  1.00  0.00     0.210 C 
ENDBRANCH  21  22
ENDBRANCH  11  12
ENDBRANCH   3  11
BRANCH   1  24
HETATM   24  N   UNL     1       4.194  27.901  56.477  1.00  0.00    -0.281 NA
HETATM   25  C   UNL     1       3.948  28.678  55.270  1.00  0.00     0.114 C 
HETATM   26  H   UNL     1       3.493  28.085  57.190  1.00  0.00     0.128 HD
ENDBRANCH   1  24
TORSDOF 4
ENDMDL
MODEL 10
REMARK VINA RESULT:      -8.4      1.811      3.151
REMARK  4 active torsions:
REMARK  status: ('A' for Active; 'I' for Inactive)
REMARK    1  A    between atoms: N_2  and  C_3 
REMARK    2  A    between atoms: C_5  and  C_6 
REMARK    3  A    between atoms: C_6  and  C_7 
REMARK    4  A    between atoms: C_14  and  O_15 
ROOT
HETATM    1  C   UNL     1       8.359  29.035  56.506  1.00  0.00     0.113 A 
HETATM    2  N   UNL     1       8.151  28.438  55.316  1.00  0.00    -0.223 NA
HETATM    3  C   UNL     1       6.946  28.594  54.706  1.00  0.00     0.106 A 
HETATM    4  N   UNL     1       5.943  29.314  55.234  1.00  0.00    -0.347 N 
HETATM    5  H   UNL     1       5.052  29.395  54.752  1.00  0.00     0.167 HD
HETATM    6  C   UNL     1       6.153  29.922  56.398  1.00  0.00     0.020 A 
HETATM    7  C   UNL     1       7.364  29.809  57.059  1.00  0.00     0.005 A 
HETATM    8  C   UNL     1       7.335  30.582  58.338  1.00  0.00     0.044 C 
HETATM    9  C   UNL     1       6.124  31.504  58.106  1.00  0.00     0.011 C 
HETATM   10  C   UNL     1       5.173  30.762  57.153  1.00  0.00     0.058 C 
ENDROOT
BRANCH   3  11
HETATM   11  C   UNL     1       6.732  27.900  53.390  1.00  0.00     0.085 C 
BRANCH  11  12
HETATM   12  C   UNL     1       7.371  26.507  53.340  1.00  0.00     0.021 C 
HETATM   13  C   UNL     1       7.016  25.721  52.074  1.00  0.00     0.181 C 
HETATM   14  O   UNL     1       7.761  24.504  52.003  1.00  0.00    -0.350 OA
HETATM   15  C   UNL     1       7.682  23.728  53.131  1.00  0.00     0.077 A 
HETATM   16  C   UNL     1       7.297  24.231  54.377  1.00  0.00    -0.024 A 
HETATM   17  C   UNL     1       8.050  22.387  52.982  1.00  0.00     0.074 A 
HETATM   18  C   UNL     1       6.914  25.673  54.544  1.00  0.00     0.048 C 
HETATM   19  C   UNL     1       7.238  23.361  55.470  1.00  0.00     0.012 A 
HETATM   20  C   UNL     1       7.588  22.018  55.316  1.00  0.00     0.037 A 
HETATM   21  C   UNL     1       7.999  21.524  54.076  1.00  0.00     0.070 A 
BRANCH  21  22
HETATM   22  O   UNL     1       8.317  20.195  54.069  1.00  0.00    -0.356 OA
HETATM   23  C   UNL     1       8.855  19.652  55.269  1.00  0.00     0.210 C 
ENDBRANCH  21  22
ENDBRANCH  11  12
ENDBRANCH   3  11
BRANCH   1  24
HETATM   24  N   UNL     1       9.598  28.952  57.132  1.00  0.00    -0.281 NA
HETATM   25  C   UNL     1      10.678  29.723  56.532  1.00  0.00     0.114 C 
HETATM   26  H   UNL     1       9.876  27.989  57.303  1.00  0.00     0.128 HD
ENDBRANCH   1  24
TORSDOF 4
ENDMDL
