MODEL 1
REMARK VINA RESULT:      -8.7      0.000      0.000
REMARK  5 active torsions:
REMARK  status: ('A' for Active; 'I' for Inactive)
REMARK    1  A    between atoms: C_2  and  O_3 
REMARK    2  A    between atoms: C_2  and  C_4 
REMARK    3  A    between atoms: C_7  and  N_8 
REMARK    4  A    between atoms: N_12  and  C_13 
REMARK    5  A    between atoms: C_13  and  C_14 
ROOT
HETATM    1  N   UNL     1       6.887  24.647  53.577  1.00  0.00    -0.367 N 
HETATM    2  C   UNL     1       5.422  24.791  53.704  1.00  0.00     0.127 C 
HETATM    3  C   UNL     1       4.834  25.640  52.587  1.00  0.00     0.057 C 
HETATM    4  C   UNL     1       5.476  27.038  52.422  1.00  0.00     0.075 C 
HETATM    5  N   UNL     1       5.069  28.081  53.440  1.00  0.00    -0.398 N 
HETATM    6  C   UNL     1       3.615  28.396  53.435  1.00  0.00     0.124 C 
HETATM    7  C   UNL     1       3.154  29.059  52.113  1.00  0.00     0.078 C 
HETATM    8  C   UNL     1       3.894  28.474  50.986  1.00  0.00     0.037 A 
HETATM    9  C   UNL     1       4.951  27.593  51.093  1.00  0.00     0.061 A 
HETATM   10  N   UNL     1       5.342  27.323  49.789  1.00  0.00    -0.352 N 
HETATM   11  H   UNL     1       6.091  26.699  49.500  1.00  0.00     0.166 HD
HETATM   12  C   UNL     1       4.601  28.025  48.920  1.00  0.00     0.181 A 
HETATM   13  N   UNL     1       3.713  28.715  49.640  1.00  0.00    -0.354 N 
HETATM   14  H   UNL     1       3.018  29.345  49.243  1.00  0.00     0.166 HD
HETATM   15  C   UNL     1       7.004  26.815  52.300  1.00  0.00     0.057 C 
HETATM   16  C   UNL     1       7.637  25.894  53.348  1.00  0.00     0.127 C 
ENDROOT
BRANCH   5  17
HETATM   17  C   UNL     1       5.678  28.052  54.772  1.00  0.00     0.122 C 
BRANCH  17  18
HETATM   18  C   UNL     1       4.745  27.939  56.005  1.00  0.00    -0.005 C 
HETATM   19  C   UNL     1       5.100  26.674  56.796  1.00  0.00     0.011 C 
HETATM   20  C   UNL     1       4.844  29.160  56.922  1.00  0.00     0.011 C 
ENDBRANCH  17  18
ENDBRANCH   5  17
BRANCH   1  21
HETATM   21  C   UNL     1       7.460  23.737  54.497  1.00  0.00     0.103 A 
HETATM   22  N   UNL     1       7.958  22.555  54.095  1.00  0.00    -0.344 N 
HETATM   23  C   UNL     1       8.565  21.652  54.889  1.00  0.00     0.039 A 
HETATM   24  H   UNL     1       7.901  22.248  53.123  1.00  0.00     0.167 HD
HETATM   25  C   UNL     1       8.678  21.896  56.249  1.00  0.00     0.028 A 
HETATM   26  C   UNL     1       8.142  23.070  56.752  1.00  0.00     0.006 A 
HETATM   27  C   UNL     1       7.529  23.981  55.887  1.00  0.00     0.048 A 
BRANCH  23  28
HETATM   28  C   UNL     1       9.081  20.429  54.186  1.00  0.00     0.163 C 
HETATM   29  C   UNL     1       8.416  20.209  52.836  1.00  0.00     0.046 C 
BRANCH  28  30
HETATM   30  O   UNL     1       8.738  19.329  55.052  1.00  0.00    -0.390 OA
HETATM   31  H   UNL     1       9.087  19.563  55.939  1.00  0.00     0.210 HD
ENDBRANCH  28  30
ENDBRANCH  23  28
ENDBRANCH   1  21
TORSDOF 5
ENDMDL
MODEL 2
REMARK VINA RESULT:      -8.6      2.447      4.878
REMARK  5 active torsions:
REMARK  status: ('A' for Active; 'I' for Inactive)
REMARK    1  A    between atoms: C_2  and  O_3 
REMARK    2  A    between atoms: C_2  and  C_4 
REMARK    3  A    between atoms: C_7  and  N_8 
REMARK    4  A    between atoms: N_12  and  C_13 
REMARK    5  A    between atoms: C_13  and  C_14 
ROOT
HETATM    1  N   UNL     1       7.622  25.415  55.487  1.00  0.00    -0.367 N 
HETATM    2  C   UNL     1       7.786  26.664  54.716  1.00  0.00     0.127 C 
HETATM    3  C   UNL     1       7.811  27.890  55.616  1.00  0.00     0.057 C 
HETATM    4  C   UNL     1       6.598  28.027  56.567  1.00  0.00     0.075 C 
HETATM    5  N   UNL     1       5.308  28.506  55.937  1.00  0.00    -0.398 N 
HETATM    6  C   UNL     1       5.397  29.865  55.337  1.00  0.00     0.124 C 
HETATM    7  C   UNL     1       5.652  30.968  56.395  1.00  0.00     0.078 C 
HETATM    8  C   UNL     1       6.543  30.447  57.441  1.00  0.00     0.037 A 
HETATM    9  C   UNL     1       6.960  29.137  57.561  1.00  0.00     0.061 A 
HETATM   10  N   UNL     1       7.768  29.105  58.688  1.00  0.00    -0.352 N 
HETATM   11  H   UNL     1       8.253  28.294  59.062  1.00  0.00     0.166 HD
HETATM   12  C   UNL     1       7.821  30.316  59.264  1.00  0.00     0.181 A 
HETATM   13  N   UNL     1       7.090  31.136  58.505  1.00  0.00    -0.354 N 
HETATM   14  H   UNL     1       6.945  32.125  58.703  1.00  0.00     0.166 HD
HETATM   15  C   UNL     1       6.482  26.688  57.337  1.00  0.00     0.057 C 
HETATM   16  C   UNL     1       6.542  25.415  56.488  1.00  0.00     0.127 C 
ENDROOT
BRANCH   5  17
HETATM   17  C   UNL     1       4.493  27.558  55.172  1.00  0.00     0.122 C 
BRANCH  17  18
HETATM   18  C   UNL     1       4.604  27.575  53.626  1.00  0.00    -0.005 C 
HETATM   19  C   UNL     1       4.716  26.134  53.110  1.00  0.00     0.011 C 
HETATM   20  C   UNL     1       3.406  28.262  52.967  1.00  0.00     0.011 C 
ENDBRANCH  17  18
ENDBRANCH   5  17
BRANCH   1  21
HETATM   21  C   UNL     1       7.753  24.237  54.713  1.00  0.00     0.103 A 
HETATM   22  N   UNL     1       7.806  23.023  55.288  1.00  0.00    -0.344 N 
HETATM   23  C   UNL     1       7.878  21.849  54.632  1.00  0.00     0.039 A 
HETATM   24  H   UNL     1       7.800  22.906  56.303  1.00  0.00     0.167 HD
HETATM   25  C   UNL     1       7.946  21.837  53.248  1.00  0.00     0.028 A 
HETATM   26  C   UNL     1       7.952  23.051  52.580  1.00  0.00     0.006 A 
HETATM   27  C   UNL     1       7.865  24.243  53.305  1.00  0.00     0.048 A 
BRANCH  23  28
HETATM   28  C   UNL     1       7.872  20.628  55.506  1.00  0.00     0.163 C 
HETATM   29  C   UNL     1       8.440  20.900  56.890  1.00  0.00     0.046 C 
BRANCH  28  30
HETATM   30  O   UNL     1       8.731  19.685  54.834  1.00  0.00    -0.390 OA
HETATM   31  H   UNL     1       8.491  18.800  55.187  1.00  0.00     0.210 HD
ENDBRANCH  28  30
ENDBRANCH  23  28
ENDBRANCH   1  21
TORSDOF 5
ENDMDL
MODEL 3
REMARK VINA RESULT:      -8.6      2.640      6.948
REMARK  5 active torsions:
REMARK  status: ('A' for Active; 'I' for Inactive)
REMARK    1  A    between atoms: C_2  and  O_3 
REMARK    2  A    between atoms: C_2  and  C_4 
REMARK    3  A    between atoms: C_7  and  N_8 
REMARK    4  A    between atoms: N_12  and  C_13 
REMARK    5  A    between atoms: C_13  and  C_14 
ROOT
HETATM    1  N   UNL     1       6.161  26.058  52.014  1.00  0.00    -0.367 N 
HETATM    2  C   UNL     1       7.434  26.339  52.707  1.00  0.00     0.127 C 
HETATM    3  C   UNL     1       7.942  25.130  53.478  1.00  0.00     0.057 C 
HETATM    4  C   UNL     1       6.933  24.524  54.482  1.00  0.00     0.075 C 
HETATM    5  N   UNL     1       6.747  25.283  55.779  1.00  0.00    -0.398 N 
HETATM    6  C   UNL     1       7.984  25.392  56.598  1.00  0.00     0.124 C 
HETATM    7  C   UNL     1       8.480  24.018  57.113  1.00  0.00     0.078 C 
HETATM    8  C   UNL     1       8.234  22.992  56.090  1.00  0.00     0.037 A 
HETATM    9  C   UNL     1       7.524  23.180  54.921  1.00  0.00     0.061 A 
HETATM   10  N   UNL     1       7.536  21.951  54.278  1.00  0.00    -0.352 N 
HETATM   11  H   UNL     1       7.112  21.734  53.380  1.00  0.00     0.166 HD
HETATM   12  C   UNL     1       8.179  21.037  55.020  1.00  0.00     0.181 A 
HETATM   13  N   UNL     1       8.615  21.667  56.114  1.00  0.00    -0.354 N 
HETATM   14  H   UNL     1       9.137  21.217  56.865  1.00  0.00     0.166 HD
HETATM   15  C   UNL     1       5.625  24.260  53.695  1.00  0.00     0.057 C 
HETATM   16  C   UNL     1       5.115  25.415  52.829  1.00  0.00     0.127 C 
ENDROOT
BRANCH   5  17
HETATM   17  C   UNL     1       5.906  26.483  55.788  1.00  0.00     0.122 C 
BRANCH  17  18
HETATM   18  C   UNL     1       6.483  27.780  56.410  1.00  0.00    -0.005 C 
HETATM   19  C   UNL     1       6.944  28.720  55.289  1.00  0.00     0.011 C 
HETATM   20  C   UNL     1       5.464  28.501  57.295  1.00  0.00     0.011 C 
ENDBRANCH  17  18
ENDBRANCH   5  17
BRANCH   1  21
HETATM   21  C   UNL     1       5.728  27.096  51.155  1.00  0.00     0.103 A 
HETATM   22  N   UNL     1       5.418  26.858  49.869  1.00  0.00    -0.344 N 
HETATM   23  C   UNL     1       4.952  27.770  48.995  1.00  0.00     0.039 A 
HETATM   24  H   UNL     1       5.525  25.932  49.451  1.00  0.00     0.167 HD
HETATM   25  C   UNL     1       4.797  29.089  49.393  1.00  0.00     0.028 A 
HETATM   26  C   UNL     1       5.147  29.429  50.690  1.00  0.00     0.006 A 
HETATM   27  C   UNL     1       5.617  28.444  51.563  1.00  0.00     0.048 A 
BRANCH  23  28
HETATM   28  C   UNL     1       4.631  27.239  47.628  1.00  0.00     0.163 C 
HETATM   29  C   UNL     1       3.745  26.004  47.675  1.00  0.00     0.046 C 
BRANCH  28  30
HETATM   30  O   UNL     1       5.905  26.867  47.064  1.00  0.00    -0.390 OA
HETATM   31  H   UNL     1       5.845  25.907  46.866  1.00  0.00     0.210 HD
ENDBRANCH  28  30
ENDBRANCH  23  28
ENDBRANCH   1  21
TORSDOF 5
ENDMDL
MODEL 4
REMARK VINA RESULT:      -8.6      2.931      7.147
REMARK  5 active torsions:
REMARK  status: ('A' for Active; 'I' for Inactive)
REMARK    1  A    between atoms: C_2  and  O_3 
REMARK    2  A    between atoms: C_2  and  C_4 
REMARK    3  A    between atoms: C_7  and  N_8 
REMARK    4  A    between atoms: N_12  and  C_13 
REMARK    5  A    between atoms: C_13  and  C_14 
ROOT
HETATM    1  N   UNL     1       4.410  28.344  51.981  1.00  0.00    -0.367 N 
HETATM    2  C   UNL     1       3.747  27.937  53.237  1.00  0.00     0.127 C 
HETATM    3  C   UNL     1       4.639  28.159  54.449  1.00  0.00     0.057 C 
HETATM    4  C   UNL     1       6.034  27.495  54.365  1.00  0.00     0.075 C 
HETATM    5  N   UNL     1       6.074  26.000  54.599  1.00  0.00    -0.398 N 
HETATM    6  C   UNL     1       5.606  25.586  55.949  1.00  0.00     0.124 C 
HETATM    7  C   UNL     1       6.528  26.101  57.083  1.00  0.00     0.078 C 
HETATM    8  C   UNL     1       7.032  27.438  56.737  1.00  0.00     0.037 A 
HETATM    9  C   UNL     1       6.852  28.074  55.525  1.00  0.00     0.061 A 
HETATM   10  N   UNL     1       7.502  29.293  55.645  1.00  0.00    -0.352 N 
HETATM   11  H   UNL     1       7.560  30.019  54.937  1.00  0.00     0.166 HD
HETATM   12  C   UNL     1       8.090  29.397  56.846  1.00  0.00     0.181 A 
HETATM   13  N   UNL     1       7.797  28.280  57.516  1.00  0.00    -0.354 N 
HETATM   14  H   UNL     1       8.117  28.078  58.463  1.00  0.00     0.166 HD
HETATM   15  C   UNL     1       6.668  27.957  53.029  1.00  0.00     0.057 C 
HETATM   16  C   UNL     1       5.781  27.840  51.786  1.00  0.00     0.127 C 
ENDROOT
BRANCH   5  17
HETATM   17  C   UNL     1       5.673  25.098  53.516  1.00  0.00     0.122 C 
BRANCH  17  18
HETATM   18  C   UNL     1       6.699  24.048  53.016  1.00  0.00    -0.005 C 
HETATM   19  C   UNL     1       7.836  24.761  52.274  1.00  0.00     0.011 C 
HETATM   20  C   UNL     1       7.279  23.214  54.161  1.00  0.00     0.011 C 
ENDBRANCH  17  18
ENDBRANCH   5  17
BRANCH   1  21
HETATM   21  C   UNL     1       3.567  28.308  50.845  1.00  0.00     0.103 A 
HETATM   22  N   UNL     1       3.849  27.527  49.787  1.00  0.00    -0.344 N 
HETATM   23  C   UNL     1       3.081  27.391  48.689  1.00  0.00     0.039 A 
HETATM   24  H   UNL     1       4.702  26.967  49.743  1.00  0.00     0.167 HD
HETATM   25  C   UNL     1       1.911  28.124  48.571  1.00  0.00     0.028 A 
HETATM   26  C   UNL     1       1.575  28.995  49.596  1.00  0.00     0.006 A 
HETATM   27  C   UNL     1       2.399  29.094  50.720  1.00  0.00     0.048 A 
BRANCH  23  28
HETATM   28  C   UNL     1       3.594  26.415  47.670  1.00  0.00     0.163 C 
HETATM   29  C   UNL     1       3.155  24.987  47.957  1.00  0.00     0.046 C 
BRANCH  28  30
HETATM   30  O   UNL     1       5.030  26.484  47.776  1.00  0.00    -0.390 OA
HETATM   31  H   UNL     1       5.381  25.789  47.178  1.00  0.00     0.210 HD
ENDBRANCH  28  30
ENDBRANCH  23  28
ENDBRANCH   1  21
TORSDOF 5
ENDMDL
MODEL 5
REMARK VINA RESULT:      -8.5      2.710      4.037
REMARK  5 active torsions:
REMARK  status: ('A' for Active; 'I' for Inactive)
REMARK    1  A    between atoms: C_2  and  O_3 
REMARK    2  A    between atoms: C_2  and  C_4 
REMARK    3  A    between atoms: C_7  and  N_8 
REMARK    4  A    between atoms: N_12  and  C_13 
REMARK    5  A    between atoms: C_13  and  C_14 
ROOT
HETATM    1  N   UNL     1       6.783  25.831  54.225  1.00  0.00    -0.367 N 
HETATM    2  C   UNL     1       5.962  26.025  55.438  1.00  0.00     0.127 C 
HETATM    3  C   UNL     1       5.277  27.384  55.451  1.00  0.00     0.057 C 
HETATM    4  C   UNL     1       6.224  28.594  55.270  1.00  0.00     0.075 C 
HETATM    5  N   UNL     1       7.042  28.986  56.482  1.00  0.00    -0.398 N 
HETATM    6  C   UNL     1       6.225  29.394  57.657  1.00  0.00     0.124 C 
HETATM    7  C   UNL     1       5.416  30.689  57.399  1.00  0.00     0.078 C 
HETATM    8  C   UNL     1       4.956  30.711  56.003  1.00  0.00     0.037 A 
HETATM    9  C   UNL     1       5.321  29.808  55.024  1.00  0.00     0.061 A 
HETATM   10  N   UNL     1       4.666  30.222  53.874  1.00  0.00    -0.352 N 
HETATM   11  H   UNL     1       4.703  29.774  52.963  1.00  0.00     0.166 HD
HETATM   12  C   UNL     1       3.965  31.342  54.108  1.00  0.00     0.181 A 
HETATM   13  N   UNL     1       4.128  31.635  55.400  1.00  0.00    -0.354 N 
HETATM   14  H   UNL     1       3.712  32.443  55.862  1.00  0.00     0.166 HD
HETATM   15  C   UNL     1       7.055  28.324  53.991  1.00  0.00     0.057 C 
HETATM   16  C   UNL     1       7.694  26.937  53.882  1.00  0.00     0.127 C 
ENDROOT
BRANCH   5  17
HETATM   17  C   UNL     1       8.238  28.208  56.816  1.00  0.00     0.122 C 
BRANCH  17  18
HETATM   18  C   UNL     1       9.579  28.965  57.001  1.00  0.00    -0.005 C 
HETATM   19  C   UNL     1       9.995  29.593  55.665  1.00  0.00     0.011 C 
HETATM   20  C   UNL     1       9.486  30.055  58.072  1.00  0.00     0.011 C 
ENDBRANCH  17  18
ENDBRANCH   5  17
BRANCH   1  21
HETATM   21  C   UNL     1       7.311  24.525  54.088  1.00  0.00     0.103 A 
HETATM   22  N   UNL     1       7.802  23.853  55.143  1.00  0.00    -0.344 N 
HETATM   23  C   UNL     1       8.276  22.593  55.116  1.00  0.00     0.039 A 
HETATM   24  H   UNL     1       7.856  24.274  56.072  1.00  0.00     0.167 HD
HETATM   25  C   UNL     1       8.319  21.899  53.917  1.00  0.00     0.028 A 
HETATM   26  C   UNL     1       7.880  22.540  52.771  1.00  0.00     0.006 A 
HETATM   27  C   UNL     1       7.388  23.846  52.851  1.00  0.00     0.048 A 
BRANCH  23  28
HETATM   28  C   UNL     1       8.721  22.050  56.444  1.00  0.00     0.163 C 
HETATM   29  C   UNL     1       8.191  20.650  56.708  1.00  0.00     0.046 C 
BRANCH  28  30
HETATM   30  O   UNL     1       8.157  22.947  57.421  1.00  0.00    -0.390 OA
HETATM   31  H   UNL     1       8.918  23.328  57.911  1.00  0.00     0.210 HD
ENDBRANCH  28  30
ENDBRANCH  23  28
ENDBRANCH   1  21
TORSDOF 5
ENDMDL
MODEL 6
REMARK VINA RESULT:      -8.3      1.823      2.521
REMARK  5 active torsions:
REMARK  status: ('A' for Active; 'I' for Inactive)
REMARK    1  A    between atoms: C_2  and  O_3 
REMARK    2  A    between atoms: C_2  and  C_4 
REMARK    3  A    between atoms: C_7  and  N_8 
REMARK    4  A    between atoms: N_12  and  C_13 
REMARK    5  A    between atoms: C_13  and  C_14 
ROOT
HETATM    1  N   UNL     1       6.399  24.622  53.130  1.00  0.00    -0.367 N 
HETATM    2  C   UNL     1       5.556  25.205  54.193  1.00  0.00     0.127 C 
HETATM    3  C   UNL     1       4.619  26.275  53.653  1.00  0.00     0.057 C 
HETATM    4  C   UNL     1       5.310  27.411  52.862  1.00  0.00     0.075 C 
HETATM    5  N   UNL     1       6.034  28.452  53.688  1.00  0.00    -0.398 N 
HETATM    6  C   UNL     1       5.152  29.205  54.621  1.00  0.00     0.124 C 
HETATM    7  C   UNL     1       4.105  30.073  53.879  1.00  0.00     0.078 C 
HETATM    8  C   UNL     1       3.651  29.370  52.671  1.00  0.00     0.037 A 
HETATM    9  C   UNL     1       4.187  28.198  52.177  1.00  0.00     0.061 A 
HETATM   10  N   UNL     1       3.463  27.915  51.027  1.00  0.00    -0.352 N 
HETATM   11  H   UNL     1       3.588  27.112  50.417  1.00  0.00     0.166 HD
HETATM   12  C   UNL     1       2.556  28.875  50.793  1.00  0.00     0.181 A 
HETATM   13  N   UNL     1       2.659  29.753  51.794  1.00  0.00    -0.354 N 
HETATM   14  H   UNL     1       2.092  30.596  51.877  1.00  0.00     0.166 HD
HETATM   15  C   UNL     1       6.178  26.732  51.773  1.00  0.00     0.057 C 
HETATM   16  C   UNL     1       7.077  25.585  52.245  1.00  0.00     0.127 C 
ENDROOT
BRANCH   5  17
HETATM   17  C   UNL     1       7.360  28.137  54.228  1.00  0.00     0.122 C 
BRANCH  17  18
HETATM   18  C   UNL     1       7.629  28.424  55.728  1.00  0.00    -0.005 C 
HETATM   19  C   UNL     1       7.753  27.096  56.485  1.00  0.00     0.011 C 
HETATM   20  C   UNL     1       8.897  29.254  55.940  1.00  0.00     0.011 C 
ENDBRANCH  17  18
ENDBRANCH   5  17
BRANCH   1  21
HETATM   21  C   UNL     1       7.173  23.513  53.550  1.00  0.00     0.103 A 
HETATM   22  N   UNL     1       7.604  23.399  54.818  1.00  0.00    -0.344 N 
HETATM   23  C   UNL     1       8.299  22.359  55.317  1.00  0.00     0.039 A 
HETATM   24  H   UNL     1       7.430  24.126  55.514  1.00  0.00     0.167 HD
HETATM   25  C   UNL     1       8.661  21.310  54.487  1.00  0.00     0.028 A 
HETATM   26  C   UNL     1       8.302  21.376  53.150  1.00  0.00     0.006 A 
HETATM   27  C   UNL     1       7.571  22.472  52.681  1.00  0.00     0.048 A 
BRANCH  23  28
HETATM   28  C   UNL     1       8.617  22.449  56.782  1.00  0.00     0.163 C 
HETATM   29  C   UNL     1       8.235  21.187  57.539  1.00  0.00     0.046 C 
BRANCH  28  30
HETATM   30  O   UNL     1       7.812  23.540  57.272  1.00  0.00    -0.390 OA
HETATM   31  H   UNL     1       6.901  23.185  57.365  1.00  0.00     0.210 HD
ENDBRANCH  28  30
ENDBRANCH  23  28
ENDBRANCH   1  21
TORSDOF 5
ENDMDL
MODEL 7
REMARK VINA RESULT:      -8.1      3.667      7.214
REMARK  5 active torsions:
REMARK  status: ('A' for Active; 'I' for Inactive)
REMARK    1  A    between atoms: C_2  and  O_3 
REMARK    2  A    between atoms: C_2  and  C_4 
REMARK    3  A    between atoms: C_7  and  N_8 
REMARK    4  A    between atoms: N_12  and  C_13 
REMARK    5  A    between atoms: C_13  and  C_14 
ROOT
HETATM    1  N   UNL     1       6.785  28.805  56.939  1.00  0.00    -0.367 N 
HETATM    2  C   UNL     1       5.561  27.992  56.792  1.00  0.00     0.127 C 
HETATM    3  C   UNL     1       5.837  26.669  56.094  1.00  0.00     0.057 C 
HETATM    4  C   UNL     1       6.544  26.788  54.723  1.00  0.00     0.075 C 
HETATM    5  N   UNL     1       5.676  27.228  53.563  1.00  0.00    -0.398 N 
HETATM    6  C   UNL     1       4.553  26.300  53.262  1.00  0.00     0.124 C 
HETATM    7  C   UNL     1       5.041  24.913  52.774  1.00  0.00     0.078 C 
HETATM    8  C   UNL     1       6.270  24.545  53.490  1.00  0.00     0.037 A 
HETATM    9  C   UNL     1       6.978  25.368  54.343  1.00  0.00     0.061 A 
HETATM   10  N   UNL     1       8.061  24.615  54.772  1.00  0.00    -0.352 N 
HETATM   11  H   UNL     1       8.785  24.912  55.421  1.00  0.00     0.166 HD
HETATM   12  C   UNL     1       8.055  23.406  54.190  1.00  0.00     0.181 A 
HETATM   13  N   UNL     1       6.964  23.355  53.421  1.00  0.00    -0.354 N 
HETATM   14  H   UNL     1       6.701  22.552  52.851  1.00  0.00     0.166 HD
HETATM   15  C   UNL     1       7.809  27.653  54.947  1.00  0.00     0.057 C 
HETATM   16  C   UNL     1       7.606  28.957  55.725  1.00  0.00     0.127 C 
ENDROOT
BRANCH   5  17
HETATM   17  C   UNL     1       5.344  28.648  53.420  1.00  0.00     0.122 C 
BRANCH  17  18
HETATM   18  C   UNL     1       3.852  29.064  53.482  1.00  0.00    -0.005 C 
HETATM   19  C   UNL     1       3.693  30.240  54.454  1.00  0.00     0.011 C 
HETATM   20  C   UNL     1       3.302  29.456  52.110  1.00  0.00     0.011 C 
ENDBRANCH  17  18
ENDBRANCH   5  17
BRANCH   1  21
HETATM   21  C   UNL     1       6.613  29.972  57.722  1.00  0.00     0.103 A 
HETATM   22  N   UNL     1       7.349  30.190  58.826  1.00  0.00    -0.344 N 
HETATM   23  C   UNL     1       7.290  31.290  59.600  1.00  0.00     0.039 A 
HETATM   24  H   UNL     1       8.025  29.505  59.167  1.00  0.00     0.167 HD
HETATM   25  C   UNL     1       6.384  32.295  59.301  1.00  0.00     0.028 A 
HETATM   26  C   UNL     1       5.550  32.124  58.208  1.00  0.00     0.006 A 
HETATM   27  C   UNL     1       5.655  30.968  57.429  1.00  0.00     0.048 A 
BRANCH  23  28
HETATM   28  C   UNL     1       8.255  31.313  60.751  1.00  0.00     0.163 C 
HETATM   29  C   UNL     1       9.491  32.148  60.457  1.00  0.00     0.046 C 
BRANCH  28  30
HETATM   30  O   UNL     1       8.660  29.940  60.925  1.00  0.00    -0.390 OA
HETATM   31  H   UNL     1       8.566  29.515  60.045  1.00  0.00     0.210 HD
ENDBRANCH  28  30
ENDBRANCH  23  28
ENDBRANCH   1  21
TORSDOF 5
ENDMDL
MODEL 8
REMARK VINA RESULT:      -8.0      3.334      7.468
REMARK  5 active torsions:
REMARK  status: ('A' for Active; 'I' for Inactive)
REMARK    1  A    between atoms: C_2  and  O_3 
REMARK    2  A    between atoms: C_2  and  C_4 
REMARK    3  A    between atoms: C_7  and  N_8 
REMARK    4  A    between atoms: N_12  and  C_13 
REMARK    5  A    between atoms: C_13  and  C_14 
ROOT
HETATM    1  N   UNL     1       5.236  27.581  52.134  1.00  0.00    -0.367 N 
HETATM    2  C   UNL     1       4.427  27.369  53.352  1.00  0.00     0.127 C 
HETATM    3  C   UNL     1       5.189  27.747  54.614  1.00  0.00     0.057 C 
HETATM    4  C   UNL     1       6.562  27.054  54.781  1.00  0.00     0.075 C 
HETATM    5  N   UNL     1       6.527  25.607  55.225  1.00  0.00    -0.398 N 
HETATM    6  C   UNL     1       5.902  25.399  56.559  1.00  0.00     0.124 C 
HETATM    7  C   UNL     1       6.712  26.055  57.705  1.00  0.00     0.078 C 
HETATM    8  C   UNL     1       7.293  27.320  57.234  1.00  0.00     0.037 A 
HETATM    9  C   UNL     1       7.268  27.779  55.932  1.00  0.00     0.061 A 
HETATM   10  N   UNL     1       7.941  28.991  55.952  1.00  0.00    -0.352 N 
HETATM   11  H   UNL     1       8.099  29.608  55.160  1.00  0.00     0.166 HD
HETATM   12  C   UNL     1       8.398  29.256  57.185  1.00  0.00     0.181 A 
HETATM   13  N   UNL     1       7.997  28.252  57.969  1.00  0.00    -0.354 N 
HETATM   14  H   UNL     1       8.206  28.182  58.964  1.00  0.00     0.166 HD
HETATM   15  C   UNL     1       7.352  27.309  53.473  1.00  0.00     0.057 C 
HETATM   16  C   UNL     1       6.602  27.031  52.167  1.00  0.00     0.127 C 
ENDROOT
BRANCH   5  17
HETATM   17  C   UNL     1       6.217  24.567  54.241  1.00  0.00     0.122 C 
BRANCH  17  18
HETATM   18  C   UNL     1       7.265  23.450  53.998  1.00  0.00    -0.005 C 
HETATM   19  C   UNL     1       7.803  23.563  52.566  1.00  0.00     0.011 C 
HETATM   20  C   UNL     1       8.428  23.520  54.989  1.00  0.00     0.011 C 
ENDBRANCH  17  18
ENDBRANCH   5  17
BRANCH   1  21
HETATM   21  C   UNL     1       4.521  27.397  50.927  1.00  0.00     0.103 A 
HETATM   22  N   UNL     1       3.438  28.138  50.633  1.00  0.00    -0.344 N 
HETATM   23  C   UNL     1       2.729  28.068  49.491  1.00  0.00     0.039 A 
HETATM   24  H   UNL     1       3.064  28.828  51.287  1.00  0.00     0.167 HD
HETATM   25  C   UNL     1       3.078  27.143  48.519  1.00  0.00     0.028 A 
HETATM   26  C   UNL     1       4.151  26.302  48.767  1.00  0.00     0.006 A 
HETATM   27  C   UNL     1       4.863  26.420  49.964  1.00  0.00     0.048 A 
BRANCH  23  28
HETATM   28  C   UNL     1       1.591  29.042  49.385  1.00  0.00     0.163 C 
HETATM   29  C   UNL     1       2.015  30.368  48.772  1.00  0.00     0.046 C 
BRANCH  28  30
HETATM   30  O   UNL     1       1.175  29.278  50.745  1.00  0.00    -0.390 OA
HETATM   31  H   UNL     1       1.025  28.391  51.141  1.00  0.00     0.210 HD
ENDBRANCH  28  30
ENDBRANCH  23  28
ENDBRANCH   1  21
TORSDOF 5
ENDMDL
MODEL 9
REMARK VINA RESULT:      -8.0      2.028      4.208
REMARK  5 active torsions:
REMARK  status: ('A' for Active; 'I' for Inactive)
REMARK    1  A    between atoms: C_2  and  O_3 
REMARK    2  A    between atoms: C_2  and  C_4 
REMARK    3  A    between atoms: C_7  and  N_8 
REMARK    4  A    between atoms: N_12  and  C_13 
REMARK    5  A    between atoms: C_13  and  C_14 
ROOT
HETATM    1  N   UNL     1       6.354  25.785  53.736  1.00  0.00    -0.367 N 
HETATM    2  C   UNL     1       7.146  26.902  53.184  1.00  0.00     0.127 C 
HETATM    3  C   UNL     1       6.399  28.225  53.267  1.00  0.00     0.057 C 
HETATM    4  C   UNL     1       4.993  28.223  52.623  1.00  0.00     0.075 C 
HETATM    5  N   UNL     1       4.954  28.286  51.111  1.00  0.00    -0.398 N 
HETATM    6  C   UNL     1       5.562  29.519  50.541  1.00  0.00     0.124 C 
HETATM    7  C   UNL     1       4.781  30.800  50.925  1.00  0.00     0.078 C 
HETATM    8  C   UNL     1       4.265  30.670  52.295  1.00  0.00     0.037 A 
HETATM    9  C   UNL     1       4.319  29.526  53.066  1.00  0.00     0.061 A 
HETATM   10  N   UNL     1       3.706  29.858  54.265  1.00  0.00    -0.352 N 
HETATM   11  H   UNL     1       3.582  29.249  55.069  1.00  0.00     0.166 HD
HETATM   12  C   UNL     1       3.258  31.122  54.232  1.00  0.00     0.181 A 
HETATM   13  N   UNL     1       3.605  31.622  53.043  1.00  0.00    -0.354 N 
HETATM   14  H   UNL     1       3.389  32.569  52.735  1.00  0.00     0.166 HD
HETATM   15  C   UNL     1       4.222  27.029  53.239  1.00  0.00     0.057 C 
HETATM   16  C   UNL     1       4.962  25.688  53.264  1.00  0.00     0.127 C 
ENDROOT
BRANCH   5  17
HETATM   17  C   UNL     1       5.216  27.069  50.339  1.00  0.00     0.122 C 
BRANCH  17  18
HETATM   18  C   UNL     1       4.241  26.701  49.191  1.00  0.00    -0.005 C 
HETATM   19  C   UNL     1       3.046  27.664  49.212  1.00  0.00     0.011 C 
HETATM   20  C   UNL     1       4.915  26.754  47.819  1.00  0.00     0.011 C 
ENDBRANCH  17  18
ENDBRANCH   5  17
BRANCH   1  21
HETATM   21  C   UNL     1       7.065  24.564  53.829  1.00  0.00     0.103 A 
HETATM   22  N   UNL     1       7.564  24.131  55.000  1.00  0.00    -0.344 N 
HETATM   23  C   UNL     1       8.207  22.963  55.191  1.00  0.00     0.039 A 
HETATM   24  H   UNL     1       7.491  24.684  55.855  1.00  0.00     0.167 HD
HETATM   25  C   UNL     1       8.433  22.116  54.117  1.00  0.00     0.028 A 
HETATM   26  C   UNL     1       7.996  22.514  52.864  1.00  0.00     0.006 A 
HETATM   27  C   UNL     1       7.325  23.732  52.717  1.00  0.00     0.048 A 
BRANCH  23  28
HETATM   28  C   UNL     1       8.622  22.689  56.608  1.00  0.00     0.163 C 
HETATM   29  C   UNL     1       8.280  21.275  57.053  1.00  0.00     0.046 C 
BRANCH  28  30
HETATM   30  O   UNL     1       7.862  23.618  57.406  1.00  0.00    -0.390 OA
HETATM   31  H   UNL     1       8.101  24.513  57.082  1.00  0.00     0.210 HD
ENDBRANCH  28  30
ENDBRANCH  23  28
ENDBRANCH   1  21
TORSDOF 5
ENDMDL
MODEL 10
REMARK VINA RESULT:      -7.7      3.124      7.197
REMARK  5 active torsions:
REMARK  status: ('A' for Active; 'I' for Inactive)
REMARK    1  A    between atoms: C_2  and  O_3 
REMARK    2  A    between atoms: C_2  and  C_4 
REMARK    3  A    between atoms: C_7  and  N_8 
REMARK    4  A    between atoms: N_12  and  C_13 
REMARK    5  A    between atoms: C_13  and  C_14 
ROOT
HETATM    1  N   UNL     1       5.486  26.554  51.981  1.00  0.00    -0.367 N 
HETATM    2  C   UNL     1       6.426  27.529  52.570  1.00  0.00     0.127 C 
HETATM    3  C   UNL     1       7.239  26.921  53.704  1.00  0.00     0.057 C 
HETATM    4  C   UNL     1       6.404  26.267  54.829  1.00  0.00     0.075 C 
HETATM    5  N   UNL     1       5.739  27.216  55.803  1.00  0.00    -0.398 N 
HETATM    6  C   UNL     1       6.694  28.063  56.568  1.00  0.00     0.124 C 
HETATM    7  C   UNL     1       7.600  27.235  57.513  1.00  0.00     0.078 C 
HETATM    8  C   UNL     1       7.933  25.954  56.876  1.00  0.00     0.037 A 
HETATM    9  C   UNL     1       7.396  25.482  55.695  1.00  0.00     0.061 A 
HETATM   10  N   UNL     1       7.983  24.242  55.488  1.00  0.00    -0.352 N 
HETATM   11  H   UNL     1       7.821  23.620  54.701  1.00  0.00     0.166 HD
HETATM   12  C   UNL     1       8.809  23.938  56.501  1.00  0.00     0.181 A 
HETATM   13  N   UNL     1       8.791  24.977  57.339  1.00  0.00    -0.354 N 
HETATM   14  H   UNL     1       9.324  25.024  58.206  1.00  0.00     0.166 HD
HETATM   15  C   UNL     1       5.440  25.266  54.144  1.00  0.00     0.057 C 
HETATM   16  C   UNL     1       4.660  25.798  52.938  1.00  0.00     0.127 C 
ENDROOT
BRANCH   5  17
HETATM   17  C   UNL     1       4.507  27.901  55.403  1.00  0.00     0.122 C 
BRANCH  17  18
HETATM   18  C   UNL     1       4.530  29.447  55.289  1.00  0.00    -0.005 C 
HETATM   19  C   UNL     1       4.002  29.862  53.910  1.00  0.00     0.011 C 
HETATM   20  C   UNL     1       3.696  30.121  56.380  1.00  0.00     0.011 C 
ENDBRANCH  17  18
ENDBRANCH   5  17
BRANCH   1  21
HETATM   21  C   UNL     1       4.822  27.021  50.821  1.00  0.00     0.103 A 
HETATM   22  N   UNL     1       3.730  27.801  50.904  1.00  0.00    -0.344 N 
HETATM   23  C   UNL     1       3.067  28.331  49.859  1.00  0.00     0.039 A 
HETATM   24  H   UNL     1       3.311  28.048  51.802  1.00  0.00     0.167 HD
HETATM   25  C   UNL     1       3.479  28.048  48.566  1.00  0.00     0.028 A 
HETATM   26  C   UNL     1       4.566  27.207  48.392  1.00  0.00     0.006 A 
HETATM   27  C   UNL     1       5.228  26.689  49.509  1.00  0.00     0.048 A 
BRANCH  23  28
HETATM   28  C   UNL     1       1.905  29.212  50.221  1.00  0.00     0.163 C 
HETATM   29  C   UNL     1       2.337  30.623  50.587  1.00  0.00     0.046 C 
BRANCH  28  30
HETATM   30  O   UNL     1       1.318  28.595  51.384  1.00  0.00    -0.390 OA
HETATM   31  H   UNL     1       1.389  29.256  52.107  1.00  0.00     0.210 HD
ENDBRANCH  28  30
ENDBRANCH  23  28
ENDBRANCH   1  21
TORSDOF 5
ENDMDL
