MODEL 1
REMARK VINA RESULT:      -8.4      0.000      0.000
REMARK  6 active torsions:
REMARK  status: ('A' for Active; 'I' for Inactive)
REMARK    1  A    between atoms: C_3  and  O_4 
REMARK    2  A    between atoms: O_4  and  C_5 
REMARK    3  A    between atoms: C_13  and  N_14 
REMARK       I    between atoms: N_14  and  C_15 
REMARK       I    between atoms: C_15  and  N_16 
REMARK    4  A    between atoms: N_16  and  C_17 
REMARK    5  A    between atoms: C_17  and  C_18 
REMARK    6  A    between atoms: C_18  and  C_19 
ROOT
HETATM    1  N   UNL     1       5.741  26.569  51.452  1.00  0.00    -0.308 N 
HETATM    2  C   UNL     1       5.681  27.807  50.850  1.00  0.00     0.320 C 
HETATM    3  N   UNL     1       5.464  27.671  49.493  1.00  0.00    -0.342 N 
HETATM    4  O   UNL     1       5.754  28.900  51.395  1.00  0.00    -0.247 OA
HETATM    5  H   UNL     1       5.424  25.817  50.861  1.00  0.00     0.170 HD
HETATM    6  H   UNL     1       5.937  26.887  49.056  1.00  0.00     0.164 HD
ENDROOT
BRANCH   1   7
HETATM    7  C   UNL     1       5.948  26.275  52.821  1.00  0.00     0.045 A 
HETATM    8  C   UNL     1       6.991  25.390  53.185  1.00  0.00    -0.002 A 
HETATM    9  C   UNL     1       7.902  24.785  52.147  1.00  0.00     0.053 C 
HETATM   10  C   UNL     1       7.138  25.032  54.541  1.00  0.00     0.077 A 
HETATM   11  C   UNL     1       6.344  25.618  55.528  1.00  0.00     0.037 A 
HETATM   12  C   UNL     1       5.351  26.520  55.167  1.00  0.00     0.005 A 
HETATM   13  C   UNL     1       5.148  26.838  53.823  1.00  0.00     0.030 A 
BRANCH  10  14
HETATM   14  O   UNL     1       8.116  24.122  54.862  1.00  0.00    -0.345 OA
BRANCH  14  15
HETATM   15  C   UNL     1       7.632  22.890  55.399  1.00  0.00     0.129 C 
HETATM   16  C   UNL     1       7.900  21.674  54.512  1.00  0.00     0.032 C 
HETATM   17  C   UNL     1       7.795  20.511  55.483  1.00  0.00     0.002 C 
HETATM   18  C   UNL     1       8.397  21.032  56.784  1.00  0.00     0.002 C 
HETATM   19  C   UNL     1       8.436  22.554  56.658  1.00  0.00     0.032 C 
ENDBRANCH  14  15
ENDBRANCH  10  14
ENDBRANCH   1   7
BRANCH   3  20
HETATM   20  C   UNL     1       5.364  28.850  48.644  1.00  0.00     0.132 C 
BRANCH  20  21
HETATM   21  C   UNL     1       4.295  28.717  47.559  1.00  0.00     0.102 C 
BRANCH  21  22
HETATM   22  C   UNL     1       3.517  27.454  47.682  1.00  0.00     0.148 A 
HETATM   23  N   UNL     1       2.396  27.362  48.411  1.00  0.00    -0.158 NA
HETATM   24  N   UNL     1       2.053  26.079  48.220  1.00  0.00    -0.270 N 
HETATM   25  H   UNL     1       1.213  25.717  48.658  1.00  0.00     0.190 HD
HETATM   26  C   UNL     1       2.950  25.444  47.420  1.00  0.00     0.227 A 
HETATM   27  N   UNL     1       3.892  26.284  47.062  1.00  0.00    -0.226 NA
ENDBRANCH  21  22
ENDBRANCH  20  21
ENDBRANCH   3  20
TORSDOF 6
ENDMDL
MODEL 2
REMARK VINA RESULT:      -8.3      5.571      8.082
REMARK  6 active torsions:
REMARK  status: ('A' for Active; 'I' for Inactive)
REMARK    1  A    between atoms: C_3  and  O_4 
REMARK    2  A    between atoms: O_4  and  C_5 
REMARK    3  A    between atoms: C_13  and  N_14 
REMARK       I    between atoms: N_14  and  C_15 
REMARK       I    between atoms: C_15  and  N_16 
REMARK    4  A    between atoms: N_16  and  C_17 
REMARK    5  A    between atoms: C_17  and  C_18 
REMARK    6  A    between atoms: C_18  and  C_19 
ROOT
HETATM    1  N   UNL     1       8.045  27.694  57.083  1.00  0.00    -0.308 N 
HETATM    2  C   UNL     1       8.825  28.721  56.597  1.00  0.00     0.320 C 
HETATM    3  N   UNL     1       9.357  29.455  57.639  1.00  0.00    -0.342 N 
HETATM    4  O   UNL     1       9.083  28.965  55.425  1.00  0.00    -0.247 OA
HETATM    5  H   UNL     1       8.159  27.533  58.071  1.00  0.00     0.170 HD
HETATM    6  H   UNL     1       8.743  29.582  58.436  1.00  0.00     0.164 HD
ENDROOT
BRANCH   1   7
HETATM    7  C   UNL     1       7.329  26.721  56.346  1.00  0.00     0.045 A 
HETATM    8  C   UNL     1       7.617  25.350  56.554  1.00  0.00    -0.002 A 
HETATM    9  C   UNL     1       8.645  24.912  57.566  1.00  0.00     0.053 C 
HETATM   10  C   UNL     1       6.964  24.388  55.756  1.00  0.00     0.077 A 
HETATM   11  C   UNL     1       5.971  24.762  54.851  1.00  0.00     0.037 A 
HETATM   12  C   UNL     1       5.661  26.107  54.683  1.00  0.00     0.005 A 
HETATM   13  C   UNL     1       6.343  27.078  55.419  1.00  0.00     0.030 A 
BRANCH  10  14
HETATM   14  O   UNL     1       7.307  23.070  55.932  1.00  0.00    -0.345 OA
BRANCH  14  15
HETATM   15  C   UNL     1       7.454  22.325  54.722  1.00  0.00     0.129 C 
HETATM   16  C   UNL     1       8.726  22.651  53.939  1.00  0.00     0.032 C 
HETATM   17  C   UNL     1       8.909  21.428  53.056  1.00  0.00     0.002 C 
HETATM   18  C   UNL     1       8.464  20.252  53.920  1.00  0.00     0.002 C 
HETATM   19  C   UNL     1       7.663  20.850  55.076  1.00  0.00     0.032 C 
ENDBRANCH  14  15
ENDBRANCH  10  14
ENDBRANCH   1   7
BRANCH   3  20
HETATM   20  C   UNL     1      10.219  30.597  57.368  1.00  0.00     0.132 C 
BRANCH  20  21
HETATM   21  C   UNL     1      10.200  31.639  58.486  1.00  0.00     0.102 C 
BRANCH  21  22
HETATM   22  C   UNL     1       9.011  31.500  59.372  1.00  0.00     0.148 A 
HETATM   23  N   UNL     1       8.999  30.699  60.446  1.00  0.00    -0.158 NA
HETATM   24  N   UNL     1       7.761  30.903  60.922  1.00  0.00    -0.270 N 
HETATM   25  H   UNL     1       7.465  30.419  61.762  1.00  0.00     0.190 HD
HETATM   26  C   UNL     1       7.074  31.780  60.143  1.00  0.00     0.227 A 
HETATM   27  N   UNL     1       7.834  32.177  59.150  1.00  0.00    -0.226 NA
ENDBRANCH  21  22
ENDBRANCH  20  21
ENDBRANCH   3  20
TORSDOF 6
ENDMDL
MODEL 3
REMARK VINA RESULT:      -8.2      4.858      7.584
REMARK  6 active torsions:
REMARK  status: ('A' for Active; 'I' for Inactive)
REMARK    1  A    between atoms: C_3  and  O_4 
REMARK    2  A    between atoms: O_4  and  C_5 
REMARK    3  A    between atoms: C_13  and  N_14 
REMARK       I    between atoms: N_14  and  C_15 
REMARK       I    between atoms: C_15  and  N_16 
REMARK    4  A    between atoms: N_16  and  C_17 
REMARK    5  A    between atoms: C_17  and  C_18 
REMARK    6  A    between atoms: C_18  and  C_19 
ROOT
HETATM    1  N   UNL     1       5.795  27.798  56.806  1.00  0.00    -0.308 N 
HETATM    2  C   UNL     1       6.159  29.127  56.790  1.00  0.00     0.320 C 
HETATM    3  N   UNL     1       5.921  29.705  58.022  1.00  0.00    -0.342 N 
HETATM    4  O   UNL     1       6.669  29.745  55.865  1.00  0.00    -0.247 OA
HETATM    5  H   UNL     1       5.621  27.439  57.731  1.00  0.00     0.170 HD
HETATM    6  H   UNL     1       5.082  29.387  58.494  1.00  0.00     0.164 HD
ENDROOT
BRANCH   1   7
HETATM    7  C   UNL     1       5.879  26.859  55.750  1.00  0.00     0.045 A 
HETATM    8  C   UNL     1       6.827  25.811  55.836  1.00  0.00    -0.002 A 
HETATM    9  C   UNL     1       7.719  25.659  57.043  1.00  0.00     0.053 C 
HETATM   10  C   UNL     1       6.968  24.929  54.745  1.00  0.00     0.077 A 
HETATM   11  C   UNL     1       6.120  25.014  53.640  1.00  0.00     0.037 A 
HETATM   12  C   UNL     1       5.162  26.019  53.582  1.00  0.00     0.005 A 
HETATM   13  C   UNL     1       5.051  26.940  54.625  1.00  0.00     0.030 A 
BRANCH  10  14
HETATM   14  O   UNL     1       7.938  23.960  54.825  1.00  0.00    -0.345 OA
BRANCH  14  15
HETATM   15  C   UNL     1       7.512  22.655  54.433  1.00  0.00     0.129 C 
HETATM   16  C   UNL     1       8.238  22.102  53.206  1.00  0.00     0.032 C 
HETATM   17  C   UNL     1       8.017  20.604  53.322  1.00  0.00     0.002 C 
HETATM   18  C   UNL     1       8.083  20.313  54.818  1.00  0.00     0.002 C 
HETATM   19  C   UNL     1       7.917  21.658  55.523  1.00  0.00     0.032 C 
ENDBRANCH  14  15
ENDBRANCH  10  14
ENDBRANCH   1   7
BRANCH   3  20
HETATM   20  C   UNL     1       6.230  31.111  58.245  1.00  0.00     0.132 C 
BRANCH  20  21
HETATM   21  C   UNL     1       7.314  31.325  59.302  1.00  0.00     0.102 C 
BRANCH  21  22
HETATM   22  C   UNL     1       8.686  31.176  58.744  1.00  0.00     0.148 A 
HETATM   23  N   UNL     1       9.594  32.161  58.782  1.00  0.00    -0.158 NA
HETATM   24  N   UNL     1      10.649  31.580  58.191  1.00  0.00    -0.270 N 
HETATM   25  H   UNL     1      11.511  32.104  58.085  1.00  0.00     0.190 HD
HETATM   26  C   UNL     1      10.360  30.308  57.811  1.00  0.00     0.227 A 
HETATM   27  N   UNL     1       9.124  30.019  58.143  1.00  0.00    -0.226 NA
ENDBRANCH  21  22
ENDBRANCH  20  21
ENDBRANCH   3  20
TORSDOF 6
ENDMDL
MODEL 4
REMARK VINA RESULT:      -8.2      5.801      8.337
REMARK  6 active torsions:
REMARK  status: ('A' for Active; 'I' for Inactive)
REMARK    1  A    between atoms: C_3  and  O_4 
REMARK    2  A    between atoms: O_4  and  C_5 
REMARK    3  A    between atoms: C_13  and  N_14 
REMARK       I    between atoms: N_14  and  C_15 
REMARK       I    between atoms: C_15  and  N_16 
REMARK    4  A    between atoms: N_16  and  C_17 
REMARK    5  A    between atoms: C_17  and  C_18 
REMARK    6  A    between atoms: C_18  and  C_19 
ROOT
HETATM    1  N   UNL     1       8.169  28.019  56.288  1.00  0.00    -0.308 N 
HETATM    2  C   UNL     1       7.914  26.747  56.750  1.00  0.00     0.320 C 
HETATM    3  N   UNL     1       7.143  26.050  55.840  1.00  0.00    -0.342 N 
HETATM    4  O   UNL     1       8.324  26.238  57.785  1.00  0.00    -0.247 OA
HETATM    5  H   UNL     1       7.937  28.149  55.316  1.00  0.00     0.170 HD
HETATM    6  H   UNL     1       6.433  26.599  55.366  1.00  0.00     0.164 HD
ENDROOT
BRANCH   1   7
HETATM    7  C   UNL     1       8.919  29.041  56.919  1.00  0.00     0.045 A 
HETATM    8  C   UNL     1       8.250  29.974  57.747  1.00  0.00    -0.002 A 
HETATM    9  C   UNL     1       6.766  29.877  57.994  1.00  0.00     0.053 C 
HETATM   10  C   UNL     1       8.986  31.040  58.303  1.00  0.00     0.077 A 
HETATM   11  C   UNL     1      10.368  31.123  58.135  1.00  0.00     0.037 A 
HETATM   12  C   UNL     1      11.025  30.178  57.357  1.00  0.00     0.005 A 
HETATM   13  C   UNL     1      10.304  29.151  56.745  1.00  0.00     0.030 A 
BRANCH  10  14
HETATM   14  O   UNL     1       8.303  31.969  59.050  1.00  0.00    -0.345 OA
BRANCH  14  15
HETATM   15  C   UNL     1       8.732  32.076  60.408  1.00  0.00     0.129 C 
HETATM   16  C   UNL     1       7.740  32.794  61.322  1.00  0.00     0.032 C 
HETATM   17  C   UNL     1       8.145  32.323  62.709  1.00  0.00     0.002 C 
HETATM   18  C   UNL     1       8.556  30.866  62.521  1.00  0.00     0.002 C 
HETATM   19  C   UNL     1       8.777  30.673  61.022  1.00  0.00     0.032 C 
ENDBRANCH  14  15
ENDBRANCH  10  14
ENDBRANCH   1   7
BRANCH   3  20
HETATM   20  C   UNL     1       6.744  24.677  56.115  1.00  0.00     0.132 C 
BRANCH  20  21
HETATM   21  C   UNL     1       7.030  23.727  54.951  1.00  0.00     0.102 C 
BRANCH  21  22
HETATM   22  C   UNL     1       6.952  24.409  53.630  1.00  0.00     0.148 A 
HETATM   23  N   UNL     1       8.033  24.657  52.878  1.00  0.00    -0.158 NA
HETATM   24  N   UNL     1       7.487  25.257  51.809  1.00  0.00    -0.270 N 
HETATM   25  H   UNL     1       8.085  25.557  51.047  1.00  0.00     0.190 HD
HETATM   26  C   UNL     1       6.139  25.367  51.942  1.00  0.00     0.227 A 
HETATM   27  N   UNL     1       5.765  24.843  53.084  1.00  0.00    -0.226 NA
ENDBRANCH  21  22
ENDBRANCH  20  21
ENDBRANCH   3  20
TORSDOF 6
ENDMDL
MODEL 5
REMARK VINA RESULT:      -8.1      1.711      2.513
REMARK  6 active torsions:
REMARK  status: ('A' for Active; 'I' for Inactive)
REMARK    1  A    between atoms: C_3  and  O_4 
REMARK    2  A    between atoms: O_4  and  C_5 
REMARK    3  A    between atoms: C_13  and  N_14 
REMARK       I    between atoms: N_14  and  C_15 
REMARK       I    between atoms: C_15  and  N_16 
REMARK    4  A    between atoms: N_16  and  C_17 
REMARK    5  A    between atoms: C_17  and  C_18 
REMARK    6  A    between atoms: C_18  and  C_19 
ROOT
HETATM    1  N   UNL     1       4.540  26.492  53.945  1.00  0.00    -0.308 N 
HETATM    2  C   UNL     1       4.447  27.819  53.590  1.00  0.00     0.320 C 
HETATM    3  N   UNL     1       3.430  28.001  52.673  1.00  0.00    -0.342 N 
HETATM    4  O   UNL     1       5.109  28.752  54.027  1.00  0.00    -0.247 OA
HETATM    5  H   UNL     1       3.753  25.938  53.648  1.00  0.00     0.170 HD
HETATM    6  H   UNL     1       3.325  27.257  51.991  1.00  0.00     0.164 HD
ENDROOT
BRANCH   1   7
HETATM    7  C   UNL     1       5.447  25.895  54.854  1.00  0.00     0.045 A 
HETATM    8  C   UNL     1       6.516  25.116  54.348  1.00  0.00    -0.002 A 
HETATM    9  C   UNL     1       6.722  24.941  52.864  1.00  0.00     0.053 C 
HETATM   10  C   UNL     1       7.365  24.453  55.257  1.00  0.00     0.077 A 
HETATM   11  C   UNL     1       7.229  24.641  56.633  1.00  0.00     0.037 A 
HETATM   12  C   UNL     1       6.205  25.443  57.121  1.00  0.00     0.005 A 
HETATM   13  C   UNL     1       5.315  26.056  56.238  1.00  0.00     0.030 A 
BRANCH  10  14
HETATM   14  O   UNL     1       8.354  23.652  54.742  1.00  0.00    -0.345 OA
BRANCH  14  15
HETATM   15  C   UNL     1       7.971  22.293  54.527  1.00  0.00     0.129 C 
HETATM   16  C   UNL     1       8.401  21.729  53.172  1.00  0.00     0.032 C 
HETATM   17  C   UNL     1       8.366  20.227  53.397  1.00  0.00     0.002 C 
HETATM   18  C   UNL     1       8.850  20.036  54.831  1.00  0.00     0.002 C 
HETATM   19  C   UNL     1       8.742  21.403  55.505  1.00  0.00     0.032 C 
ENDBRANCH  14  15
ENDBRANCH  10  14
ENDBRANCH   1   7
BRANCH   3  20
HETATM   20  C   UNL     1       3.142  29.329  52.149  1.00  0.00     0.132 C 
BRANCH  20  21
HETATM   21  C   UNL     1       3.799  29.593  50.793  1.00  0.00     0.102 C 
BRANCH  21  22
HETATM   22  C   UNL     1       4.190  28.335  50.098  1.00  0.00     0.148 A 
HETATM   23  N   UNL     1       5.424  27.820  50.176  1.00  0.00    -0.158 NA
HETATM   24  N   UNL     1       5.304  26.715  49.423  1.00  0.00    -0.270 N 
HETATM   25  H   UNL     1       6.105  26.104  49.305  1.00  0.00     0.190 HD
HETATM   26  C   UNL     1       4.049  26.601  48.915  1.00  0.00     0.227 A 
HETATM   27  N   UNL     1       3.316  27.611  49.320  1.00  0.00    -0.226 NA
ENDBRANCH  21  22
ENDBRANCH  20  21
ENDBRANCH   3  20
TORSDOF 6
ENDMDL
MODEL 6
REMARK VINA RESULT:      -8.0      2.766      4.164
REMARK  6 active torsions:
REMARK  status: ('A' for Active; 'I' for Inactive)
REMARK    1  A    between atoms: C_3  and  O_4 
REMARK    2  A    between atoms: O_4  and  C_5 
REMARK    3  A    between atoms: C_13  and  N_14 
REMARK       I    between atoms: N_14  and  C_15 
REMARK       I    between atoms: C_15  and  N_16 
REMARK    4  A    between atoms: N_16  and  C_17 
REMARK    5  A    between atoms: C_17  and  C_18 
REMARK    6  A    between atoms: C_18  and  C_19 
ROOT
HETATM    1  N   UNL     1       6.755  27.927  55.212  1.00  0.00    -0.308 N 
HETATM    2  C   UNL     1       5.598  28.596  55.545  1.00  0.00     0.320 C 
HETATM    3  N   UNL     1       5.491  29.763  54.814  1.00  0.00    -0.342 N 
HETATM    4  O   UNL     1       4.731  28.233  56.330  1.00  0.00    -0.247 OA
HETATM    5  H   UNL     1       7.202  28.281  54.381  1.00  0.00     0.170 HD
HETATM    6  H   UNL     1       6.364  30.254  54.653  1.00  0.00     0.164 HD
ENDROOT
BRANCH   1   7
HETATM    7  C   UNL     1       7.231  26.699  55.732  1.00  0.00     0.045 A 
HETATM    8  C   UNL     1       6.891  25.494  55.070  1.00  0.00    -0.002 A 
HETATM    9  C   UNL     1       6.063  25.501  53.810  1.00  0.00     0.053 C 
HETATM   10  C   UNL     1       7.294  24.268  55.638  1.00  0.00     0.077 A 
HETATM   11  C   UNL     1       8.104  24.236  56.773  1.00  0.00     0.037 A 
HETATM   12  C   UNL     1       8.472  25.424  57.392  1.00  0.00     0.005 A 
HETATM   13  C   UNL     1       8.029  26.646  56.880  1.00  0.00     0.030 A 
BRANCH  10  14
HETATM   14  O   UNL     1       6.896  23.111  55.014  1.00  0.00    -0.345 OA
BRANCH  14  15
HETATM   15  C   UNL     1       7.963  22.235  54.646  1.00  0.00     0.129 C 
HETATM   16  C   UNL     1       7.868  20.841  55.266  1.00  0.00     0.032 C 
HETATM   17  C   UNL     1       8.741  19.998  54.352  1.00  0.00     0.002 C 
HETATM   18  C   UNL     1       8.499  20.559  52.954  1.00  0.00     0.002 C 
HETATM   19  C   UNL     1       7.854  21.930  53.149  1.00  0.00     0.032 C 
ENDBRANCH  14  15
ENDBRANCH  10  14
ENDBRANCH   1   7
BRANCH   3  20
HETATM   20  C   UNL     1       4.343  30.641  54.996  1.00  0.00     0.132 C 
BRANCH  20  21
HETATM   21  C   UNL     1       3.475  30.759  53.744  1.00  0.00     0.102 C 
BRANCH  21  22
HETATM   22  C   UNL     1       3.781  29.702  52.740  1.00  0.00     0.148 A 
HETATM   23  N   UNL     1       3.248  28.474  52.798  1.00  0.00    -0.158 NA
HETATM   24  N   UNL     1       3.789  27.893  51.715  1.00  0.00    -0.270 N 
HETATM   25  H   UNL     1       3.551  26.933  51.494  1.00  0.00     0.190 HD
HETATM   26  C   UNL     1       4.617  28.749  51.061  1.00  0.00     0.227 A 
HETATM   27  N   UNL     1       4.639  29.904  51.683  1.00  0.00    -0.226 NA
ENDBRANCH  21  22
ENDBRANCH  20  21
ENDBRANCH   3  20
TORSDOF 6
ENDMDL
MODEL 7
REMARK VINA RESULT:      -7.9      6.895      9.728
REMARK  6 active torsions:
REMARK  status: ('A' for Active; 'I' for Inactive)
REMARK    1  A    between atoms: C_3  and  O_4 
REMARK    2  A    between atoms: O_4  and  C_5 
REMARK    3  A    between atoms: C_13  and  N_14 
REMARK       I    between atoms: N_14  and  C_15 
REMARK       I    between atoms: C_15  and  N_16 
REMARK    4  A    between atoms: N_16  and  C_17 
REMARK    5  A    between atoms: C_17  and  C_18 
REMARK    6  A    between atoms: C_18  and  C_19 
ROOT
HETATM    1  N   UNL     1       8.334  28.634  57.679  1.00  0.00    -0.308 N 
HETATM    2  C   UNL     1       7.661  29.666  58.296  1.00  0.00     0.320 C 
HETATM    3  N   UNL     1       8.267  29.988  59.494  1.00  0.00    -0.342 N 
HETATM    4  O   UNL     1       6.691  30.278  57.868  1.00  0.00    -0.247 OA
HETATM    5  H   UNL     1       9.234  28.439  58.088  1.00  0.00     0.170 HD
HETATM    6  H   UNL     1       8.633  29.200  60.019  1.00  0.00     0.164 HD
ENDROOT
BRANCH   1   7
HETATM    7  C   UNL     1       8.036  28.016  56.442  1.00  0.00     0.045 A 
HETATM    8  C   UNL     1       7.643  26.655  56.430  1.00  0.00    -0.002 A 
HETATM    9  C   UNL     1       7.507  25.869  57.710  1.00  0.00     0.053 C 
HETATM   10  C   UNL     1       7.431  26.019  55.190  1.00  0.00     0.077 A 
HETATM   11  C   UNL     1       7.498  26.735  53.995  1.00  0.00     0.037 A 
HETATM   12  C   UNL     1       7.840  28.082  54.017  1.00  0.00     0.005 A 
HETATM   13  C   UNL     1       8.117  28.714  55.231  1.00  0.00     0.030 A 
BRANCH  10  14
HETATM   14  O   UNL     1       7.114  24.682  55.202  1.00  0.00    -0.345 OA
BRANCH  14  15
HETATM   15  C   UNL     1       8.045  23.842  54.518  1.00  0.00     0.129 C 
HETATM   16  C   UNL     1       8.507  22.632  55.329  1.00  0.00     0.032 C 
HETATM   17  C   UNL     1       9.017  21.677  54.263  1.00  0.00     0.002 C 
HETATM   18  C   UNL     1       8.069  21.867  53.083  1.00  0.00     0.002 C 
HETATM   19  C   UNL     1       7.333  23.182  53.333  1.00  0.00     0.032 C 
ENDBRANCH  14  15
ENDBRANCH  10  14
ENDBRANCH   1   7
BRANCH   3  20
HETATM   20  C   UNL     1       7.728  31.055  60.326  1.00  0.00     0.132 C 
BRANCH  20  21
HETATM   21  C   UNL     1       8.444  31.184  61.671  1.00  0.00     0.102 C 
BRANCH  21  22
HETATM   22  C   UNL     1       7.623  31.904  62.684  1.00  0.00     0.148 A 
HETATM   23  N   UNL     1       6.288  31.805  62.735  1.00  0.00    -0.158 NA
HETATM   24  N   UNL     1       5.998  32.594  63.781  1.00  0.00    -0.270 N 
HETATM   25  H   UNL     1       5.032  32.706  64.068  1.00  0.00     0.190 HD
HETATM   26  C   UNL     1       7.123  33.142  64.310  1.00  0.00     0.227 A 
HETATM   27  N   UNL     1       8.172  32.729  63.638  1.00  0.00    -0.226 NA
ENDBRANCH  21  22
ENDBRANCH  20  21
ENDBRANCH   3  20
TORSDOF 6
ENDMDL
MODEL 8
REMARK VINA RESULT:      -7.8      1.715      2.124
REMARK  6 active torsions:
REMARK  status: ('A' for Active; 'I' for Inactive)
REMARK    1  A    between atoms: C_3  and  O_4 
REMARK    2  A    between atoms: O_4  and  C_5 
REMARK    3  A    between atoms: C_13  and  N_14 
REMARK       I    between atoms: N_14  and  C_15 
REMARK       I    between atoms: C_15  and  N_16 
REMARK    4  A    between atoms: N_16  and  C_17 
REMARK    5  A    between atoms: C_17  and  C_18 
REMARK    6  A    between atoms: C_18  and  C_19 
ROOT
HETATM    1  N   UNL     1       4.116  27.662  52.591  1.00  0.00    -0.308 N 
HETATM    2  C   UNL     1       4.166  28.156  51.306  1.00  0.00     0.320 C 
HETATM    3  N   UNL     1       2.894  28.459  50.859  1.00  0.00    -0.342 N 
HETATM    4  O   UNL     1       5.165  28.365  50.630  1.00  0.00    -0.247 OA
HETATM    5  H   UNL     1       3.225  27.794  53.041  1.00  0.00     0.170 HD
HETATM    6  H   UNL     1       2.167  27.818  51.156  1.00  0.00     0.164 HD
ENDROOT
BRANCH   1   7
HETATM    7  C   UNL     1       5.195  27.237  53.403  1.00  0.00     0.045 A 
HETATM    8  C   UNL     1       5.403  25.851  53.602  1.00  0.00    -0.002 A 
HETATM    9  C   UNL     1       4.519  24.824  52.939  1.00  0.00     0.053 C 
HETATM   10  C   UNL     1       6.425  25.434  54.480  1.00  0.00     0.077 A 
HETATM   11  C   UNL     1       7.290  26.360  55.064  1.00  0.00     0.037 A 
HETATM   12  C   UNL     1       7.108  27.717  54.829  1.00  0.00     0.005 A 
HETATM   13  C   UNL     1       6.062  28.152  54.012  1.00  0.00     0.030 A 
BRANCH  10  14
HETATM   14  O   UNL     1       6.565  24.087  54.707  1.00  0.00    -0.345 OA
BRANCH  14  15
HETATM   15  C   UNL     1       7.859  23.562  54.405  1.00  0.00     0.129 C 
HETATM   16  C   UNL     1       8.473  22.729  55.530  1.00  0.00     0.032 C 
HETATM   17  C   UNL     1       9.515  21.892  54.808  1.00  0.00     0.002 C 
HETATM   18  C   UNL     1       8.884  21.558  53.461  1.00  0.00     0.002 C 
HETATM   19  C   UNL     1       7.721  22.532  53.280  1.00  0.00     0.032 C 
ENDBRANCH  14  15
ENDBRANCH  10  14
ENDBRANCH   1   7
BRANCH   3  20
HETATM   20  C   UNL     1       2.696  29.000  49.521  1.00  0.00     0.132 C 
BRANCH  20  21
HETATM   21  C   UNL     1       1.589  28.286  48.746  1.00  0.00     0.102 C 
BRANCH  21  22
HETATM   22  C   UNL     1       2.096  27.114  47.981  1.00  0.00     0.148 A 
HETATM   23  N   UNL     1       1.626  26.780  46.772  1.00  0.00    -0.158 NA
HETATM   24  N   UNL     1       2.367  25.699  46.482  1.00  0.00    -0.270 N 
HETATM   25  H   UNL     1       2.231  25.225  45.596  1.00  0.00     0.190 HD
HETATM   26  C   UNL     1       3.226  25.407  47.493  1.00  0.00     0.227 A 
HETATM   27  N   UNL     1       3.081  26.281  48.461  1.00  0.00    -0.226 NA
ENDBRANCH  21  22
ENDBRANCH  20  21
ENDBRANCH   3  20
TORSDOF 6
ENDMDL
MODEL 9
REMARK VINA RESULT:      -7.6      9.436     12.294
REMARK  6 active torsions:
REMARK  status: ('A' for Active; 'I' for Inactive)
REMARK    1  A    between atoms: C_3  and  O_4 
REMARK    2  A    between atoms: O_4  and  C_5 
REMARK    3  A    between atoms: C_13  and  N_14 
REMARK       I    between atoms: N_14  and  C_15 
REMARK       I    between atoms: C_15  and  N_16 
REMARK    4  A    between atoms: N_16  and  C_17 
REMARK    5  A    between atoms: C_17  and  C_18 
REMARK    6  A    between atoms: C_18  and  C_19 
ROOT
HETATM    1  N   UNL     1       8.209  31.078  60.518  1.00  0.00    -0.308 N 
HETATM    2  C   UNL     1       9.073  31.433  59.505  1.00  0.00     0.320 C 
HETATM    3  N   UNL     1       9.319  30.351  58.682  1.00  0.00    -0.342 N 
HETATM    4  O   UNL     1       9.545  32.541  59.288  1.00  0.00    -0.247 OA
HETATM    5  H   UNL     1       7.761  30.188  60.373  1.00  0.00     0.170 HD
HETATM    6  H   UNL     1       9.389  29.456  59.155  1.00  0.00     0.164 HD
ENDROOT
BRANCH   1   7
HETATM    7  C   UNL     1       7.710  31.893  61.562  1.00  0.00     0.045 A 
HETATM    8  C   UNL     1       6.494  32.592  61.368  1.00  0.00    -0.002 A 
HETATM    9  C   UNL     1       5.709  32.457  60.087  1.00  0.00     0.053 C 
HETATM   10  C   UNL     1       6.045  33.470  62.376  1.00  0.00     0.077 A 
HETATM   11  C   UNL     1       6.723  33.574  63.591  1.00  0.00     0.037 A 
HETATM   12  C   UNL     1       7.892  32.851  63.792  1.00  0.00     0.005 A 
HETATM   13  C   UNL     1       8.386  32.025  62.780  1.00  0.00     0.030 A 
BRANCH  10  14
HETATM   14  O   UNL     1       4.897  34.185  62.138  1.00  0.00    -0.345 OA
BRANCH  14  15
HETATM   15  C   UNL     1       4.837  35.454  62.791  1.00  0.00     0.129 C 
HETATM   16  C   UNL     1       5.610  36.562  62.076  1.00  0.00     0.032 C 
HETATM   17  C   UNL     1       4.980  37.831  62.625  1.00  0.00     0.002 C 
HETATM   18  C   UNL     1       3.500  37.496  62.780  1.00  0.00     0.002 C 
HETATM   19  C   UNL     1       3.398  35.973  62.727  1.00  0.00     0.032 C 
ENDBRANCH  14  15
ENDBRANCH  10  14
ENDBRANCH   1   7
BRANCH   3  20
HETATM   20  C   UNL     1      10.208  30.487  57.537  1.00  0.00     0.132 C 
BRANCH  20  21
HETATM   21  C   UNL     1       9.881  29.510  56.407  1.00  0.00     0.102 C 
BRANCH  21  22
HETATM   22  C   UNL     1       8.644  28.727  56.675  1.00  0.00     0.148 A 
HETATM   23  N   UNL     1       7.432  29.125  56.263  1.00  0.00    -0.158 NA
HETATM   24  N   UNL     1       6.653  28.129  56.711  1.00  0.00    -0.270 N 
HETATM   25  H   UNL     1       5.655  28.158  56.531  1.00  0.00     0.190 HD
HETATM   26  C   UNL     1       7.384  27.192  57.371  1.00  0.00     0.227 A 
HETATM   27  N   UNL     1       8.649  27.539  57.370  1.00  0.00    -0.226 NA
ENDBRANCH  21  22
ENDBRANCH  20  21
ENDBRANCH   3  20
TORSDOF 6
ENDMDL
MODEL 10
REMARK VINA RESULT:      -7.5      5.162      7.710
REMARK  6 active torsions:
REMARK  status: ('A' for Active; 'I' for Inactive)
REMARK    1  A    between atoms: C_3  and  O_4 
REMARK    2  A    between atoms: O_4  and  C_5 
REMARK    3  A    between atoms: C_13  and  N_14 
REMARK       I    between atoms: N_14  and  C_15 
REMARK       I    between atoms: C_15  and  N_16 
REMARK    4  A    between atoms: N_16  and  C_17 
REMARK    5  A    between atoms: C_17  and  C_18 
REMARK    6  A    between atoms: C_18  and  C_19 
ROOT
HETATM    1  N   UNL     1       7.173  27.561  55.911  1.00  0.00    -0.308 N 
HETATM    2  C   UNL     1       7.017  26.231  56.235  1.00  0.00     0.320 C 
HETATM    3  N   UNL     1       7.658  25.433  55.307  1.00  0.00    -0.342 N 
HETATM    4  O   UNL     1       6.447  25.769  57.214  1.00  0.00    -0.247 OA
HETATM    5  H   UNL     1       7.871  27.725  55.203  1.00  0.00     0.170 HD
HETATM    6  H   UNL     1       7.606  25.758  54.348  1.00  0.00     0.164 HD
ENDROOT
BRANCH   1   7
HETATM    7  C   UNL     1       6.674  28.690  56.603  1.00  0.00     0.045 A 
HETATM    8  C   UNL     1       7.574  29.503  57.334  1.00  0.00    -0.002 A 
HETATM    9  C   UNL     1       9.052  29.206  57.359  1.00  0.00     0.053 C 
HETATM   10  C   UNL     1       7.060  30.576  58.093  1.00  0.00     0.077 A 
HETATM   11  C   UNL     1       5.706  30.904  58.045  1.00  0.00     0.037 A 
HETATM   12  C   UNL     1       4.834  30.128  57.290  1.00  0.00     0.005 A 
HETATM   13  C   UNL     1       5.314  29.024  56.583  1.00  0.00     0.030 A 
BRANCH  10  14
HETATM   14  O   UNL     1       7.945  31.310  58.844  1.00  0.00    -0.345 OA
BRANCH  14  15
HETATM   15  C   UNL     1       7.813  31.141  60.257  1.00  0.00     0.129 C 
HETATM   16  C   UNL     1       9.039  30.526  60.930  1.00  0.00     0.032 C 
HETATM   17  C   UNL     1       8.874  30.934  62.384  1.00  0.00     0.002 C 
HETATM   18  C   UNL     1       8.283  32.340  62.330  1.00  0.00     0.002 C 
HETATM   19  C   UNL     1       7.744  32.523  60.913  1.00  0.00     0.032 C 
ENDBRANCH  14  15
ENDBRANCH  10  14
ENDBRANCH   1   7
BRANCH   3  20
HETATM   20  C   UNL     1       7.629  23.983  55.443  1.00  0.00     0.132 C 
BRANCH  20  21
HETATM   21  C   UNL     1       7.217  23.269  54.155  1.00  0.00     0.102 C 
BRANCH  21  22
HETATM   22  C   UNL     1       6.805  24.221  53.087  1.00  0.00     0.148 A 
HETATM   23  N   UNL     1       7.660  24.693  52.170  1.00  0.00    -0.158 NA
HETATM   24  N   UNL     1       6.861  25.482  51.434  1.00  0.00    -0.270 N 
HETATM   25  H   UNL     1       7.247  25.978  50.639  1.00  0.00     0.190 HD
HETATM   26  C   UNL     1       5.591  25.479  51.916  1.00  0.00     0.227 A 
HETATM   27  N   UNL     1       5.518  24.694  52.965  1.00  0.00    -0.226 NA
ENDBRANCH  21  22
ENDBRANCH  20  21
ENDBRANCH   3  20
TORSDOF 6
ENDMDL
