MODEL 1
REMARK VINA RESULT:     -10.5      0.000      0.000
REMARK  3 active torsions:
REMARK  status: ('A' for Active; 'I' for Inactive)
REMARK    1  A    between atoms: N_5  and  C_6 
REMARK    2  A    between atoms: C_7  and  C_8 
REMARK       I    between atoms: C_8  and  N_9 
REMARK    3  A    between atoms: N_9  and  N_10 
ROOT
HETATM    1  C   UNL     1       5.739  28.468  52.900  1.00  0.00     0.056 C 
HETATM    2  C   UNL     1       6.289  27.637  54.046  1.00  0.00     0.158 C 
HETATM    3  C   UNL     1       7.056  26.401  53.570  1.00  0.00     0.267 C 
HETATM    4  O   UNL     1       8.005  26.449  52.791  1.00  0.00    -0.269 OA
HETATM    5  N   UNL     1       6.617  25.317  54.302  1.00  0.00    -0.230 N 
HETATM    6  C   UNL     1       5.631  25.711  55.183  1.00  0.00     0.333 C 
HETATM    7  O   UNL     1       5.139  25.054  56.090  1.00  0.00    -0.246 OA
HETATM    8  N   UNL     1       5.261  27.025  54.876  1.00  0.00    -0.309 N 
HETATM    9  C   UNL     1       4.554  27.857  55.855  1.00  0.00     0.134 C 
HETATM   10  C   UNL     1       5.513  28.480  56.897  1.00  0.00     0.061 C 
HETATM   11  C   UNL     1       6.840  28.797  56.280  1.00  0.00    -0.018 A 
HETATM   12  C   UNL     1       7.165  28.417  54.989  1.00  0.00     0.055 A 
HETATM   13  N   UNL     1       8.475  28.747  54.761  1.00  0.00    -0.356 N 
HETATM   14  H   UNL     1       8.999  28.536  53.918  1.00  0.00     0.166 HD
HETATM   15  C   UNL     1       9.028  29.263  55.913  1.00  0.00     0.043 A 
HETATM   16  C   UNL     1       8.013  29.341  56.872  1.00  0.00    -0.001 A 
HETATM   17  C   UNL     1      10.350  29.637  56.184  1.00  0.00     0.030 A 
HETATM   18  C   UNL     1      10.641  30.107  57.468  1.00  0.00     0.002 A 
HETATM   19  C   UNL     1       9.646  30.211  58.437  1.00  0.00     0.001 A 
HETATM   20  C   UNL     1       8.329  29.831  58.153  1.00  0.00     0.014 A 
ENDROOT
BRANCH   5  21
HETATM   21  C   UNL     1       7.378  24.123  54.393  1.00  0.00     0.063 A 
HETATM   22  C   UNL     1       8.095  23.768  55.554  1.00  0.00     0.060 A 
HETATM   23  C   UNL     1       8.642  22.480  55.682  1.00  0.00     0.019 A 
HETATM   24  C   UNL     1       8.523  21.558  54.644  1.00  0.00     0.001 A 
HETATM   25  C   UNL     1       7.876  21.921  53.468  1.00  0.00     0.002 A 
HETATM   26  C   UNL     1       7.313  23.194  53.339  1.00  0.00     0.031 A 
BRANCH  22  27
HETATM   27  C   UNL     1       8.421  24.728  56.643  1.00  0.00     0.268 C 
HETATM   28  N   UNL     1       7.516  24.765  57.701  1.00  0.00    -0.290 N 
HETATM   29  H   UNL     1       6.627  24.272  57.642  1.00  0.00     0.183 HD
HETATM   30  O   UNL     1       9.378  25.491  56.550  1.00  0.00    -0.266 OA
BRANCH  28  31
HETATM   31  N   UNL     1       7.689  25.724  58.721  1.00  0.00    -0.247 NA
HETATM   32  H   UNL     1       8.437  26.356  58.409  1.00  0.00     0.143 HD
HETATM   33  H   UNL     1       8.128  25.239  59.512  1.00  0.00     0.143 HD
ENDBRANCH  28  31
ENDBRANCH  22  27
ENDBRANCH   5  21
TORSDOF 3
ENDMDL
MODEL 2
REMARK VINA RESULT:      -9.2      1.988      6.146
REMARK  3 active torsions:
REMARK  status: ('A' for Active; 'I' for Inactive)
REMARK    1  A    between atoms: N_5  and  C_6 
REMARK    2  A    between atoms: C_7  and  C_8 
REMARK       I    between atoms: C_8  and  N_9 
REMARK    3  A    between atoms: N_9  and  N_10 
ROOT
HETATM    1  C   UNL     1       4.234  25.707  53.683  1.00  0.00     0.056 C 
HETATM    2  C   UNL     1       5.665  25.964  54.120  1.00  0.00     0.158 C 
HETATM    3  C   UNL     1       5.759  26.870  55.349  1.00  0.00     0.267 C 
HETATM    4  O   UNL     1       5.189  26.635  56.411  1.00  0.00    -0.269 OA
HETATM    5  N   UNL     1       6.710  27.838  55.096  1.00  0.00    -0.230 N 
HETATM    6  C   UNL     1       7.225  27.672  53.827  1.00  0.00     0.333 C 
HETATM    7  O   UNL     1       8.191  28.239  53.337  1.00  0.00    -0.246 OA
HETATM    8  N   UNL     1       6.450  26.720  53.155  1.00  0.00    -0.309 N 
HETATM    9  C   UNL     1       6.965  26.031  51.966  1.00  0.00     0.134 C 
HETATM   10  C   UNL     1       7.904  24.857  52.330  1.00  0.00     0.061 C 
HETATM   11  C   UNL     1       7.467  24.196  53.601  1.00  0.00    -0.018 A 
HETATM   12  C   UNL     1       6.448  24.705  54.386  1.00  0.00     0.055 A 
HETATM   13  N   UNL     1       6.364  23.949  55.525  1.00  0.00    -0.356 N 
HETATM   14  H   UNL     1       5.743  24.126  56.308  1.00  0.00     0.166 HD
HETATM   15  C   UNL     1       7.368  23.004  55.527  1.00  0.00     0.043 A 
HETATM   16  C   UNL     1       8.052  23.113  54.312  1.00  0.00    -0.001 A 
HETATM   17  C   UNL     1       7.737  22.088  56.519  1.00  0.00     0.030 A 
HETATM   18  C   UNL     1       8.831  21.257  56.261  1.00  0.00     0.002 A 
HETATM   19  C   UNL     1       9.520  21.331  55.052  1.00  0.00     0.001 A 
HETATM   20  C   UNL     1       9.142  22.254  54.070  1.00  0.00     0.014 A 
ENDROOT
BRANCH   5  21
HETATM   21  C   UNL     1       7.315  28.579  56.143  1.00  0.00     0.063 A 
HETATM   22  C   UNL     1       6.593  29.490  56.942  1.00  0.00     0.060 A 
HETATM   23  C   UNL     1       7.174  30.026  58.103  1.00  0.00     0.019 A 
HETATM   24  C   UNL     1       8.483  29.701  58.451  1.00  0.00     0.001 A 
HETATM   25  C   UNL     1       9.227  28.857  57.633  1.00  0.00     0.002 A 
HETATM   26  C   UNL     1       8.651  28.305  56.485  1.00  0.00     0.031 A 
BRANCH  22  27
HETATM   27  C   UNL     1       5.257  30.027  56.570  1.00  0.00     0.268 C 
HETATM   28  N   UNL     1       4.193  29.585  57.353  1.00  0.00    -0.290 N 
HETATM   29  H   UNL     1       4.322  28.835  58.029  1.00  0.00     0.183 HD
HETATM   30  O   UNL     1       5.113  30.738  55.579  1.00  0.00    -0.266 OA
BRANCH  28  31
HETATM   31  N   UNL     1       2.879  29.958  57.002  1.00  0.00    -0.247 NA
HETATM   32  H   UNL     1       2.901  30.967  56.803  1.00  0.00     0.143 HD
HETATM   33  H   UNL     1       2.319  29.916  57.861  1.00  0.00     0.143 HD
ENDBRANCH  28  31
ENDBRANCH  22  27
ENDBRANCH   5  21
TORSDOF 3
ENDMDL
MODEL 3
REMARK VINA RESULT:      -8.7      8.558     11.428
REMARK  3 active torsions:
REMARK  status: ('A' for Active; 'I' for Inactive)
REMARK    1  A    between atoms: N_5  and  C_6 
REMARK    2  A    between atoms: C_7  and  C_8 
REMARK       I    between atoms: C_8  and  N_9 
REMARK    3  A    between atoms: N_9  and  N_10 
ROOT
HETATM    1  C   UNL     1       1.121  34.578  61.283  1.00  0.00     0.056 C 
HETATM    2  C   UNL     1       2.623  34.548  61.068  1.00  0.00     0.158 C 
HETATM    3  C   UNL     1       3.385  33.978  62.267  1.00  0.00     0.267 C 
HETATM    4  O   UNL     1       3.158  32.872  62.751  1.00  0.00    -0.269 OA
HETATM    5  N   UNL     1       4.439  34.824  62.546  1.00  0.00    -0.230 N 
HETATM    6  C   UNL     1       4.429  35.893  61.674  1.00  0.00     0.333 C 
HETATM    7  O   UNL     1       5.299  36.740  61.526  1.00  0.00    -0.246 OA
HETATM    8  N   UNL     1       3.229  35.867  60.954  1.00  0.00    -0.309 N 
HETATM    9  C   UNL     1       3.091  36.603  59.693  1.00  0.00     0.134 C 
HETATM   10  C   UNL     1       3.704  35.837  58.497  1.00  0.00     0.061 C 
HETATM   11  C   UNL     1       3.539  34.358  58.667  1.00  0.00    -0.018 A 
HETATM   12  C   UNL     1       3.039  33.799  59.830  1.00  0.00     0.055 A 
HETATM   13  N   UNL     1       3.119  32.436  59.720  1.00  0.00    -0.356 N 
HETATM   14  H   UNL     1       2.875  31.769  60.446  1.00  0.00     0.166 HD
HETATM   15  C   UNL     1       3.738  32.104  58.534  1.00  0.00     0.043 A 
HETATM   16  C   UNL     1       3.979  33.292  57.836  1.00  0.00    -0.001 A 
HETATM   17  C   UNL     1       4.127  30.851  58.044  1.00  0.00     0.030 A 
HETATM   18  C   UNL     1       4.773  30.810  56.806  1.00  0.00     0.002 A 
HETATM   19  C   UNL     1       5.011  31.976  56.081  1.00  0.00     0.001 A 
HETATM   20  C   UNL     1       4.619  33.222  56.584  1.00  0.00     0.014 A 
ENDROOT
BRANCH   5  21
HETATM   21  C   UNL     1       5.549  34.399  63.321  1.00  0.00     0.063 A 
HETATM   22  C   UNL     1       5.586  34.528  64.725  1.00  0.00     0.060 A 
HETATM   23  C   UNL     1       6.596  33.893  65.466  1.00  0.00     0.019 A 
HETATM   24  C   UNL     1       7.597  33.170  64.820  1.00  0.00     0.001 A 
HETATM   25  C   UNL     1       7.607  33.095  63.431  1.00  0.00     0.002 A 
HETATM   26  C   UNL     1       6.596  33.709  62.686  1.00  0.00     0.031 A 
BRANCH  22  27
HETATM   27  C   UNL     1       4.666  35.409  65.493  1.00  0.00     0.268 C 
HETATM   28  N   UNL     1       3.645  34.758  66.180  1.00  0.00    -0.290 N 
HETATM   29  H   UNL     1       3.470  33.765  66.032  1.00  0.00     0.183 HD
HETATM   30  O   UNL     1       4.765  36.632  65.436  1.00  0.00    -0.266 OA
BRANCH  28  31
HETATM   31  N   UNL     1       2.663  35.524  66.843  1.00  0.00    -0.247 NA
HETATM   32  H   UNL     1       1.796  34.972  66.824  1.00  0.00     0.143 HD
HETATM   33  H   UNL     1       2.435  36.312  66.226  1.00  0.00     0.143 HD
ENDBRANCH  28  31
ENDBRANCH  22  27
ENDBRANCH   5  21
TORSDOF 3
ENDMDL
MODEL 4
REMARK VINA RESULT:      -8.6      2.347      4.920
REMARK  3 active torsions:
REMARK  status: ('A' for Active; 'I' for Inactive)
REMARK    1  A    between atoms: N_5  and  C_6 
REMARK    2  A    between atoms: C_7  and  C_8 
REMARK       I    between atoms: C_8  and  N_9 
REMARK    3  A    between atoms: N_9  and  N_10 
ROOT
HETATM    1  C   UNL     1       7.138  26.216  57.827  1.00  0.00     0.056 C 
HETATM    2  C   UNL     1       6.986  27.334  56.810  1.00  0.00     0.158 C 
HETATM    3  C   UNL     1       6.195  26.907  55.571  1.00  0.00     0.267 C 
HETATM    4  O   UNL     1       5.065  26.428  55.618  1.00  0.00    -0.269 OA
HETATM    5  N   UNL     1       6.889  27.327  54.455  1.00  0.00    -0.230 N 
HETATM    6  C   UNL     1       8.056  27.958  54.835  1.00  0.00     0.333 C 
HETATM    7  O   UNL     1       8.824  28.593  54.125  1.00  0.00    -0.246 OA
HETATM    8  N   UNL     1       8.241  27.758  56.208  1.00  0.00    -0.309 N 
HETATM    9  C   UNL     1       9.141  28.621  56.981  1.00  0.00     0.134 C 
HETATM   10  C   UNL     1       8.475  29.962  57.371  1.00  0.00     0.061 C 
HETATM   11  C   UNL     1       7.011  29.778  57.625  1.00  0.00    -0.018 A 
HETATM   12  C   UNL     1       6.362  28.581  57.376  1.00  0.00     0.055 A 
HETATM   13  N   UNL     1       5.022  28.765  57.597  1.00  0.00    -0.356 N 
HETATM   14  H   UNL     1       4.297  28.073  57.439  1.00  0.00     0.166 HD
HETATM   15  C   UNL     1       4.783  30.086  57.909  1.00  0.00     0.043 A 
HETATM   16  C   UNL     1       6.019  30.737  57.970  1.00  0.00    -0.001 A 
HETATM   17  C   UNL     1       3.570  30.755  58.111  1.00  0.00     0.030 A 
HETATM   18  C   UNL     1       3.621  32.124  58.388  1.00  0.00     0.002 A 
HETATM   19  C   UNL     1       4.840  32.794  58.473  1.00  0.00     0.001 A 
HETATM   20  C   UNL     1       6.046  32.113  58.265  1.00  0.00     0.014 A 
ENDROOT
BRANCH   5  21
HETATM   21  C   UNL     1       6.262  27.444  53.188  1.00  0.00     0.063 A 
HETATM   22  C   UNL     1       6.258  26.395  52.244  1.00  0.00     0.060 A 
HETATM   23  C   UNL     1       5.438  26.470  51.107  1.00  0.00     0.019 A 
HETATM   24  C   UNL     1       4.657  27.601  50.874  1.00  0.00     0.001 A 
HETATM   25  C   UNL     1       4.706  28.669  51.764  1.00  0.00     0.002 A 
HETATM   26  C   UNL     1       5.506  28.596  52.907  1.00  0.00     0.031 A 
BRANCH  22  27
HETATM   27  C   UNL     1       7.175  25.226  52.314  1.00  0.00     0.268 C 
HETATM   28  N   UNL     1       6.622  24.060  52.839  1.00  0.00    -0.290 N 
HETATM   29  H   UNL     1       5.702  24.071  53.274  1.00  0.00     0.183 HD
HETATM   30  O   UNL     1       8.361  25.330  52.010  1.00  0.00    -0.266 OA
BRANCH  28  31
HETATM   31  N   UNL     1       7.451  22.937  53.043  1.00  0.00    -0.247 NA
HETATM   32  H   UNL     1       8.072  22.875  52.226  1.00  0.00     0.143 HD
HETATM   33  H   UNL     1       6.858  22.106  52.930  1.00  0.00     0.143 HD
ENDBRANCH  28  31
ENDBRANCH  22  27
ENDBRANCH   5  21
TORSDOF 3
ENDMDL
MODEL 5
REMARK VINA RESULT:      -8.1      8.634     10.850
REMARK  3 active torsions:
REMARK  status: ('A' for Active; 'I' for Inactive)
REMARK    1  A    between atoms: N_5  and  C_6 
REMARK    2  A    between atoms: C_7  and  C_8 
REMARK       I    between atoms: C_8  and  N_9 
REMARK    3  A    between atoms: N_9  and  N_10 
ROOT
HETATM    1  C   UNL     1       1.818  34.646  60.991  1.00  0.00     0.056 C 
HETATM    2  C   UNL     1       3.300  34.887  60.765  1.00  0.00     0.158 C 
HETATM    3  C   UNL     1       4.176  33.753  61.303  1.00  0.00     0.267 C 
HETATM    4  O   UNL     1       4.040  32.577  60.977  1.00  0.00    -0.269 OA
HETATM    5  N   UNL     1       5.206  34.316  62.029  1.00  0.00    -0.230 N 
HETATM    6  C   UNL     1       5.079  35.690  62.041  1.00  0.00     0.333 C 
HETATM    7  O   UNL     1       5.894  36.509  62.443  1.00  0.00    -0.246 OA
HETATM    8  N   UNL     1       3.831  36.024  61.502  1.00  0.00    -0.309 N 
HETATM    9  C   UNL     1       3.563  37.378  61.004  1.00  0.00     0.134 C 
HETATM   10  C   UNL     1       4.121  37.600  59.579  1.00  0.00     0.061 C 
HETATM   11  C   UNL     1       4.041  36.341  58.771  1.00  0.00    -0.018 A 
HETATM   12  C   UNL     1       3.657  35.132  59.323  1.00  0.00     0.055 A 
HETATM   13  N   UNL     1       3.794  34.160  58.367  1.00  0.00    -0.356 N 
HETATM   14  H   UNL     1       3.638  33.167  58.507  1.00  0.00     0.166 HD
HETATM   15  C   UNL     1       4.337  34.710  57.225  1.00  0.00     0.043 A 
HETATM   16  C   UNL     1       4.468  36.086  57.439  1.00  0.00    -0.001 A 
HETATM   17  C   UNL     1       4.748  34.090  56.039  1.00  0.00     0.030 A 
HETATM   18  C   UNL     1       5.301  34.899  55.042  1.00  0.00     0.002 A 
HETATM   19  C   UNL     1       5.427  36.275  55.221  1.00  0.00     0.001 A 
HETATM   20  C   UNL     1       5.015  36.881  56.414  1.00  0.00     0.014 A 
ENDROOT
BRANCH   5  21
HETATM   21  C   UNL     1       6.390  33.593  62.325  1.00  0.00     0.063 A 
HETATM   22  C   UNL     1       6.662  33.078  63.609  1.00  0.00     0.060 A 
HETATM   23  C   UNL     1       7.726  32.181  63.800  1.00  0.00     0.019 A 
HETATM   24  C   UNL     1       8.552  31.829  62.734  1.00  0.00     0.001 A 
HETATM   25  C   UNL     1       8.333  32.385  61.478  1.00  0.00     0.002 A 
HETATM   26  C   UNL     1       7.266  33.265  61.275  1.00  0.00     0.031 A 
BRANCH  22  27
HETATM   27  C   UNL     1       5.948  33.517  64.838  1.00  0.00     0.268 C 
HETATM   28  N   UNL     1       6.684  34.321  65.705  1.00  0.00    -0.290 N 
HETATM   29  H   UNL     1       7.683  34.462  65.561  1.00  0.00     0.183 HD
HETATM   30  O   UNL     1       4.818  33.110  65.095  1.00  0.00    -0.266 OA
BRANCH  28  31
HETATM   31  N   UNL     1       6.122  34.692  66.945  1.00  0.00    -0.247 NA
HETATM   32  H   UNL     1       6.232  33.884  67.572  1.00  0.00     0.143 HD
HETATM   33  H   UNL     1       5.106  34.728  66.810  1.00  0.00     0.143 HD
ENDBRANCH  28  31
ENDBRANCH  22  27
ENDBRANCH   5  21
TORSDOF 3
ENDMDL
MODEL 6
REMARK VINA RESULT:      -8.1      8.053     11.012
REMARK  3 active torsions:
REMARK  status: ('A' for Active; 'I' for Inactive)
REMARK    1  A    between atoms: N_5  and  C_6 
REMARK    2  A    between atoms: C_7  and  C_8 
REMARK       I    between atoms: C_8  and  N_9 
REMARK    3  A    between atoms: N_9  and  N_10 
ROOT
HETATM    1  C   UNL     1       3.032  30.878  60.034  1.00  0.00     0.056 C 
HETATM    2  C   UNL     1       3.796  32.189  60.079  1.00  0.00     0.158 C 
HETATM    3  C   UNL     1       2.889  33.412  59.921  1.00  0.00     0.267 C 
HETATM    4  O   UNL     1       1.922  33.637  60.644  1.00  0.00    -0.269 OA
HETATM    5  N   UNL     1       3.462  34.252  58.989  1.00  0.00    -0.230 N 
HETATM    6  C   UNL     1       4.629  33.695  58.506  1.00  0.00     0.333 C 
HETATM    7  O   UNL     1       5.471  34.231  57.799  1.00  0.00    -0.246 OA
HETATM    8  N   UNL     1       4.712  32.375  58.963  1.00  0.00    -0.309 N 
HETATM    9  C   UNL     1       5.993  31.660  58.972  1.00  0.00     0.134 C 
HETATM   10  C   UNL     1       6.862  32.029  60.198  1.00  0.00     0.061 C 
HETATM   11  C   UNL     1       6.007  32.303  61.397  1.00  0.00    -0.018 A 
HETATM   12  C   UNL     1       4.627  32.360  61.322  1.00  0.00     0.055 A 
HETATM   13  N   UNL     1       4.146  32.739  62.548  1.00  0.00    -0.356 N 
HETATM   14  H   UNL     1       3.172  32.916  62.772  1.00  0.00     0.166 HD
HETATM   15  C   UNL     1       5.200  33.007  63.395  1.00  0.00     0.043 A 
HETATM   16  C   UNL     1       6.381  32.706  62.708  1.00  0.00    -0.001 A 
HETATM   17  C   UNL     1       5.197  33.519  64.698  1.00  0.00     0.030 A 
HETATM   18  C   UNL     1       6.433  33.724  65.318  1.00  0.00     0.002 A 
HETATM   19  C   UNL     1       7.624  33.416  64.664  1.00  0.00     0.001 A 
HETATM   20  C   UNL     1       7.613  32.907  63.360  1.00  0.00     0.014 A 
ENDROOT
BRANCH   5  21
HETATM   21  C   UNL     1       3.100  35.621  58.898  1.00  0.00     0.063 A 
HETATM   22  C   UNL     1       3.435  36.561  59.895  1.00  0.00     0.060 A 
HETATM   23  C   UNL     1       3.260  37.934  59.659  1.00  0.00     0.019 A 
HETATM   24  C   UNL     1       2.709  38.379  58.459  1.00  0.00     0.001 A 
HETATM   25  C   UNL     1       2.313  37.456  57.496  1.00  0.00     0.002 A 
HETATM   26  C   UNL     1       2.500  36.088  57.715  1.00  0.00     0.031 A 
BRANCH  22  27
HETATM   27  C   UNL     1       3.871  36.183  61.266  1.00  0.00     0.268 C 
HETATM   28  N   UNL     1       2.869  36.171  62.233  1.00  0.00    -0.290 N 
HETATM   29  H   UNL     1       1.943  36.541  62.025  1.00  0.00     0.183 HD
HETATM   30  O   UNL     1       5.057  35.989  61.524  1.00  0.00    -0.266 OA
BRANCH  28  31
HETATM   31  N   UNL     1       3.214  35.931  63.579  1.00  0.00    -0.247 NA
HETATM   32  H   UNL     1       3.124  34.918  63.731  1.00  0.00     0.143 HD
HETATM   33  H   UNL     1       2.450  36.306  64.153  1.00  0.00     0.143 HD
ENDBRANCH  28  31
ENDBRANCH  22  27
ENDBRANCH   5  21
TORSDOF 3
ENDMDL
MODEL 7
REMARK VINA RESULT:      -7.8      7.818     10.151
REMARK  3 active torsions:
REMARK  status: ('A' for Active; 'I' for Inactive)
REMARK    1  A    between atoms: N_5  and  C_6 
REMARK    2  A    between atoms: C_7  and  C_8 
REMARK       I    between atoms: C_8  and  N_9 
REMARK    3  A    between atoms: N_9  and  N_10 
ROOT
HETATM    1  C   UNL     1       1.940  35.144  60.139  1.00  0.00     0.056 C 
HETATM    2  C   UNL     1       3.221  34.770  60.863  1.00  0.00     0.158 C 
HETATM    3  C   UNL     1       4.253  34.112  59.945  1.00  0.00     0.267 C 
HETATM    4  O   UNL     1       4.667  34.627  58.909  1.00  0.00    -0.269 OA
HETATM    5  N   UNL     1       4.736  32.986  60.581  1.00  0.00    -0.230 N 
HETATM    6  C   UNL     1       4.110  32.829  61.801  1.00  0.00     0.333 C 
HETATM    7  O   UNL     1       4.404  32.044  62.691  1.00  0.00    -0.246 OA
HETATM    8  N   UNL     1       3.048  33.737  61.874  1.00  0.00    -0.309 N 
HETATM    9  C   UNL     1       2.457  34.103  63.166  1.00  0.00     0.134 C 
HETATM   10  C   UNL     1       3.289  35.176  63.908  1.00  0.00     0.061 C 
HETATM   11  C   UNL     1       3.925  36.125  62.939  1.00  0.00    -0.018 A 
HETATM   12  C   UNL     1       3.872  35.929  61.571  1.00  0.00     0.055 A 
HETATM   13  N   UNL     1       4.638  36.893  60.969  1.00  0.00    -0.356 N 
HETATM   14  H   UNL     1       4.827  36.962  59.974  1.00  0.00     0.166 HD
HETATM   15  C   UNL     1       5.250  37.665  61.933  1.00  0.00     0.043 A 
HETATM   16  C   UNL     1       4.790  37.227  63.180  1.00  0.00    -0.001 A 
HETATM   17  C   UNL     1       6.193  38.690  61.797  1.00  0.00     0.030 A 
HETATM   18  C   UNL     1       6.675  39.288  62.964  1.00  0.00     0.002 A 
HETATM   19  C   UNL     1       6.222  38.884  64.218  1.00  0.00     0.001 A 
HETATM   20  C   UNL     1       5.281  37.855  64.340  1.00  0.00     0.014 A 
ENDROOT
BRANCH   5  21
HETATM   21  C   UNL     1       5.958  32.379  60.195  1.00  0.00     0.063 A 
HETATM   22  C   UNL     1       6.143  31.784  58.930  1.00  0.00     0.060 A 
HETATM   23  C   UNL     1       7.427  31.401  58.508  1.00  0.00     0.019 A 
HETATM   24  C   UNL     1       8.523  31.562  59.353  1.00  0.00     0.001 A 
HETATM   25  C   UNL     1       8.341  32.085  60.629  1.00  0.00     0.002 A 
HETATM   26  C   UNL     1       7.069  32.485  61.050  1.00  0.00     0.031 A 
BRANCH  22  27
HETATM   27  C   UNL     1       5.020  31.417  58.024  1.00  0.00     0.268 C 
HETATM   28  N   UNL     1       4.224  30.358  58.453  1.00  0.00    -0.290 N 
HETATM   29  H   UNL     1       4.497  29.795  59.257  1.00  0.00     0.183 HD
HETATM   30  O   UNL     1       4.882  31.964  56.933  1.00  0.00    -0.266 OA
BRANCH  28  31
HETATM   31  N   UNL     1       3.207  29.874  57.604  1.00  0.00    -0.247 NA
HETATM   32  H   UNL     1       3.075  28.882  57.837  1.00  0.00     0.143 HD
HETATM   33  H   UNL     1       3.606  29.827  56.660  1.00  0.00     0.143 HD
ENDBRANCH  28  31
ENDBRANCH  22  27
ENDBRANCH   5  21
TORSDOF 3
ENDMDL
MODEL 8
REMARK VINA RESULT:      -7.7     12.322     14.786
REMARK  3 active torsions:
REMARK  status: ('A' for Active; 'I' for Inactive)
REMARK    1  A    between atoms: N_5  and  C_6 
REMARK    2  A    between atoms: C_7  and  C_8 
REMARK       I    between atoms: C_8  and  N_9 
REMARK    3  A    between atoms: N_9  and  N_10 
ROOT
HETATM    1  C   UNL     1      -5.541  35.771  50.182  1.00  0.00     0.056 C 
HETATM    2  C   UNL     1      -5.723  34.390  50.787  1.00  0.00     0.158 C 
HETATM    3  C   UNL     1      -5.360  33.263  49.818  1.00  0.00     0.267 C 
HETATM    4  O   UNL     1      -4.270  33.173  49.259  1.00  0.00    -0.269 OA
HETATM    5  N   UNL     1      -6.373  32.326  49.852  1.00  0.00    -0.230 N 
HETATM    6  C   UNL     1      -7.365  32.736  50.720  1.00  0.00     0.333 C 
HETATM    7  O   UNL     1      -8.320  32.084  51.118  1.00  0.00    -0.246 OA
HETATM    8  N   UNL     1      -7.107  34.059  51.095  1.00  0.00    -0.309 N 
HETATM    9  C   UNL     1      -7.723  34.636  52.295  1.00  0.00     0.134 C 
HETATM   10  C   UNL     1      -6.976  34.234  53.589  1.00  0.00     0.061 C 
HETATM   11  C   UNL     1      -5.505  34.105  53.339  1.00  0.00    -0.018 A 
HETATM   12  C   UNL     1      -4.960  34.190  52.069  1.00  0.00     0.055 A 
HETATM   13  N   UNL     1      -3.620  33.918  52.157  1.00  0.00    -0.356 N 
HETATM   14  H   UNL     1      -2.978  33.854  51.375  1.00  0.00     0.166 HD
HETATM   15  C   UNL     1      -3.302  33.580  53.455  1.00  0.00     0.043 A 
HETATM   16  C   UNL     1      -4.460  33.725  54.226  1.00  0.00    -0.001 A 
HETATM   17  C   UNL     1      -2.091  33.130  53.995  1.00  0.00     0.030 A 
HETATM   18  C   UNL     1      -2.061  32.826  55.358  1.00  0.00     0.002 A 
HETATM   19  C   UNL     1      -3.195  32.978  56.153  1.00  0.00     0.001 A 
HETATM   20  C   UNL     1      -4.400  33.425  55.600  1.00  0.00     0.014 A 
ENDROOT
BRANCH   5  21
HETATM   21  C   UNL     1      -6.177  31.000  49.388  1.00  0.00     0.063 A 
HETATM   22  C   UNL     1      -5.595  29.995  50.189  1.00  0.00     0.060 A 
HETATM   23  C   UNL     1      -5.629  28.653  49.775  1.00  0.00     0.019 A 
HETATM   24  C   UNL     1      -6.194  28.308  48.549  1.00  0.00     0.001 A 
HETATM   25  C   UNL     1      -6.710  29.300  47.722  1.00  0.00     0.002 A 
HETATM   26  C   UNL     1      -6.696  30.636  48.133  1.00  0.00     0.031 A 
BRANCH  22  27
HETATM   27  C   UNL     1      -4.823  30.278  51.429  1.00  0.00     0.268 C 
HETATM   28  N   UNL     1      -5.467  29.960  52.622  1.00  0.00    -0.290 N 
HETATM   29  H   UNL     1      -6.450  29.693  52.627  1.00  0.00     0.183 HD
HETATM   30  O   UNL     1      -3.733  30.841  51.383  1.00  0.00    -0.266 OA
BRANCH  28  31
HETATM   31  N   UNL     1      -4.853  30.297  53.847  1.00  0.00    -0.247 NA
HETATM   32  H   UNL     1      -4.723  31.317  53.841  1.00  0.00     0.143 HD
HETATM   33  H   UNL     1      -3.888  29.952  53.799  1.00  0.00     0.143 HD
ENDBRANCH  28  31
ENDBRANCH  22  27
ENDBRANCH   5  21
TORSDOF 3
ENDMDL
MODEL 9
REMARK VINA RESULT:      -7.7      8.210     10.331
REMARK  3 active torsions:
REMARK  status: ('A' for Active; 'I' for Inactive)
REMARK    1  A    between atoms: N_5  and  C_6 
REMARK    2  A    between atoms: C_7  and  C_8 
REMARK       I    between atoms: C_8  and  N_9 
REMARK    3  A    between atoms: N_9  and  N_10 
ROOT
HETATM    1  C   UNL     1       1.666  35.083  60.265  1.00  0.00     0.056 C 
HETATM    2  C   UNL     1       2.988  34.695  60.905  1.00  0.00     0.158 C 
HETATM    3  C   UNL     1       3.966  34.063  59.912  1.00  0.00     0.267 C 
HETATM    4  O   UNL     1       4.319  34.604  58.868  1.00  0.00    -0.269 OA
HETATM    5  N   UNL     1       4.485  32.922  60.491  1.00  0.00    -0.230 N 
HETATM    6  C   UNL     1       3.931  32.734  61.740  1.00  0.00     0.333 C 
HETATM    7  O   UNL     1       4.277  31.927  62.593  1.00  0.00    -0.246 OA
HETATM    8  N   UNL     1       2.874  33.637  61.898  1.00  0.00    -0.309 N 
HETATM    9  C   UNL     1       2.358  33.969  63.230  1.00  0.00     0.134 C 
HETATM   10  C   UNL     1       3.230  35.025  63.950  1.00  0.00     0.061 C 
HETATM   11  C   UNL     1       3.808  35.999  62.971  1.00  0.00    -0.018 A 
HETATM   12  C   UNL     1       3.677  35.837  61.603  1.00  0.00     0.055 A 
HETATM   13  N   UNL     1       4.405  36.818  60.982  1.00  0.00    -0.356 N 
HETATM   14  H   UNL     1       4.537  36.912  59.980  1.00  0.00     0.166 HD
HETATM   15  C   UNL     1       5.071  37.567  61.929  1.00  0.00     0.043 A 
HETATM   16  C   UNL     1       4.684  37.097  63.188  1.00  0.00    -0.001 A 
HETATM   17  C   UNL     1       6.004  38.598  61.764  1.00  0.00     0.030 A 
HETATM   18  C   UNL     1       6.551  39.168  62.917  1.00  0.00     0.002 A 
HETATM   19  C   UNL     1       6.171  38.732  64.184  1.00  0.00     0.001 A 
HETATM   20  C   UNL     1       5.240  37.698  64.334  1.00  0.00     0.014 A 
ENDROOT
BRANCH   5  21
HETATM   21  C   UNL     1       5.684  32.328  60.020  1.00  0.00     0.063 A 
HETATM   22  C   UNL     1       6.860  32.276  60.798  1.00  0.00     0.060 A 
HETATM   23  C   UNL     1       7.945  31.485  60.387  1.00  0.00     0.019 A 
HETATM   24  C   UNL     1       7.889  30.782  59.186  1.00  0.00     0.001 A 
HETATM   25  C   UNL     1       6.761  30.881  58.378  1.00  0.00     0.002 A 
HETATM   26  C   UNL     1       5.670  31.652  58.788  1.00  0.00     0.031 A 
BRANCH  22  27
HETATM   27  C   UNL     1       7.083  33.116  62.006  1.00  0.00     0.268 C 
HETATM   28  N   UNL     1       7.503  32.430  63.144  1.00  0.00    -0.290 N 
HETATM   29  H   UNL     1       7.507  31.412  63.166  1.00  0.00     0.183 HD
HETATM   30  O   UNL     1       6.819  34.315  62.003  1.00  0.00    -0.266 OA
BRANCH  28  31
HETATM   31  N   UNL     1       7.631  33.132  64.361  1.00  0.00    -0.247 NA
HETATM   32  H   UNL     1       8.621  33.398  64.445  1.00  0.00     0.143 HD
HETATM   33  H   UNL     1       7.526  32.441  65.114  1.00  0.00     0.143 HD
ENDBRANCH  28  31
ENDBRANCH  22  27
ENDBRANCH   5  21
TORSDOF 3
ENDMDL
MODEL 10
REMARK VINA RESULT:      -7.6     15.943     18.091
REMARK  3 active torsions:
REMARK  status: ('A' for Active; 'I' for Inactive)
REMARK    1  A    between atoms: N_5  and  C_6 
REMARK    2  A    between atoms: C_7  and  C_8 
REMARK       I    between atoms: C_8  and  N_9 
REMARK    3  A    between atoms: N_9  and  N_10 
ROOT
HETATM    1  C   UNL     1      11.099   7.351  54.242  1.00  0.00     0.056 C 
HETATM    2  C   UNL     1      11.909   8.587  54.593  1.00  0.00     0.158 C 
HETATM    3  C   UNL     1      13.302   8.252  55.132  1.00  0.00     0.267 C 
HETATM    4  O   UNL     1      14.115   7.558  54.527  1.00  0.00    -0.269 OA
HETATM    5  N   UNL     1      13.512   9.003  56.270  1.00  0.00    -0.230 N 
HETATM    6  C   UNL     1      12.397   9.769  56.542  1.00  0.00     0.333 C 
HETATM    7  O   UNL     1      12.295  10.666  57.368  1.00  0.00    -0.246 OA
HETATM    8  N   UNL     1      11.359   9.356  55.700  1.00  0.00    -0.309 N 
HETATM    9  C   UNL     1      10.199  10.220  55.453  1.00  0.00     0.134 C 
HETATM   10  C   UNL     1      10.491  11.305  54.390  1.00  0.00     0.061 C 
HETATM   11  C   UNL     1      11.433  10.790  53.345  1.00  0.00    -0.018 A 
HETATM   12  C   UNL     1      12.052   9.557  53.452  1.00  0.00     0.055 A 
HETATM   13  N   UNL     1      12.932   9.427  52.409  1.00  0.00    -0.356 N 
HETATM   14  H   UNL     1      13.564   8.647  52.264  1.00  0.00     0.166 HD
HETATM   15  C   UNL     1      12.950  10.592  51.672  1.00  0.00     0.043 A 
HETATM   16  C   UNL     1      11.990  11.452  52.217  1.00  0.00    -0.001 A 
HETATM   17  C   UNL     1      13.760  10.957  50.591  1.00  0.00     0.030 A 
HETATM   18  C   UNL     1      13.581  12.233  50.047  1.00  0.00     0.002 A 
HETATM   19  C   UNL     1      12.621  13.103  50.558  1.00  0.00     0.001 A 
HETATM   20  C   UNL     1      11.820  12.726  51.642  1.00  0.00     0.014 A 
ENDROOT
BRANCH   5  21
HETATM   21  C   UNL     1      14.815   9.229  56.783  1.00  0.00     0.063 A 
HETATM   22  C   UNL     1      15.656  10.250  56.294  1.00  0.00     0.060 A 
HETATM   23  C   UNL     1      16.837  10.583  56.977  1.00  0.00     0.019 A 
HETATM   24  C   UNL     1      17.213   9.876  58.118  1.00  0.00     0.001 A 
HETATM   25  C   UNL     1      16.425   8.823  58.570  1.00  0.00     0.002 A 
HETATM   26  C   UNL     1      15.240   8.496  57.906  1.00  0.00     0.031 A 
BRANCH  22  27
HETATM   27  C   UNL     1      15.430  10.949  54.999  1.00  0.00     0.268 C 
HETATM   28  N   UNL     1      16.329  10.633  53.983  1.00  0.00    -0.290 N 
HETATM   29  H   UNL     1      17.160  10.077  54.178  1.00  0.00     0.183 HD
HETATM   30  O   UNL     1      14.562  11.810  54.886  1.00  0.00    -0.266 OA
BRANCH  28  31
HETATM   31  N   UNL     1      16.256  11.331  52.759  1.00  0.00    -0.247 NA
HETATM   32  H   UNL     1      16.618  10.696  52.036  1.00  0.00     0.143 HD
HETATM   33  H   UNL     1      16.976  12.061  52.790  1.00  0.00     0.143 HD
ENDBRANCH  28  31
ENDBRANCH  22  27
ENDBRANCH   5  21
TORSDOF 3
ENDMDL
