MODEL 1
REMARK VINA RESULT:      -9.7      0.000      0.000
REMARK  7 active torsions:
REMARK  status: ('A' for Active; 'I' for Inactive)
REMARK    1  A    between atoms: O_2  and  C_3 
REMARK    2  A    between atoms: C_6  and  C_7 
REMARK    3  A    between atoms: N_8  and  N_9 
REMARK       I    between atoms: N_9  and  C_10 
REMARK    4  A    between atoms: C_10  and  C_11 
REMARK       I    between atoms: C_11  and  N_12 
REMARK    5  A    between atoms: N_12  and  C_13 
REMARK    6  A    between atoms: C_14  and  C_15 
REMARK       I    between atoms: C_15  and  N_16 
REMARK    7  A    between atoms: N_16  and  C_17 
ROOT
HETATM    1  C   UNL     1       6.536  31.853  59.006  1.00  0.00     0.315 C 
HETATM    2  N   UNL     1       7.506  30.908  59.278  1.00  0.00    -0.318 N 
HETATM    3  O   UNL     1       6.219  32.349  57.937  1.00  0.00    -0.262 OA
HETATM    4  H   UNL     1       7.744  30.869  60.270  1.00  0.00     0.169 HD
ENDROOT
BRANCH   2   5
HETATM    5  C   UNL     1       8.417  30.350  58.361  1.00  0.00     0.051 A 
HETATM    6  C   UNL     1       8.142  29.358  57.403  1.00  0.00     0.058 A 
HETATM    7  C   UNL     1       9.145  28.986  56.485  1.00  0.00     0.019 A 
HETATM    8  C   UNL     1      10.419  29.548  56.541  1.00  0.00     0.001 A 
HETATM    9  C   UNL     1      10.712  30.480  57.528  1.00  0.00     0.002 A 
HETATM   10  C   UNL     1       9.722  30.872  58.433  1.00  0.00     0.030 A 
BRANCH   6  11
HETATM   11  C   UNL     1       6.935  28.487  57.371  1.00  0.00     0.254 C 
HETATM   12  N   UNL     1       7.152  27.174  56.995  1.00  0.00    -0.352 N 
HETATM   13  H   UNL     1       8.098  26.899  56.766  1.00  0.00     0.163 HD
HETATM   14  O   UNL     1       5.821  28.980  57.511  1.00  0.00    -0.268 OA
BRANCH  12  15
HETATM   15  C   UNL     1       6.050  26.324  56.555  1.00  0.00     0.084 C 
HETATM   16  C   UNL     1       5.801  26.494  55.049  1.00  0.00     0.025 C 
HETATM   17  C   UNL     1       6.862  25.806  54.192  1.00  0.00     0.002 C 
HETATM   18  C   UNL     1       7.005  24.333  54.559  1.00  0.00     0.000 C 
HETATM   19  C   UNL     1       7.306  24.158  56.043  1.00  0.00     0.002 C 
HETATM   20  C   UNL     1       6.259  24.846  56.917  1.00  0.00     0.025 C 
ENDBRANCH  12  15
ENDBRANCH   6  11
ENDBRANCH   2   5
BRANCH   1  21
HETATM   21  C   UNL     1       5.873  32.363  60.296  1.00  0.00     0.329 C 
HETATM   22  N   UNL     1       6.456  31.852  61.437  1.00  0.00    -0.239 N 
HETATM   23  H   UNL     1       7.230  31.198  61.335  1.00  0.00     0.192 HD
HETATM   24  O   UNL     1       4.919  33.128  60.200  1.00  0.00    -0.261 OA
BRANCH  22  25
HETATM   25  N   UNL     1       5.951  32.166  62.662  1.00  0.00    -0.183 NA
HETATM   26  C   UNL     1       6.614  33.054  63.332  1.00  0.00     0.150 C 
BRANCH  26  27
HETATM   27  C   UNL     1       6.192  33.479  64.683  1.00  0.00    -0.017 A 
HETATM   28  C   UNL     1       7.135  33.765  65.673  1.00  0.00     0.016 A 
HETATM   29  C   UNL     1       6.708  34.177  66.938  1.00  0.00     0.037 A 
HETATM   30  C   UNL     1       5.346  34.317  67.219  1.00  0.00     0.068 A 
HETATM   31  C   UNL     1       4.407  34.016  66.231  1.00  0.00     0.037 A 
HETATM   32  C   UNL     1       4.828  33.598  64.962  1.00  0.00     0.016 A 
BRANCH  30  33
HETATM   33  O   UNL     1       5.063  34.734  68.491  1.00  0.00    -0.356 OA
HETATM   34  C   UNL     1       5.976  34.342  69.508  1.00  0.00     0.210 C 
ENDBRANCH  30  33
ENDBRANCH  26  27
ENDBRANCH  22  25
ENDBRANCH   1  21
TORSDOF 7
ENDMDL
MODEL 2
REMARK VINA RESULT:      -9.3      3.178      9.382
REMARK  7 active torsions:
REMARK  status: ('A' for Active; 'I' for Inactive)
REMARK    1  A    between atoms: O_2  and  C_3 
REMARK    2  A    between atoms: C_6  and  C_7 
REMARK    3  A    between atoms: N_8  and  N_9 
REMARK       I    between atoms: N_9  and  C_10 
REMARK    4  A    between atoms: C_10  and  C_11 
REMARK       I    between atoms: C_11  and  N_12 
REMARK    5  A    between atoms: N_12  and  C_13 
REMARK    6  A    between atoms: C_14  and  C_15 
REMARK       I    between atoms: C_15  and  N_16 
REMARK    7  A    between atoms: N_16  and  C_17 
ROOT
HETATM    1  C   UNL     1       9.460  30.971  58.706  1.00  0.00     0.315 C 
HETATM    2  N   UNL     1       8.572  30.632  59.707  1.00  0.00    -0.318 N 
HETATM    3  O   UNL     1       9.999  32.044  58.482  1.00  0.00    -0.262 OA
HETATM    4  H   UNL     1       8.075  29.762  59.509  1.00  0.00     0.169 HD
ENDROOT
BRANCH   2   5
HETATM    5  C   UNL     1       8.021  31.497  60.672  1.00  0.00     0.051 A 
HETATM    6  C   UNL     1       6.817  32.215  60.566  1.00  0.00     0.058 A 
HETATM    7  C   UNL     1       6.352  32.955  61.672  1.00  0.00     0.019 A 
HETATM    8  C   UNL     1       7.091  33.028  62.852  1.00  0.00     0.001 A 
HETATM    9  C   UNL     1       8.313  32.374  62.935  1.00  0.00     0.002 A 
HETATM   10  C   UNL     1       8.776  31.621  61.853  1.00  0.00     0.030 A 
BRANCH   6  11
HETATM   11  C   UNL     1       6.047  32.447  59.313  1.00  0.00     0.254 C 
HETATM   12  N   UNL     1       5.862  31.338  58.507  1.00  0.00    -0.352 N 
HETATM   13  H   UNL     1       6.260  30.461  58.815  1.00  0.00     0.163 HD
HETATM   14  O   UNL     1       5.759  33.590  58.974  1.00  0.00    -0.268 OA
BRANCH  12  15
HETATM   15  C   UNL     1       5.477  31.480  57.107  1.00  0.00     0.084 C 
HETATM   16  C   UNL     1       6.010  30.304  56.275  1.00  0.00     0.025 C 
HETATM   17  C   UNL     1       5.227  29.013  56.507  1.00  0.00     0.002 C 
HETATM   18  C   UNL     1       3.735  29.216  56.272  1.00  0.00     0.000 C 
HETATM   19  C   UNL     1       3.186  30.347  57.135  1.00  0.00     0.002 C 
HETATM   20  C   UNL     1       3.961  31.646  56.922  1.00  0.00     0.025 C 
ENDBRANCH  12  15
ENDBRANCH   6  11
ENDBRANCH   2   5
BRANCH   1  21
HETATM   21  C   UNL     1       9.677  29.804  57.729  1.00  0.00     0.329 C 
HETATM   22  N   UNL     1       8.663  28.869  57.777  1.00  0.00    -0.239 N 
HETATM   23  H   UNL     1       7.901  29.015  58.436  1.00  0.00     0.192 HD
HETATM   24  O   UNL     1      10.692  29.798  57.040  1.00  0.00    -0.261 OA
BRANCH  22  25
HETATM   25  N   UNL     1       8.731  27.746  57.010  1.00  0.00    -0.183 NA
HETATM   26  C   UNL     1       7.948  26.777  57.361  1.00  0.00     0.150 C 
BRANCH  26  27
HETATM   27  C   UNL     1       7.928  25.494  56.629  1.00  0.00    -0.017 A 
HETATM   28  C   UNL     1       8.732  24.425  57.033  1.00  0.00     0.016 A 
HETATM   29  C   UNL     1       8.684  23.219  56.329  1.00  0.00     0.037 A 
HETATM   30  C   UNL     1       7.831  23.066  55.233  1.00  0.00     0.068 A 
HETATM   31  C   UNL     1       7.040  24.142  54.825  1.00  0.00     0.037 A 
HETATM   32  C   UNL     1       7.086  25.356  55.522  1.00  0.00     0.016 A 
BRANCH  30  33
HETATM   33  O   UNL     1       7.874  21.835  54.639  1.00  0.00    -0.356 OA
HETATM   34  C   UNL     1       8.798  21.677  53.569  1.00  0.00     0.210 C 
ENDBRANCH  30  33
ENDBRANCH  26  27
ENDBRANCH  22  25
ENDBRANCH   1  21
TORSDOF 7
ENDMDL
MODEL 3
REMARK VINA RESULT:      -9.1      2.554      9.384
REMARK  7 active torsions:
REMARK  status: ('A' for Active; 'I' for Inactive)
REMARK    1  A    between atoms: O_2  and  C_3 
REMARK    2  A    between atoms: C_6  and  C_7 
REMARK    3  A    between atoms: N_8  and  N_9 
REMARK       I    between atoms: N_9  and  C_10 
REMARK    4  A    between atoms: C_10  and  C_11 
REMARK       I    between atoms: C_11  and  N_12 
REMARK    5  A    between atoms: N_12  and  C_13 
REMARK    6  A    between atoms: C_14  and  C_15 
REMARK       I    between atoms: C_15  and  N_16 
REMARK    7  A    between atoms: N_16  and  C_17 
ROOT
HETATM    1  C   UNL     1       8.410  31.663  60.117  1.00  0.00     0.315 C 
HETATM    2  N   UNL     1       7.719  31.149  61.196  1.00  0.00    -0.318 N 
HETATM    3  O   UNL     1       8.740  32.816  59.889  1.00  0.00    -0.262 OA
HETATM    4  H   UNL     1       7.344  30.217  61.011  1.00  0.00     0.169 HD
ENDROOT
BRANCH   2   5
HETATM    5  C   UNL     1       7.164  31.879  62.265  1.00  0.00     0.051 A 
HETATM    6  C   UNL     1       5.797  32.037  62.554  1.00  0.00     0.058 A 
HETATM    7  C   UNL     1       5.411  32.711  63.730  1.00  0.00     0.019 A 
HETATM    8  C   UNL     1       6.360  33.268  64.586  1.00  0.00     0.001 A 
HETATM    9  C   UNL     1       7.708  33.170  64.268  1.00  0.00     0.002 A 
HETATM   10  C   UNL     1       8.106  32.487  63.116  1.00  0.00     0.030 A 
BRANCH   6  11
HETATM   11  C   UNL     1       4.669  31.732  61.630  1.00  0.00     0.254 C 
HETATM   12  N   UNL     1       4.934  31.900  60.283  1.00  0.00    -0.352 N 
HETATM   13  H   UNL     1       5.857  32.220  60.021  1.00  0.00     0.163 HD
HETATM   14  O   UNL     1       3.551  31.512  62.081  1.00  0.00    -0.268 OA
BRANCH  12  15
HETATM   15  C   UNL     1       3.852  32.012  59.310  1.00  0.00     0.084 C 
HETATM   16  C   UNL     1       3.632  33.478  58.909  1.00  0.00     0.025 C 
HETATM   17  C   UNL     1       4.719  34.005  57.973  1.00  0.00     0.002 C 
HETATM   18  C   UNL     1       4.872  33.118  56.743  1.00  0.00     0.000 C 
HETATM   19  C   UNL     1       5.145  31.670  57.132  1.00  0.00     0.002 C 
HETATM   20  C   UNL     1       4.071  31.128  58.074  1.00  0.00     0.025 C 
ENDBRANCH  12  15
ENDBRANCH   6  11
ENDBRANCH   2   5
BRANCH   1  21
HETATM   21  C   UNL     1       8.684  30.582  59.059  1.00  0.00     0.329 C 
HETATM   22  N   UNL     1       7.808  29.518  59.141  1.00  0.00    -0.239 N 
HETATM   23  H   UNL     1       7.098  29.530  59.870  1.00  0.00     0.192 HD
HETATM   24  O   UNL     1       9.622  30.743  58.286  1.00  0.00    -0.261 OA
BRANCH  22  25
HETATM   25  N   UNL     1       7.949  28.451  58.307  1.00  0.00    -0.183 NA
HETATM   26  C   UNL     1       6.917  28.166  57.579  1.00  0.00     0.150 C 
BRANCH  26  27
HETATM   27  C   UNL     1       6.921  27.024  56.641  1.00  0.00    -0.017 A 
HETATM   28  C   UNL     1       6.712  25.721  57.097  1.00  0.00     0.016 A 
HETATM   29  C   UNL     1       6.710  24.661  56.186  1.00  0.00     0.037 A 
HETATM   30  C   UNL     1       6.903  24.894  54.822  1.00  0.00     0.068 A 
HETATM   31  C   UNL     1       7.126  26.197  54.373  1.00  0.00     0.037 A 
HETATM   32  C   UNL     1       7.134  27.264  55.281  1.00  0.00     0.016 A 
BRANCH  30  33
HETATM   33  O   UNL     1       6.869  23.773  54.038  1.00  0.00    -0.356 OA
HETATM   34  C   UNL     1       7.454  22.597  54.584  1.00  0.00     0.210 C 
ENDBRANCH  30  33
ENDBRANCH  26  27
ENDBRANCH  22  25
ENDBRANCH   1  21
TORSDOF 7
ENDMDL
MODEL 4
REMARK VINA RESULT:      -9.1      2.917     10.182
REMARK  7 active torsions:
REMARK  status: ('A' for Active; 'I' for Inactive)
REMARK    1  A    between atoms: O_2  and  C_3 
REMARK    2  A    between atoms: C_6  and  C_7 
REMARK    3  A    between atoms: N_8  and  N_9 
REMARK       I    between atoms: N_9  and  C_10 
REMARK    4  A    between atoms: C_10  and  C_11 
REMARK       I    between atoms: C_11  and  N_12 
REMARK    5  A    between atoms: N_12  and  C_13 
REMARK    6  A    between atoms: C_14  and  C_15 
REMARK       I    between atoms: C_15  and  N_16 
REMARK    7  A    between atoms: N_16  and  C_17 
ROOT
HETATM    1  C   UNL     1       9.101  31.265  59.155  1.00  0.00     0.315 C 
HETATM    2  N   UNL     1       8.260  30.895  60.186  1.00  0.00    -0.318 N 
HETATM    3  O   UNL     1       9.604  32.352  58.920  1.00  0.00    -0.262 OA
HETATM    4  H   UNL     1       7.778  30.014  59.999  1.00  0.00     0.169 HD
ENDROOT
BRANCH   2   5
HETATM    5  C   UNL     1       7.727  31.738  61.180  1.00  0.00     0.051 A 
HETATM    6  C   UNL     1       6.500  32.422  61.130  1.00  0.00     0.058 A 
HETATM    7  C   UNL     1       6.061  33.141  62.260  1.00  0.00     0.019 A 
HETATM    8  C   UNL     1       6.847  33.228  63.408  1.00  0.00     0.001 A 
HETATM    9  C   UNL     1       8.089  32.607  63.436  1.00  0.00     0.002 A 
HETATM   10  C   UNL     1       8.527  31.875  62.330  1.00  0.00     0.030 A 
BRANCH   6  11
HETATM   11  C   UNL     1       5.672  32.641  59.912  1.00  0.00     0.254 C 
HETATM   12  N   UNL     1       4.865  33.764  59.928  1.00  0.00    -0.352 N 
HETATM   13  H   UNL     1       4.886  34.347  60.754  1.00  0.00     0.163 HD
HETATM   14  O   UNL     1       5.614  31.774  59.046  1.00  0.00    -0.268 OA
BRANCH  12  15
HETATM   15  C   UNL     1       3.745  33.902  59.003  1.00  0.00     0.084 C 
HETATM   16  C   UNL     1       2.515  34.478  59.719  1.00  0.00     0.025 C 
HETATM   17  C   UNL     1       2.645  35.973  60.008  1.00  0.00     0.002 C 
HETATM   18  C   UNL     1       2.956  36.759  58.739  1.00  0.00     0.000 C 
HETATM   19  C   UNL     1       4.208  36.228  58.050  1.00  0.00     0.002 C 
HETATM   20  C   UNL     1       4.100  34.732  57.760  1.00  0.00     0.025 C 
ENDBRANCH  12  15
ENDBRANCH   6  11
ENDBRANCH   2   5
BRANCH   1  21
HETATM   21  C   UNL     1       9.308  30.112  58.158  1.00  0.00     0.329 C 
HETATM   22  N   UNL     1       8.229  29.253  58.101  1.00  0.00    -0.239 N 
HETATM   23  H   UNL     1       7.431  29.436  58.706  1.00  0.00     0.192 HD
HETATM   24  O   UNL     1      10.369  30.050  57.547  1.00  0.00    -0.261 OA
BRANCH  22  25
HETATM   25  N   UNL     1       8.276  28.149  57.305  1.00  0.00    -0.183 NA
HETATM   26  C   UNL     1       7.627  27.116  57.738  1.00  0.00     0.150 C 
BRANCH  26  27
HETATM   27  C   UNL     1       7.604  25.844  56.985  1.00  0.00    -0.017 A 
HETATM   28  C   UNL     1       6.710  25.652  55.930  1.00  0.00     0.016 A 
HETATM   29  C   UNL     1       6.718  24.444  55.228  1.00  0.00     0.037 A 
HETATM   30  C   UNL     1       7.621  23.431  55.562  1.00  0.00     0.068 A 
HETATM   31  C   UNL     1       8.504  23.624  56.627  1.00  0.00     0.037 A 
HETATM   32  C   UNL     1       8.498  24.830  57.339  1.00  0.00     0.016 A 
BRANCH  30  33
HETATM   33  O   UNL     1       7.531  22.304  54.792  1.00  0.00    -0.356 OA
HETATM   34  C   UNL     1       7.724  22.472  53.393  1.00  0.00     0.210 C 
ENDBRANCH  30  33
ENDBRANCH  26  27
ENDBRANCH  22  25
ENDBRANCH   1  21
TORSDOF 7
ENDMDL
MODEL 5
REMARK VINA RESULT:      -9.0      2.583     10.225
REMARK  7 active torsions:
REMARK  status: ('A' for Active; 'I' for Inactive)
REMARK    1  A    between atoms: O_2  and  C_3 
REMARK    2  A    between atoms: C_6  and  C_7 
REMARK    3  A    between atoms: N_8  and  N_9 
REMARK       I    between atoms: N_9  and  C_10 
REMARK    4  A    between atoms: C_10  and  C_11 
REMARK       I    between atoms: C_11  and  N_12 
REMARK    5  A    between atoms: N_12  and  C_13 
REMARK    6  A    between atoms: C_14  and  C_15 
REMARK       I    between atoms: C_15  and  N_16 
REMARK    7  A    between atoms: N_16  and  C_17 
ROOT
HETATM    1  C   UNL     1       7.308  31.404  59.064  1.00  0.00     0.315 C 
HETATM    2  N   UNL     1       6.039  31.359  58.522  1.00  0.00    -0.318 N 
HETATM    3  O   UNL     1       7.904  32.347  59.559  1.00  0.00    -0.262 OA
HETATM    4  H   UNL     1       5.891  30.531  57.943  1.00  0.00     0.169 HD
ENDROOT
BRANCH   2   5
HETATM    5  C   UNL     1       5.158  32.445  58.352  1.00  0.00     0.051 A 
HETATM    6  C   UNL     1       4.481  33.143  59.368  1.00  0.00     0.058 A 
HETATM    7  C   UNL     1       3.718  34.281  59.035  1.00  0.00     0.019 A 
HETATM    8  C   UNL     1       3.582  34.695  57.712  1.00  0.00     0.001 A 
HETATM    9  C   UNL     1       4.196  33.968  56.700  1.00  0.00     0.002 A 
HETATM   10  C   UNL     1       4.971  32.850  57.017  1.00  0.00     0.030 A 
BRANCH   6  11
HETATM   11  C   UNL     1       4.315  32.690  60.776  1.00  0.00     0.254 C 
HETATM   12  N   UNL     1       5.394  32.917  61.611  1.00  0.00    -0.352 N 
HETATM   13  H   UNL     1       6.212  33.361  61.214  1.00  0.00     0.163 HD
HETATM   14  O   UNL     1       3.340  32.018  61.092  1.00  0.00    -0.268 OA
BRANCH  12  15
HETATM   15  C   UNL     1       5.530  32.206  62.878  1.00  0.00     0.084 C 
HETATM   16  C   UNL     1       6.920  31.565  62.996  1.00  0.00     0.025 C 
HETATM   17  C   UNL     1       8.019  32.585  63.288  1.00  0.00     0.002 C 
HETATM   18  C   UNL     1       7.694  33.415  64.525  1.00  0.00     0.000 C 
HETATM   19  C   UNL     1       6.338  34.099  64.393  1.00  0.00     0.002 C 
HETATM   20  C   UNL     1       5.226  33.095  64.094  1.00  0.00     0.025 C 
ENDBRANCH  12  15
ENDBRANCH   6  11
ENDBRANCH   2   5
BRANCH   1  21
HETATM   21  C   UNL     1       8.037  30.060  58.898  1.00  0.00     0.329 C 
HETATM   22  N   UNL     1       7.404  29.213  58.012  1.00  0.00    -0.239 N 
HETATM   23  H   UNL     1       6.540  29.527  57.575  1.00  0.00     0.192 HD
HETATM   24  O   UNL     1       9.056  29.862  59.551  1.00  0.00    -0.261 OA
BRANCH  22  25
HETATM   25  N   UNL     1       7.894  27.962  57.793  1.00  0.00    -0.183 NA
HETATM   26  C   UNL     1       7.295  27.276  56.872  1.00  0.00     0.150 C 
BRANCH  26  27
HETATM   27  C   UNL     1       7.710  25.897  56.540  1.00  0.00    -0.017 A 
HETATM   28  C   UNL     1       7.446  25.353  55.280  1.00  0.00     0.016 A 
HETATM   29  C   UNL     1       7.860  24.051  54.989  1.00  0.00     0.037 A 
HETATM   30  C   UNL     1       8.547  23.292  55.940  1.00  0.00     0.068 A 
HETATM   31  C   UNL     1       8.795  23.836  57.203  1.00  0.00     0.037 A 
HETATM   32  C   UNL     1       8.379  25.139  57.503  1.00  0.00     0.016 A 
BRANCH  30  33
HETATM   33  O   UNL     1       8.903  22.038  55.526  1.00  0.00    -0.356 OA
HETATM   34  C   UNL     1       8.063  21.425  54.555  1.00  0.00     0.210 C 
ENDBRANCH  30  33
ENDBRANCH  26  27
ENDBRANCH  22  25
ENDBRANCH   1  21
TORSDOF 7
ENDMDL
MODEL 6
REMARK VINA RESULT:      -9.0      3.640      6.157
REMARK  7 active torsions:
REMARK  status: ('A' for Active; 'I' for Inactive)
REMARK    1  A    between atoms: O_2  and  C_3 
REMARK    2  A    between atoms: C_6  and  C_7 
REMARK    3  A    between atoms: N_8  and  N_9 
REMARK       I    between atoms: N_9  and  C_10 
REMARK    4  A    between atoms: C_10  and  C_11 
REMARK       I    between atoms: C_11  and  N_12 
REMARK    5  A    between atoms: N_12  and  C_13 
REMARK    6  A    between atoms: C_14  and  C_15 
REMARK       I    between atoms: C_15  and  N_16 
REMARK    7  A    between atoms: N_16  and  C_17 
ROOT
HETATM    1  C   UNL     1       7.566  28.047  55.518  1.00  0.00     0.315 C 
HETATM    2  N   UNL     1       6.883  26.875  55.260  1.00  0.00    -0.318 N 
HETATM    3  O   UNL     1       8.391  28.628  54.831  1.00  0.00    -0.262 OA
HETATM    4  H   UNL     1       6.464  26.475  56.101  1.00  0.00     0.169 HD
ENDROOT
BRANCH   2   5
HETATM    5  C   UNL     1       7.050  26.032  54.144  1.00  0.00     0.051 A 
HETATM    6  C   UNL     1       6.643  26.295  52.825  1.00  0.00     0.058 A 
HETATM    7  C   UNL     1       6.986  25.389  51.801  1.00  0.00     0.019 A 
HETATM    8  C   UNL     1       7.679  24.212  52.081  1.00  0.00     0.001 A 
HETATM    9  C   UNL     1       8.024  23.919  53.394  1.00  0.00     0.002 A 
HETATM   10  C   UNL     1       7.708  24.817  54.416  1.00  0.00     0.030 A 
BRANCH   6  11
HETATM   11  C   UNL     1       5.692  27.359  52.401  1.00  0.00     0.254 C 
HETATM   12  N   UNL     1       5.468  27.457  51.040  1.00  0.00    -0.352 N 
HETATM   13  H   UNL     1       5.961  26.815  50.434  1.00  0.00     0.163 HD
HETATM   14  O   UNL     1       5.286  28.178  53.218  1.00  0.00    -0.268 OA
BRANCH  12  15
HETATM   15  C   UNL     1       4.882  28.659  50.457  1.00  0.00     0.084 C 
HETATM   16  C   UNL     1       5.675  29.106  49.220  1.00  0.00     0.025 C 
HETATM   17  C   UNL     1       5.420  28.220  48.002  1.00  0.00     0.002 C 
HETATM   18  C   UNL     1       3.932  28.118  47.689  1.00  0.00     0.000 C 
HETATM   19  C   UNL     1       3.143  27.623  48.896  1.00  0.00     0.002 C 
HETATM   20  C   UNL     1       3.391  28.494  50.127  1.00  0.00     0.025 C 
ENDBRANCH  12  15
ENDBRANCH   6  11
ENDBRANCH   2   5
BRANCH   1  21
HETATM   21  C   UNL     1       7.253  28.580  56.926  1.00  0.00     0.329 C 
HETATM   22  N   UNL     1       8.385  28.964  57.617  1.00  0.00    -0.239 N 
HETATM   23  H   UNL     1       9.290  28.852  57.164  1.00  0.00     0.192 HD
HETATM   24  O   UNL     1       6.086  28.598  57.299  1.00  0.00    -0.261 OA
BRANCH  22  25
HETATM   25  N   UNL     1       8.284  29.410  58.900  1.00  0.00    -0.183 NA
HETATM   26  C   UNL     1       8.168  30.692  59.041  1.00  0.00     0.150 C 
BRANCH  26  27
HETATM   27  C   UNL     1       8.067  31.317  60.376  1.00  0.00    -0.017 A 
HETATM   28  C   UNL     1       8.791  30.816  61.460  1.00  0.00     0.016 A 
HETATM   29  C   UNL     1       8.685  31.434  62.708  1.00  0.00     0.037 A 
HETATM   30  C   UNL     1       7.871  32.557  62.881  1.00  0.00     0.068 A 
HETATM   31  C   UNL     1       7.139  33.046  61.797  1.00  0.00     0.037 A 
HETATM   32  C   UNL     1       7.236  32.428  60.544  1.00  0.00     0.016 A 
BRANCH  30  33
HETATM   33  O   UNL     1       7.863  33.071  64.148  1.00  0.00    -0.356 OA
HETATM   34  C   UNL     1       6.597  33.460  64.669  1.00  0.00     0.210 C 
ENDBRANCH  30  33
ENDBRANCH  26  27
ENDBRANCH  22  25
ENDBRANCH   1  21
TORSDOF 7
ENDMDL
MODEL 7
REMARK VINA RESULT:      -8.9      2.727      5.572
REMARK  7 active torsions:
REMARK  status: ('A' for Active; 'I' for Inactive)
REMARK    1  A    between atoms: O_2  and  C_3 
REMARK    2  A    between atoms: C_6  and  C_7 
REMARK    3  A    between atoms: N_8  and  N_9 
REMARK       I    between atoms: N_9  and  C_10 
REMARK    4  A    between atoms: C_10  and  C_11 
REMARK       I    between atoms: C_11  and  N_12 
REMARK    5  A    between atoms: N_12  and  C_13 
REMARK    6  A    between atoms: C_14  and  C_15 
REMARK       I    between atoms: C_15  and  N_16 
REMARK    7  A    between atoms: N_16  and  C_17 
ROOT
HETATM    1  C   UNL     1       6.448  28.337  55.484  1.00  0.00     0.315 C 
HETATM    2  N   UNL     1       5.457  27.433  55.155  1.00  0.00    -0.318 N 
HETATM    3  O   UNL     1       7.485  28.596  54.896  1.00  0.00    -0.262 OA
HETATM    4  H   UNL     1       4.843  27.223  55.943  1.00  0.00     0.169 HD
ENDROOT
BRANCH   2   5
HETATM    5  C   UNL     1       5.467  26.533  54.071  1.00  0.00     0.051 A 
HETATM    6  C   UNL     1       6.096  25.276  54.030  1.00  0.00     0.058 A 
HETATM    7  C   UNL     1       5.916  24.449  52.902  1.00  0.00     0.019 A 
HETATM    8  C   UNL     1       5.168  24.876  51.807  1.00  0.00     0.001 A 
HETATM    9  C   UNL     1       4.601  26.144  51.819  1.00  0.00     0.002 A 
HETATM   10  C   UNL     1       4.754  26.966  52.937  1.00  0.00     0.030 A 
BRANCH   6  11
HETATM   11  C   UNL     1       7.122  24.782  54.988  1.00  0.00     0.254 C 
HETATM   12  N   UNL     1       8.059  23.908  54.468  1.00  0.00    -0.352 N 
HETATM   13  H   UNL     1       7.982  23.662  53.490  1.00  0.00     0.163 HD
HETATM   14  O   UNL     1       7.009  25.025  56.185  1.00  0.00    -0.268 OA
BRANCH  12  15
HETATM   15  C   UNL     1       8.868  23.063  55.340  1.00  0.00     0.084 C 
HETATM   16  C   UNL     1       7.974  22.221  56.262  1.00  0.00     0.025 C 
HETATM   17  C   UNL     1       7.295  21.063  55.533  1.00  0.00     0.002 C 
HETATM   18  C   UNL     1       8.312  20.187  54.810  1.00  0.00     0.000 C 
HETATM   19  C   UNL     1       9.168  21.007  53.851  1.00  0.00     0.002 C 
HETATM   20  C   UNL     1       9.850  22.175  54.561  1.00  0.00     0.025 C 
ENDBRANCH  12  15
ENDBRANCH   6  11
ENDBRANCH   2   5
BRANCH   1  21
HETATM   21  C   UNL     1       6.170  29.002  56.843  1.00  0.00     0.329 C 
HETATM   22  N   UNL     1       6.956  30.114  57.066  1.00  0.00    -0.239 N 
HETATM   23  H   UNL     1       7.633  30.380  56.353  1.00  0.00     0.192 HD
HETATM   24  O   UNL     1       5.330  28.498  57.580  1.00  0.00    -0.261 OA
BRANCH  22  25
HETATM   25  N   UNL     1       6.870  30.787  58.247  1.00  0.00    -0.183 NA
HETATM   26  C   UNL     1       7.844  30.593  59.077  1.00  0.00     0.150 C 
BRANCH  26  27
HETATM   27  C   UNL     1       7.873  31.245  60.403  1.00  0.00    -0.017 A 
HETATM   28  C   UNL     1       8.762  30.818  61.392  1.00  0.00     0.016 A 
HETATM   29  C   UNL     1       8.776  31.460  62.633  1.00  0.00     0.037 A 
HETATM   30  C   UNL     1       7.920  32.534  62.889  1.00  0.00     0.068 A 
HETATM   31  C   UNL     1       7.024  32.948  61.901  1.00  0.00     0.037 A 
HETATM   32  C   UNL     1       7.000  32.305  60.657  1.00  0.00     0.016 A 
BRANCH  30  33
HETATM   33  O   UNL     1       8.040  33.079  64.138  1.00  0.00    -0.356 OA
HETATM   34  C   UNL     1       6.854  33.608  64.719  1.00  0.00     0.210 C 
ENDBRANCH  30  33
ENDBRANCH  26  27
ENDBRANCH  22  25
ENDBRANCH   1  21
TORSDOF 7
ENDMDL
MODEL 8
REMARK VINA RESULT:      -8.9      7.837     12.998
REMARK  7 active torsions:
REMARK  status: ('A' for Active; 'I' for Inactive)
REMARK    1  A    between atoms: O_2  and  C_3 
REMARK    2  A    between atoms: C_6  and  C_7 
REMARK    3  A    between atoms: N_8  and  N_9 
REMARK       I    between atoms: N_9  and  C_10 
REMARK    4  A    between atoms: C_10  and  C_11 
REMARK       I    between atoms: C_11  and  N_12 
REMARK    5  A    between atoms: N_12  and  C_13 
REMARK    6  A    between atoms: C_14  and  C_15 
REMARK       I    between atoms: C_15  and  N_16 
REMARK    7  A    between atoms: N_16  and  C_17 
ROOT
HETATM    1  C   UNL     1       6.907  24.802  52.378  1.00  0.00     0.315 C 
HETATM    2  N   UNL     1       6.562  23.738  53.187  1.00  0.00    -0.318 N 
HETATM    3  O   UNL     1       8.014  25.242  52.108  1.00  0.00    -0.262 OA
HETATM    4  H   UNL     1       5.577  23.753  53.453  1.00  0.00     0.169 HD
ENDROOT
BRANCH   2   5
HETATM    5  C   UNL     1       7.439  22.949  53.958  1.00  0.00     0.051 A 
HETATM    6  C   UNL     1       7.804  23.166  55.298  1.00  0.00     0.058 A 
HETATM    7  C   UNL     1       8.610  22.216  55.959  1.00  0.00     0.019 A 
HETATM    8  C   UNL     1       9.093  21.092  55.291  1.00  0.00     0.001 A 
HETATM    9  C   UNL     1       8.788  20.910  53.949  1.00  0.00     0.002 A 
HETATM   10  C   UNL     1       7.974  21.833  53.287  1.00  0.00     0.030 A 
BRANCH   6  11
HETATM   11  C   UNL     1       7.589  24.421  56.069  1.00  0.00     0.254 C 
HETATM   12  N   UNL     1       7.297  25.545  55.317  1.00  0.00    -0.352 N 
HETATM   13  H   UNL     1       7.256  25.441  54.312  1.00  0.00     0.163 HD
HETATM   14  O   UNL     1       7.829  24.451  57.271  1.00  0.00    -0.268 OA
BRANCH  12  15
HETATM   15  C   UNL     1       7.439  26.885  55.877  1.00  0.00     0.084 C 
HETATM   16  C   UNL     1       7.822  27.893  54.784  1.00  0.00     0.025 C 
HETATM   17  C   UNL     1       6.651  28.246  53.868  1.00  0.00     0.002 C 
HETATM   18  C   UNL     1       5.448  28.736  54.666  1.00  0.00     0.000 C 
HETATM   19  C   UNL     1       5.027  27.716  55.717  1.00  0.00     0.002 C 
HETATM   20  C   UNL     1       6.187  27.345  56.640  1.00  0.00     0.025 C 
ENDBRANCH  12  15
ENDBRANCH   6  11
ENDBRANCH   2   5
BRANCH   1  21
HETATM   21  C   UNL     1       5.661  25.537  51.858  1.00  0.00     0.329 C 
HETATM   22  N   UNL     1       5.853  26.107  50.616  1.00  0.00    -0.239 N 
HETATM   23  H   UNL     1       6.766  26.011  50.175  1.00  0.00     0.192 HD
HETATM   24  O   UNL     1       4.661  25.568  52.567  1.00  0.00    -0.261 OA
BRANCH  22  25
HETATM   25  N   UNL     1       4.862  26.839  50.038  1.00  0.00    -0.183 NA
HETATM   26  C   UNL     1       4.389  26.368  48.928  1.00  0.00     0.150 C 
BRANCH  26  27
HETATM   27  C   UNL     1       3.322  27.067  48.182  1.00  0.00    -0.017 A 
HETATM   28  C   UNL     1       2.142  26.406  47.830  1.00  0.00     0.016 A 
HETATM   29  C   UNL     1       1.145  27.095  47.136  1.00  0.00     0.037 A 
HETATM   30  C   UNL     1       1.309  28.441  46.801  1.00  0.00     0.068 A 
HETATM   31  C   UNL     1       2.496  29.093  47.143  1.00  0.00     0.037 A 
HETATM   32  C   UNL     1       3.503  28.408  47.835  1.00  0.00     0.016 A 
BRANCH  30  33
HETATM   33  O   UNL     1       0.256  28.999  46.130  1.00  0.00    -0.356 OA
HETATM   34  C   UNL     1      -0.908  28.194  45.988  1.00  0.00     0.210 C 
ENDBRANCH  30  33
ENDBRANCH  26  27
ENDBRANCH  22  25
ENDBRANCH   1  21
TORSDOF 7
ENDMDL
MODEL 9
REMARK VINA RESULT:      -8.4      8.461     13.562
REMARK  7 active torsions:
REMARK  status: ('A' for Active; 'I' for Inactive)
REMARK    1  A    between atoms: O_2  and  C_3 
REMARK    2  A    between atoms: C_6  and  C_7 
REMARK    3  A    between atoms: N_8  and  N_9 
REMARK       I    between atoms: N_9  and  C_10 
REMARK    4  A    between atoms: C_10  and  C_11 
REMARK       I    between atoms: C_11  and  N_12 
REMARK    5  A    between atoms: N_12  and  C_13 
REMARK    6  A    between atoms: C_14  and  C_15 
REMARK       I    between atoms: C_15  and  N_16 
REMARK    7  A    between atoms: N_16  and  C_17 
ROOT
HETATM    1  C   UNL     1       5.393  27.797  51.348  1.00  0.00     0.315 C 
HETATM    2  N   UNL     1       5.170  26.801  52.277  1.00  0.00    -0.318 N 
HETATM    3  O   UNL     1       6.037  28.828  51.459  1.00  0.00    -0.262 OA
HETATM    4  H   UNL     1       4.388  26.196  52.021  1.00  0.00     0.169 HD
ENDROOT
BRANCH   2   5
HETATM    5  C   UNL     1       5.592  26.795  53.621  1.00  0.00     0.051 A 
HETATM    6  C   UNL     1       6.715  26.130  54.145  1.00  0.00     0.058 A 
HETATM    7  C   UNL     1       7.061  26.317  55.499  1.00  0.00     0.019 A 
HETATM    8  C   UNL     1       6.280  27.108  56.339  1.00  0.00     0.001 A 
HETATM    9  C   UNL     1       5.133  27.713  55.840  1.00  0.00     0.002 A 
HETATM   10  C   UNL     1       4.790  27.552  54.495  1.00  0.00     0.030 A 
BRANCH   6  11
HETATM   11  C   UNL     1       7.495  25.063  53.460  1.00  0.00     0.254 C 
HETATM   12  N   UNL     1       7.719  23.916  54.199  1.00  0.00    -0.352 N 
HETATM   13  H   UNL     1       7.351  23.881  55.140  1.00  0.00     0.163 HD
HETATM   14  O   UNL     1       8.027  25.292  52.379  1.00  0.00    -0.268 OA
BRANCH  12  15
HETATM   15  C   UNL     1       8.763  22.968  53.821  1.00  0.00     0.084 C 
HETATM   16  C   UNL     1       9.567  22.525  55.052  1.00  0.00     0.025 C 
HETATM   17  C   UNL     1       8.800  21.545  55.938  1.00  0.00     0.002 C 
HETATM   18  C   UNL     1       8.311  20.340  55.142  1.00  0.00     0.000 C 
HETATM   19  C   UNL     1       7.467  20.769  53.948  1.00  0.00     0.002 C 
HETATM   20  C   UNL     1       8.215  21.756  53.053  1.00  0.00     0.025 C 
ENDBRANCH  12  15
ENDBRANCH   6  11
ENDBRANCH   2   5
BRANCH   1  21
HETATM   21  C   UNL     1       4.609  27.539  50.050  1.00  0.00     0.329 C 
HETATM   22  N   UNL     1       3.285  27.916  50.139  1.00  0.00    -0.239 N 
HETATM   23  H   UNL     1       2.949  28.300  51.020  1.00  0.00     0.192 HD
HETATM   24  O   UNL     1       5.197  27.028  49.103  1.00  0.00    -0.261 OA
BRANCH  22  25
HETATM   25  N   UNL     1       2.441  27.704  49.091  1.00  0.00    -0.183 NA
HETATM   26  C   UNL     1       2.013  28.769  48.491  1.00  0.00     0.150 C 
BRANCH  26  27
HETATM   27  C   UNL     1       1.079  28.690  47.348  1.00  0.00    -0.017 A 
HETATM   28  C   UNL     1       0.723  27.457  46.797  1.00  0.00     0.016 A 
HETATM   29  C   UNL     1      -0.171  27.412  45.724  1.00  0.00     0.037 A 
HETATM   30  C   UNL     1      -0.722  28.587  45.206  1.00  0.00     0.068 A 
HETATM   31  C   UNL     1      -0.352  29.818  45.752  1.00  0.00     0.037 A 
HETATM   32  C   UNL     1       0.548  29.871  46.824  1.00  0.00     0.016 A 
BRANCH  30  33
HETATM   33  O   UNL     1      -1.589  28.403  44.164  1.00  0.00    -0.356 OA
HETATM   34  C   UNL     1      -1.798  29.519  43.305  1.00  0.00     0.210 C 
ENDBRANCH  30  33
ENDBRANCH  26  27
ENDBRANCH  22  25
ENDBRANCH   1  21
TORSDOF 7
ENDMDL
MODEL 10
REMARK VINA RESULT:      -8.3      7.961     12.574
REMARK  7 active torsions:
REMARK  status: ('A' for Active; 'I' for Inactive)
REMARK    1  A    between atoms: O_2  and  C_3 
REMARK    2  A    between atoms: C_6  and  C_7 
REMARK    3  A    between atoms: N_8  and  N_9 
REMARK       I    between atoms: N_9  and  C_10 
REMARK    4  A    between atoms: C_10  and  C_11 
REMARK       I    between atoms: C_11  and  N_12 
REMARK    5  A    between atoms: N_12  and  C_13 
REMARK    6  A    between atoms: C_14  and  C_15 
REMARK       I    between atoms: C_15  and  N_16 
REMARK    7  A    between atoms: N_16  and  C_17 
ROOT
HETATM    1  C   UNL     1       5.818  24.996  52.986  1.00  0.00     0.315 C 
HETATM    2  N   UNL     1       7.088  24.492  53.189  1.00  0.00    -0.318 N 
HETATM    3  O   UNL     1       4.738  24.520  53.297  1.00  0.00    -0.262 OA
HETATM    4  H   UNL     1       7.787  24.948  52.602  1.00  0.00     0.169 HD
ENDROOT
BRANCH   2   5
HETATM    5  C   UNL     1       7.417  23.244  53.754  1.00  0.00     0.051 A 
HETATM    6  C   UNL     1       7.390  22.908  55.119  1.00  0.00     0.058 A 
HETATM    7  C   UNL     1       7.643  21.578  55.509  1.00  0.00     0.019 A 
HETATM    8  C   UNL     1       7.970  20.601  54.570  1.00  0.00     0.001 A 
HETATM    9  C   UNL     1       8.062  20.946  53.228  1.00  0.00     0.002 A 
HETATM   10  C   UNL     1       7.794  22.257  52.825  1.00  0.00     0.030 A 
BRANCH   6  11
HETATM   11  C   UNL     1       7.312  23.869  56.253  1.00  0.00     0.254 C 
HETATM   12  N   UNL     1       6.304  24.813  56.173  1.00  0.00    -0.352 N 
HETATM   13  H   UNL     1       5.702  24.791  55.360  1.00  0.00     0.163 HD
HETATM   14  O   UNL     1       8.202  23.894  57.097  1.00  0.00    -0.268 OA
BRANCH  12  15
HETATM   15  C   UNL     1       6.338  26.024  56.986  1.00  0.00     0.084 C 
HETATM   16  C   UNL     1       7.592  26.853  56.674  1.00  0.00     0.025 C 
HETATM   17  C   UNL     1       7.500  27.584  55.335  1.00  0.00     0.002 C 
HETATM   18  C   UNL     1       6.243  28.443  55.256  1.00  0.00     0.000 C 
HETATM   19  C   UNL     1       4.988  27.616  55.512  1.00  0.00     0.002 C 
HETATM   20  C   UNL     1       5.065  26.872  56.843  1.00  0.00     0.025 C 
ENDBRANCH  12  15
ENDBRANCH   6  11
ENDBRANCH   2   5
BRANCH   1  21
HETATM   21  C   UNL     1       5.856  26.296  52.165  1.00  0.00     0.329 C 
HETATM   22  N   UNL     1       4.633  26.617  51.613  1.00  0.00    -0.239 N 
HETATM   23  H   UNL     1       3.849  25.988  51.774  1.00  0.00     0.192 HD
HETATM   24  O   UNL     1       6.922  26.893  52.063  1.00  0.00    -0.261 OA
BRANCH  22  25
HETATM   25  N   UNL     1       4.510  27.712  50.813  1.00  0.00    -0.183 NA
HETATM   26  C   UNL     1       4.105  27.483  49.605  1.00  0.00     0.150 C 
BRANCH  26  27
HETATM   27  C   UNL     1       3.942  28.575  48.622  1.00  0.00    -0.017 A 
HETATM   28  C   UNL     1       2.900  28.554  47.692  1.00  0.00     0.016 A 
HETATM   29  C   UNL     1       2.763  29.605  46.783  1.00  0.00     0.037 A 
HETATM   30  C   UNL     1       3.651  30.684  46.802  1.00  0.00     0.068 A 
HETATM   31  C   UNL     1       4.699  30.694  47.724  1.00  0.00     0.037 A 
HETATM   32  C   UNL     1       4.846  29.640  48.636  1.00  0.00     0.016 A 
BRANCH  30  33
HETATM   33  O   UNL     1       3.401  31.650  45.866  1.00  0.00    -0.356 OA
HETATM   34  C   UNL     1       4.165  31.588  44.668  1.00  0.00     0.210 C 
ENDBRANCH  30  33
ENDBRANCH  26  27
ENDBRANCH  22  25
ENDBRANCH   1  21
TORSDOF 7
ENDMDL
