MODEL 1
REMARK VINA RESULT:      -9.4      0.000      0.000
REMARK  5 active torsions:
REMARK  status: ('A' for Active; 'I' for Inactive)
REMARK    1  A    between atoms: C_4  and  N_5 
REMARK    2  A    between atoms: C_9  and  C_10 
REMARK    3  A    between atoms: C_13  and  O_14 
REMARK    4  A    between atoms: C_17  and  C_18 
REMARK       I    between atoms: C_18  and  N_19 
REMARK    5  A    between atoms: N_19  and  C_20 
ROOT
HETATM    1  N   UNL     1       4.207  28.350  51.179  1.00  0.00    -0.292 N 
HETATM    2  C   UNL     1       3.761  29.233  52.188  1.00  0.00     0.179 C 
HETATM    3  S   UNL     1       2.994  30.721  52.009  1.00  0.00    -0.040 SA
HETATM    4  N   UNL     1       3.923  28.823  53.478  1.00  0.00    -0.354 N 
HETATM    5  C   UNL     1       4.704  27.695  53.922  1.00  0.00     0.158 C 
HETATM    6  C   UNL     1       4.929  26.743  52.793  1.00  0.00     0.060 C 
HETATM    7  C   UNL     1       4.718  27.065  51.497  1.00  0.00     0.030 C 
HETATM    8  C   UNL     1       4.989  26.098  50.361  1.00  0.00     0.070 C 
HETATM    9  H   UNL     1       3.611  29.479  54.184  1.00  0.00     0.163 HD
ENDROOT
BRANCH   6  10
HETATM   10  C   UNL     1       5.210  25.355  53.262  1.00  0.00     0.257 C 
HETATM   11  N   UNL     1       6.495  25.146  53.697  1.00  0.00    -0.306 N 
HETATM   12  H   UNL     1       7.128  25.928  53.768  1.00  0.00     0.170 HD
HETATM   13  O   UNL     1       4.289  24.546  53.251  1.00  0.00    -0.267 OA
BRANCH  11  14
HETATM   14  C   UNL     1       7.039  23.885  53.865  1.00  0.00     0.160 A 
HETATM   15  N   UNL     1       7.100  23.207  55.016  1.00  0.00    -0.110 NA
HETATM   16  O   UNL     1       7.618  21.967  54.716  1.00  0.00    -0.216 OA
HETATM   17  C   UNL     1       7.864  21.892  53.382  1.00  0.00     0.078 A 
HETATM   18  C   UNL     1       8.363  20.599  52.884  1.00  0.00     0.079 C 
HETATM   19  C   UNL     1       7.549  23.095  52.802  1.00  0.00     0.087 A 
ENDBRANCH  11  14
ENDBRANCH   6  10
BRANCH   5  20
HETATM   20  C   UNL     1       6.006  28.169  54.555  1.00  0.00    -0.031 A 
HETATM   21  C   UNL     1       6.017  28.608  55.890  1.00  0.00     0.012 A 
HETATM   22  C   UNL     1       7.200  29.060  56.485  1.00  0.00     0.037 A 
HETATM   23  C   UNL     1       8.378  29.068  55.747  1.00  0.00     0.065 A 
HETATM   24  C   UNL     1       8.396  28.624  54.432  1.00  0.00     0.037 A 
HETATM   25  C   UNL     1       7.216  28.174  53.837  1.00  0.00     0.012 A 
BRANCH  23  26
HETATM   26  O   UNL     1       9.551  29.509  56.284  1.00  0.00    -0.361 OA
HETATM   27  H   UNL     1       9.354  30.005  57.095  1.00  0.00     0.217 HD
ENDBRANCH  23  26
ENDBRANCH   5  20
BRANCH   1  28
HETATM   28  C   UNL     1       4.036  28.763  49.811  1.00  0.00     0.048 A 
HETATM   29  C   UNL     1       2.935  28.241  49.104  1.00  0.00     0.037 A 
HETATM   30  C   UNL     1       2.711  28.580  47.766  1.00  0.00    -0.060 A 
HETATM   31  C   UNL     1       1.551  27.991  47.019  1.00  0.00     0.048 C 
HETATM   32  C   UNL     1       3.562  29.499  47.150  1.00  0.00     0.007 A 
HETATM   33  C   UNL     1       4.657  30.023  47.843  1.00  0.00     0.009 A 
HETATM   34  C   UNL     1       4.927  29.643  49.168  1.00  0.00    -0.035 A 
HETATM   35  C   UNL     1       6.168  30.193  49.814  1.00  0.00     0.050 C 
ENDBRANCH   1  28
TORSDOF 5
ENDMDL
MODEL 2
REMARK VINA RESULT:      -9.2      1.265      2.063
REMARK  5 active torsions:
REMARK  status: ('A' for Active; 'I' for Inactive)
REMARK    1  A    between atoms: C_4  and  N_5 
REMARK    2  A    between atoms: C_9  and  C_10 
REMARK    3  A    between atoms: C_13  and  O_14 
REMARK    4  A    between atoms: C_17  and  C_18 
REMARK       I    between atoms: C_18  and  N_19 
REMARK    5  A    between atoms: N_19  and  C_20 
ROOT
HETATM    1  N   UNL     1       4.427  29.010  52.246  1.00  0.00    -0.292 N 
HETATM    2  C   UNL     1       3.958  29.672  53.403  1.00  0.00     0.179 C 
HETATM    3  S   UNL     1       3.234  31.187  53.517  1.00  0.00    -0.040 SA
HETATM    4  N   UNL     1       4.054  28.993  54.581  1.00  0.00    -0.354 N 
HETATM    5  C   UNL     1       4.790  27.772  54.804  1.00  0.00     0.158 C 
HETATM    6  C   UNL     1       5.042  27.076  53.507  1.00  0.00     0.060 C 
HETATM    7  C   UNL     1       4.895  27.671  52.302  1.00  0.00     0.030 C 
HETATM    8  C   UNL     1       5.194  26.959  50.997  1.00  0.00     0.070 C 
HETATM    9  H   UNL     1       3.727  29.493  55.398  1.00  0.00     0.163 HD
ENDROOT
BRANCH   6  10
HETATM   10  C   UNL     1       5.272  25.611  53.680  1.00  0.00     0.257 C 
HETATM   11  N   UNL     1       6.467  25.284  54.268  1.00  0.00    -0.306 N 
HETATM   12  H   UNL     1       7.061  26.015  54.628  1.00  0.00     0.170 HD
HETATM   13  O   UNL     1       4.385  24.844  53.321  1.00  0.00    -0.267 OA
BRANCH  11  14
HETATM   14  C   UNL     1       7.004  24.008  54.227  1.00  0.00     0.160 A 
HETATM   15  N   UNL     1       7.127  23.179  55.269  1.00  0.00    -0.110 NA
HETATM   16  O   UNL     1       7.609  21.989  54.770  1.00  0.00    -0.216 OA
HETATM   17  C   UNL     1       7.771  22.097  53.426  1.00  0.00     0.078 A 
HETATM   18  C   UNL     1       8.222  20.883  52.725  1.00  0.00     0.079 C 
HETATM   19  C   UNL     1       7.437  23.370  53.037  1.00  0.00     0.087 A 
ENDBRANCH  11  14
ENDBRANCH   6  10
BRANCH   5  20
HETATM   20  C   UNL     1       6.074  28.060  55.572  1.00  0.00    -0.031 A 
HETATM   21  C   UNL     1       6.157  27.748  56.940  1.00  0.00     0.012 A 
HETATM   22  C   UNL     1       7.322  28.018  57.666  1.00  0.00     0.037 A 
HETATM   23  C   UNL     1       8.411  28.594  57.024  1.00  0.00     0.065 A 
HETATM   24  C   UNL     1       8.360  28.897  55.669  1.00  0.00     0.037 A 
HETATM   25  C   UNL     1       7.197  28.630  54.944  1.00  0.00     0.012 A 
BRANCH  23  26
HETATM   26  O   UNL     1       9.563  28.882  57.694  1.00  0.00    -0.361 OA
HETATM   27  H   UNL     1      10.161  29.356  57.092  1.00  0.00     0.217 HD
ENDBRANCH  23  26
ENDBRANCH   5  20
BRANCH   1  28
HETATM   28  C   UNL     1       4.326  29.709  50.993  1.00  0.00     0.048 A 
HETATM   29  C   UNL     1       5.412  30.519  50.608  1.00  0.00     0.037 A 
HETATM   30  C   UNL     1       5.383  31.245  49.413  1.00  0.00    -0.060 A 
HETATM   31  C   UNL     1       6.535  32.128  49.034  1.00  0.00     0.048 C 
HETATM   32  C   UNL     1       4.281  31.108  48.567  1.00  0.00     0.007 A 
HETATM   33  C   UNL     1       3.199  30.305  48.939  1.00  0.00     0.009 A 
HETATM   34  C   UNL     1       3.191  29.620  50.164  1.00  0.00    -0.035 A 
HETATM   35  C   UNL     1       1.956  28.841  50.522  1.00  0.00     0.050 C 
ENDBRANCH   1  28
TORSDOF 5
ENDMDL
MODEL 3
REMARK VINA RESULT:      -8.6      3.205      7.208
REMARK  5 active torsions:
REMARK  status: ('A' for Active; 'I' for Inactive)
REMARK    1  A    between atoms: C_4  and  N_5 
REMARK    2  A    between atoms: C_9  and  C_10 
REMARK    3  A    between atoms: C_13  and  O_14 
REMARK    4  A    between atoms: C_17  and  C_18 
REMARK       I    between atoms: C_18  and  N_19 
REMARK    5  A    between atoms: N_19  and  C_20 
ROOT
HETATM    1  N   UNL     1       6.358  26.651  53.192  1.00  0.00    -0.292 N 
HETATM    2  C   UNL     1       7.031  27.834  53.571  1.00  0.00     0.179 C 
HETATM    3  S   UNL     1       8.161  28.044  54.801  1.00  0.00    -0.040 SA
HETATM    4  N   UNL     1       6.779  28.949  52.827  1.00  0.00    -0.354 N 
HETATM    5  C   UNL     1       5.733  29.101  51.846  1.00  0.00     0.158 C 
HETATM    6  C   UNL     1       5.254  27.763  51.389  1.00  0.00     0.060 C 
HETATM    7  C   UNL     1       5.529  26.611  52.042  1.00  0.00     0.030 C 
HETATM    8  C   UNL     1       5.000  25.266  51.583  1.00  0.00     0.070 C 
HETATM    9  H   UNL     1       7.261  29.788  53.127  1.00  0.00     0.163 HD
ENDROOT
BRANCH   6  10
HETATM   10  C   UNL     1       4.620  27.813  50.039  1.00  0.00     0.257 C 
HETATM   11  N   UNL     1       3.259  27.643  50.037  1.00  0.00    -0.306 N 
HETATM   12  H   UNL     1       2.763  27.594  50.914  1.00  0.00     0.170 HD
HETATM   13  O   UNL     1       5.343  28.027  49.071  1.00  0.00    -0.267 OA
BRANCH  11  14
HETATM   14  C   UNL     1       2.537  27.340  48.895  1.00  0.00     0.160 A 
HETATM   15  N   UNL     1       2.636  26.211  48.187  1.00  0.00    -0.110 NA
HETATM   16  O   UNL     1       1.674  26.279  47.202  1.00  0.00    -0.216 OA
HETATM   17  C   UNL     1       0.990  27.446  47.320  1.00  0.00     0.078 A 
HETATM   18  C   UNL     1      -0.122  27.646  46.377  1.00  0.00     0.079 C 
HETATM   19  C   UNL     1       1.523  28.172  48.356  1.00  0.00     0.087 A 
ENDBRANCH  11  14
ENDBRANCH   6  10
BRANCH   5  20
HETATM   20  C   UNL     1       4.608  29.965  52.402  1.00  0.00    -0.031 A 
HETATM   21  C   UNL     1       3.933  30.864  51.558  1.00  0.00     0.012 A 
HETATM   22  C   UNL     1       2.907  31.676  52.052  1.00  0.00     0.037 A 
HETATM   23  C   UNL     1       2.547  31.587  53.392  1.00  0.00     0.065 A 
HETATM   24  C   UNL     1       3.187  30.695  54.242  1.00  0.00     0.037 A 
HETATM   25  C   UNL     1       4.213  29.885  53.750  1.00  0.00     0.012 A 
BRANCH  23  26
HETATM   26  O   UNL     1       1.559  32.366  53.918  1.00  0.00    -0.361 OA
HETATM   27  H   UNL     1       1.194  32.921  53.210  1.00  0.00     0.217 HD
ENDBRANCH  23  26
ENDBRANCH   5  20
BRANCH   1  28
HETATM   28  C   UNL     1       6.617  25.463  53.962  1.00  0.00     0.048 A 
HETATM   29  C   UNL     1       7.452  24.484  53.389  1.00  0.00     0.037 A 
HETATM   30  C   UNL     1       7.738  23.294  54.066  1.00  0.00    -0.060 A 
HETATM   31  C   UNL     1       8.604  22.249  53.427  1.00  0.00     0.048 C 
HETATM   32  C   UNL     1       7.232  23.111  55.354  1.00  0.00     0.007 A 
HETATM   33  C   UNL     1       6.403  24.077  55.931  1.00  0.00     0.009 A 
HETATM   34  C   UNL     1       6.060  25.248  55.237  1.00  0.00    -0.035 A 
HETATM   35  C   UNL     1       5.102  26.198  55.899  1.00  0.00     0.050 C 
ENDBRANCH   1  28
TORSDOF 5
ENDMDL
MODEL 4
REMARK VINA RESULT:      -8.4      5.368      9.339
REMARK  5 active torsions:
REMARK  status: ('A' for Active; 'I' for Inactive)
REMARK    1  A    between atoms: C_4  and  N_5 
REMARK    2  A    between atoms: C_9  and  C_10 
REMARK    3  A    between atoms: C_13  and  O_14 
REMARK    4  A    between atoms: C_17  and  C_18 
REMARK       I    between atoms: C_18  and  N_19 
REMARK    5  A    between atoms: N_19  and  C_20 
ROOT
HETATM    1  N   UNL     1       7.419  28.774  56.966  1.00  0.00    -0.292 N 
HETATM    2  C   UNL     1       8.561  29.604  57.039  1.00  0.00     0.179 C 
HETATM    3  S   UNL     1      10.141  29.247  56.579  1.00  0.00    -0.040 SA
HETATM    4  N   UNL     1       8.369  30.874  57.494  1.00  0.00    -0.354 N 
HETATM    5  C   UNL     1       7.175  31.384  58.121  1.00  0.00     0.158 C 
HETATM    6  C   UNL     1       6.006  30.514  57.793  1.00  0.00     0.060 C 
HETATM    7  C   UNL     1       6.127  29.272  57.271  1.00  0.00     0.030 C 
HETATM    8  C   UNL     1       4.929  28.389  56.982  1.00  0.00     0.070 C 
HETATM    9  H   UNL     1       9.204  31.445  57.552  1.00  0.00     0.163 HD
ENDROOT
BRANCH   6  10
HETATM   10  C   UNL     1       4.705  31.236  57.909  1.00  0.00     0.257 C 
HETATM   11  N   UNL     1       4.623  32.391  57.172  1.00  0.00    -0.306 N 
HETATM   12  H   UNL     1       5.372  32.633  56.542  1.00  0.00     0.170 HD
HETATM   13  O   UNL     1       3.830  30.736  58.607  1.00  0.00    -0.267 OA
BRANCH  11  14
HETATM   14  C   UNL     1       3.651  33.354  57.385  1.00  0.00     0.160 A 
HETATM   15  N   UNL     1       2.510  33.476  56.698  1.00  0.00    -0.110 NA
HETATM   16  O   UNL     1       1.796  34.489  57.300  1.00  0.00    -0.216 OA
HETATM   17  C   UNL     1       2.501  34.973  58.355  1.00  0.00     0.078 A 
HETATM   18  C   UNL     1       1.844  36.024  59.150  1.00  0.00     0.079 C 
HETATM   19  C   UNL     1       3.702  34.312  58.430  1.00  0.00     0.087 A 
ENDBRANCH  11  14
ENDBRANCH   6  10
BRANCH   5  20
HETATM   20  C   UNL     1       7.388  31.533  59.622  1.00  0.00    -0.031 A 
HETATM   21  C   UNL     1       6.593  32.431  60.356  1.00  0.00     0.012 A 
HETATM   22  C   UNL     1       6.782  32.593  61.733  1.00  0.00     0.037 A 
HETATM   23  C   UNL     1       7.763  31.852  62.382  1.00  0.00     0.065 A 
HETATM   24  C   UNL     1       8.550  30.947  61.682  1.00  0.00     0.037 A 
HETATM   25  C   UNL     1       8.363  30.786  60.308  1.00  0.00     0.012 A 
BRANCH  23  26
HETATM   26  O   UNL     1       7.988  31.984  63.720  1.00  0.00    -0.361 OA
HETATM   27  H   UNL     1       8.555  32.760  63.863  1.00  0.00     0.217 HD
ENDBRANCH  23  26
ENDBRANCH   5  20
BRANCH   1  28
HETATM   28  C   UNL     1       7.602  27.432  56.480  1.00  0.00     0.048 A 
HETATM   29  C   UNL     1       8.012  26.454  57.406  1.00  0.00     0.037 A 
HETATM   30  C   UNL     1       8.229  25.130  57.009  1.00  0.00    -0.060 A 
HETATM   31  C   UNL     1       8.695  24.107  58.002  1.00  0.00     0.048 C 
HETATM   32  C   UNL     1       7.972  24.772  55.684  1.00  0.00     0.007 A 
HETATM   33  C   UNL     1       7.564  25.736  54.758  1.00  0.00     0.009 A 
HETATM   34  C   UNL     1       7.402  27.080  55.132  1.00  0.00    -0.035 A 
HETATM   35  C   UNL     1       7.036  28.065  54.057  1.00  0.00     0.050 C 
ENDBRANCH   1  28
TORSDOF 5
ENDMDL
MODEL 5
REMARK VINA RESULT:      -8.4      5.017      8.764
REMARK  5 active torsions:
REMARK  status: ('A' for Active; 'I' for Inactive)
REMARK    1  A    between atoms: C_4  and  N_5 
REMARK    2  A    between atoms: C_9  and  C_10 
REMARK    3  A    between atoms: C_13  and  O_14 
REMARK    4  A    between atoms: C_17  and  C_18 
REMARK       I    between atoms: C_18  and  N_19 
REMARK    5  A    between atoms: N_19  and  C_20 
ROOT
HETATM    1  N   UNL     1       6.641  28.079  56.695  1.00  0.00    -0.292 N 
HETATM    2  C   UNL     1       5.237  28.196  56.806  1.00  0.00     0.179 C 
HETATM    3  S   UNL     1       4.052  27.173  56.186  1.00  0.00    -0.040 SA
HETATM    4  N   UNL     1       4.765  29.239  57.546  1.00  0.00    -0.354 N 
HETATM    5  C   UNL     1       5.534  30.358  58.030  1.00  0.00     0.158 C 
HETATM    6  C   UNL     1       6.989  30.019  58.045  1.00  0.00     0.060 C 
HETATM    7  C   UNL     1       7.511  28.956  57.391  1.00  0.00     0.030 C 
HETATM    8  C   UNL     1       8.997  28.651  57.385  1.00  0.00     0.070 C 
HETATM    9  H   UNL     1       3.756  29.311  57.598  1.00  0.00     0.163 HD
ENDROOT
BRANCH   6  10
HETATM   10  C   UNL     1       7.761  30.850  59.014  1.00  0.00     0.257 C 
HETATM   11  N   UNL     1       7.717  30.407  60.312  1.00  0.00    -0.306 N 
HETATM   12  H   UNL     1       7.268  29.528  60.522  1.00  0.00     0.170 HD
HETATM   13  O   UNL     1       8.380  31.815  58.579  1.00  0.00    -0.267 OA
BRANCH  11  14
HETATM   14  C   UNL     1       8.087  31.192  61.391  1.00  0.00     0.160 A 
HETATM   15  N   UNL     1       9.292  31.740  61.580  1.00  0.00    -0.110 NA
HETATM   16  O   UNL     1       9.196  32.519  62.712  1.00  0.00    -0.216 OA
HETATM   17  C   UNL     1       7.932  32.448  63.203  1.00  0.00     0.078 A 
HETATM   18  C   UNL     1       7.643  33.280  64.382  1.00  0.00     0.079 C 
HETATM   19  C   UNL     1       7.198  31.589  62.422  1.00  0.00     0.087 A 
ENDBRANCH  11  14
ENDBRANCH   6  10
BRANCH   5  20
HETATM   20  C   UNL     1       5.234  31.604  57.206  1.00  0.00    -0.031 A 
HETATM   21  C   UNL     1       5.062  32.843  57.848  1.00  0.00     0.012 A 
HETATM   22  C   UNL     1       4.772  33.996  57.111  1.00  0.00     0.037 A 
HETATM   23  C   UNL     1       4.659  33.914  55.728  1.00  0.00     0.065 A 
HETATM   24  C   UNL     1       4.840  32.705  55.070  1.00  0.00     0.037 A 
HETATM   25  C   UNL     1       5.128  31.554  55.804  1.00  0.00     0.012 A 
BRANCH  23  26
HETATM   26  O   UNL     1       4.368  35.011  54.971  1.00  0.00    -0.361 OA
HETATM   27  H   UNL     1       3.405  35.060  54.855  1.00  0.00     0.217 HD
ENDBRANCH  23  26
ENDBRANCH   5  20
BRANCH   1  28
HETATM   28  C   UNL     1       7.158  26.979  55.924  1.00  0.00     0.048 A 
HETATM   29  C   UNL     1       7.513  25.806  56.618  1.00  0.00     0.037 A 
HETATM   30  C   UNL     1       8.039  24.699  55.944  1.00  0.00    -0.060 A 
HETATM   31  C   UNL     1       8.442  23.470  56.703  1.00  0.00     0.048 C 
HETATM   32  C   UNL     1       8.151  24.747  54.553  1.00  0.00     0.007 A 
HETATM   33  C   UNL     1       7.801  25.906  53.855  1.00  0.00     0.009 A 
HETATM   34  C   UNL     1       7.329  27.045  54.528  1.00  0.00    -0.035 A 
HETATM   35  C   UNL     1       7.048  28.274  53.710  1.00  0.00     0.050 C 
ENDBRANCH   1  28
TORSDOF 5
ENDMDL
MODEL 6
REMARK VINA RESULT:      -8.1      3.639      5.347
REMARK  5 active torsions:
REMARK  status: ('A' for Active; 'I' for Inactive)
REMARK    1  A    between atoms: C_4  and  N_5 
REMARK    2  A    between atoms: C_9  and  C_10 
REMARK    3  A    between atoms: C_13  and  O_14 
REMARK    4  A    between atoms: C_17  and  C_18 
REMARK       I    between atoms: C_18  and  N_19 
REMARK    5  A    between atoms: N_19  and  C_20 
ROOT
HETATM    1  N   UNL     1       3.838  31.155  56.094  1.00  0.00    -0.292 N 
HETATM    2  C   UNL     1       4.049  30.801  57.446  1.00  0.00     0.179 C 
HETATM    3  S   UNL     1       3.467  31.566  58.828  1.00  0.00    -0.040 SA
HETATM    4  N   UNL     1       4.775  29.671  57.679  1.00  0.00    -0.354 N 
HETATM    5  C   UNL     1       5.539  28.933  56.704  1.00  0.00     0.158 C 
HETATM    6  C   UNL     1       5.072  29.260  55.324  1.00  0.00     0.060 C 
HETATM    7  C   UNL     1       4.290  30.325  55.036  1.00  0.00     0.030 C 
HETATM    8  C   UNL     1       3.858  30.663  53.622  1.00  0.00     0.070 C 
HETATM    9  H   UNL     1       4.926  29.446  58.655  1.00  0.00     0.163 HD
ENDROOT
BRANCH   6  10
HETATM   10  C   UNL     1       5.388  28.181  54.342  1.00  0.00     0.257 C 
HETATM   11  N   UNL     1       4.958  26.930  54.707  1.00  0.00    -0.306 N 
HETATM   12  H   UNL     1       4.391  26.821  55.534  1.00  0.00     0.170 HD
HETATM   13  O   UNL     1       5.960  28.496  53.305  1.00  0.00    -0.267 OA
BRANCH  11  14
HETATM   14  C   UNL     1       5.420  25.769  54.110  1.00  0.00     0.160 A 
HETATM   15  N   UNL     1       4.840  25.135  53.085  1.00  0.00    -0.110 NA
HETATM   16  O   UNL     1       5.677  24.096  52.742  1.00  0.00    -0.216 OA
HETATM   17  C   UNL     1       6.765  24.107  53.554  1.00  0.00     0.078 A 
HETATM   18  C   UNL     1       7.796  23.093  53.274  1.00  0.00     0.079 C 
HETATM   19  C   UNL     1       6.633  25.126  54.464  1.00  0.00     0.087 A 
ENDBRANCH  11  14
ENDBRANCH   6  10
BRANCH   5  20
HETATM   20  C   UNL     1       7.029  29.193  56.893  1.00  0.00    -0.031 A 
HETATM   21  C   UNL     1       7.517  29.589  58.150  1.00  0.00     0.012 A 
HETATM   22  C   UNL     1       8.878  29.846  58.341  1.00  0.00     0.037 A 
HETATM   23  C   UNL     1       9.758  29.700  57.276  1.00  0.00     0.065 A 
HETATM   24  C   UNL     1       9.304  29.293  56.028  1.00  0.00     0.037 A 
HETATM   25  C   UNL     1       7.945  29.039  55.836  1.00  0.00     0.012 A 
BRANCH  23  26
HETATM   26  O   UNL     1      11.092  29.948  57.414  1.00  0.00    -0.361 OA
HETATM   27  H   UNL     1      11.584  29.152  57.153  1.00  0.00     0.217 HD
ENDBRANCH  23  26
ENDBRANCH   5  20
BRANCH   1  28
HETATM   28  C   UNL     1       3.067  32.341  55.829  1.00  0.00     0.048 A 
HETATM   29  C   UNL     1       1.706  32.175  55.509  1.00  0.00     0.037 A 
HETATM   30  C   UNL     1       0.893  33.277  55.221  1.00  0.00    -0.060 A 
HETATM   31  C   UNL     1      -0.547  33.080  54.852  1.00  0.00     0.048 C 
HETATM   32  C   UNL     1       1.436  34.559  55.317  1.00  0.00     0.007 A 
HETATM   33  C   UNL     1       2.785  34.734  55.635  1.00  0.00     0.009 A 
HETATM   34  C   UNL     1       3.625  33.633  55.866  1.00  0.00    -0.035 A 
HETATM   35  C   UNL     1       5.081  33.905  56.125  1.00  0.00     0.050 C 
ENDBRANCH   1  28
TORSDOF 5
ENDMDL
MODEL 7
REMARK VINA RESULT:      -8.1      7.606     11.826
REMARK  5 active torsions:
REMARK  status: ('A' for Active; 'I' for Inactive)
REMARK    1  A    between atoms: C_4  and  N_5 
REMARK    2  A    between atoms: C_9  and  C_10 
REMARK    3  A    between atoms: C_13  and  O_14 
REMARK    4  A    between atoms: C_17  and  C_18 
REMARK       I    between atoms: C_18  and  N_19 
REMARK    5  A    between atoms: N_19  and  C_20 
ROOT
HETATM    1  N   UNL     1       5.551  34.117  62.141  1.00  0.00    -0.292 N 
HETATM    2  C   UNL     1       6.341  33.180  62.846  1.00  0.00     0.179 C 
HETATM    3  S   UNL     1       7.047  33.344  64.365  1.00  0.00    -0.040 SA
HETATM    4  N   UNL     1       6.525  31.965  62.255  1.00  0.00    -0.354 N 
HETATM    5  C   UNL     1       6.196  31.620  60.895  1.00  0.00     0.158 C 
HETATM    6  C   UNL     1       5.198  32.584  60.343  1.00  0.00     0.060 C 
HETATM    7  C   UNL     1       4.915  33.774  60.920  1.00  0.00     0.030 C 
HETATM    8  C   UNL     1       3.927  34.757  60.323  1.00  0.00     0.070 C 
HETATM    9  H   UNL     1       7.107  31.317  62.771  1.00  0.00     0.163 HD
ENDROOT
BRANCH   6  10
HETATM   10  C   UNL     1       4.409  32.008  59.215  1.00  0.00     0.257 C 
HETATM   11  N   UNL     1       4.801  32.428  57.968  1.00  0.00    -0.306 N 
HETATM   12  H   UNL     1       5.626  33.000  57.873  1.00  0.00     0.170 HD
HETATM   13  O   UNL     1       3.522  31.206  59.483  1.00  0.00    -0.267 OA
BRANCH  11  14
HETATM   14  C   UNL     1       4.017  32.271  56.838  1.00  0.00     0.160 A 
HETATM   15  N   UNL     1       2.829  32.848  56.627  1.00  0.00    -0.110 NA
HETATM   16  O   UNL     1       2.450  32.510  55.346  1.00  0.00    -0.216 OA
HETATM   17  C   UNL     1       3.411  31.734  54.782  1.00  0.00     0.078 A 
HETATM   18  C   UNL     1       3.188  31.337  53.382  1.00  0.00     0.079 C 
HETATM   19  C   UNL     1       4.410  31.523  55.700  1.00  0.00     0.087 A 
ENDBRANCH  11  14
ENDBRANCH   6  10
BRANCH   5  20
HETATM   20  C   UNL     1       7.460  31.539  60.048  1.00  0.00    -0.031 A 
HETATM   21  C   UNL     1       7.544  30.601  59.003  1.00  0.00     0.012 A 
HETATM   22  C   UNL     1       8.701  30.502  58.223  1.00  0.00     0.037 A 
HETATM   23  C   UNL     1       9.775  31.345  58.480  1.00  0.00     0.065 A 
HETATM   24  C   UNL     1       9.710  32.291  59.495  1.00  0.00     0.037 A 
HETATM   25  C   UNL     1       8.557  32.390  60.276  1.00  0.00     0.012 A 
BRANCH  23  26
HETATM   26  O   UNL     1      10.925  31.277  57.751  1.00  0.00    -0.361 OA
HETATM   27  H   UNL     1      11.495  32.022  58.001  1.00  0.00     0.217 HD
ENDBRANCH  23  26
ENDBRANCH   5  20
BRANCH   1  28
HETATM   28  C   UNL     1       5.339  35.402  62.753  1.00  0.00     0.048 A 
HETATM   29  C   UNL     1       6.133  36.476  62.307  1.00  0.00     0.037 A 
HETATM   30  C   UNL     1       5.999  37.752  62.865  1.00  0.00    -0.060 A 
HETATM   31  C   UNL     1       6.875  38.877  62.400  1.00  0.00     0.048 C 
HETATM   32  C   UNL     1       5.018  37.966  63.834  1.00  0.00     0.007 A 
HETATM   33  C   UNL     1       4.225  36.906  64.283  1.00  0.00     0.009 A 
HETATM   34  C   UNL     1       4.391  35.608  63.774  1.00  0.00    -0.035 A 
HETATM   35  C   UNL     1       3.550  34.512  64.366  1.00  0.00     0.050 C 
ENDBRANCH   1  28
TORSDOF 5
ENDMDL
MODEL 8
REMARK VINA RESULT:      -7.9      3.011      5.738
REMARK  5 active torsions:
REMARK  status: ('A' for Active; 'I' for Inactive)
REMARK    1  A    between atoms: C_4  and  N_5 
REMARK    2  A    between atoms: C_9  and  C_10 
REMARK    3  A    between atoms: C_13  and  O_14 
REMARK    4  A    between atoms: C_17  and  C_18 
REMARK       I    between atoms: C_18  and  N_19 
REMARK    5  A    between atoms: N_19  and  C_20 
ROOT
HETATM    1  N   UNL     1       4.350  30.919  51.600  1.00  0.00    -0.292 N 
HETATM    2  C   UNL     1       5.115  31.100  50.424  1.00  0.00     0.179 C 
HETATM    3  S   UNL     1       5.347  32.511  49.537  1.00  0.00    -0.040 SA
HETATM    4  N   UNL     1       5.795  30.013  49.961  1.00  0.00    -0.354 N 
HETATM    5  C   UNL     1       5.634  28.652  50.410  1.00  0.00     0.158 C 
HETATM    6  C   UNL     1       4.992  28.623  51.758  1.00  0.00     0.060 C 
HETATM    7  C   UNL     1       4.364  29.688  52.305  1.00  0.00     0.030 C 
HETATM    8  C   UNL     1       3.682  29.628  53.658  1.00  0.00     0.070 C 
HETATM    9  H   UNL     1       6.322  30.162  49.110  1.00  0.00     0.163 HD
ENDROOT
BRANCH   6  10
HETATM   10  C   UNL     1       5.294  27.370  52.509  1.00  0.00     0.257 C 
HETATM   11  N   UNL     1       6.624  27.173  52.784  1.00  0.00    -0.306 N 
HETATM   12  H   UNL     1       7.290  27.897  52.562  1.00  0.00     0.170 HD
HETATM   13  O   UNL     1       4.353  26.656  52.839  1.00  0.00    -0.267 OA
BRANCH  11  14
HETATM   14  C   UNL     1       7.140  25.949  53.176  1.00  0.00     0.160 A 
HETATM   15  N   UNL     1       7.381  25.572  54.436  1.00  0.00    -0.110 NA
HETATM   16  O   UNL     1       7.787  24.257  54.382  1.00  0.00    -0.216 OA
HETATM   17  C   UNL     1       7.786  23.837  53.091  1.00  0.00     0.078 A 
HETATM   18  C   UNL     1       8.136  22.426  52.864  1.00  0.00     0.079 C 
HETATM   19  C   UNL     1       7.418  24.885  52.282  1.00  0.00     0.087 A 
ENDBRANCH  11  14
ENDBRANCH   6  10
BRANCH   5  20
HETATM   20  C   UNL     1       4.861  27.842  49.377  1.00  0.00    -0.031 A 
HETATM   21  C   UNL     1       4.322  28.481  48.246  1.00  0.00     0.012 A 
HETATM   22  C   UNL     1       3.597  27.759  47.293  1.00  0.00     0.037 A 
HETATM   23  C   UNL     1       3.414  26.391  47.464  1.00  0.00     0.065 A 
HETATM   24  C   UNL     1       3.950  25.734  48.564  1.00  0.00     0.037 A 
HETATM   25  C   UNL     1       4.672  26.455  49.516  1.00  0.00     0.012 A 
BRANCH  23  26
HETATM   26  O   UNL     1       2.706  25.649  46.566  1.00  0.00    -0.361 OA
HETATM   27  H   UNL     1       3.051  24.741  46.574  1.00  0.00     0.217 HD
ENDBRANCH  23  26
ENDBRANCH   5  20
BRANCH   1  28
HETATM   28  C   UNL     1       3.632  32.058  52.107  1.00  0.00     0.048 A 
HETATM   29  C   UNL     1       4.276  32.859  53.069  1.00  0.00     0.037 A 
HETATM   30  C   UNL     1       3.637  33.973  53.625  1.00  0.00    -0.060 A 
HETATM   31  C   UNL     1       4.326  34.798  54.672  1.00  0.00     0.048 C 
HETATM   32  C   UNL     1       2.367  34.322  53.165  1.00  0.00     0.007 A 
HETATM   33  C   UNL     1       1.719  33.533  52.209  1.00  0.00     0.009 A 
HETATM   34  C   UNL     1       2.326  32.379  51.689  1.00  0.00    -0.035 A 
HETATM   35  C   UNL     1       1.531  31.545  50.724  1.00  0.00     0.050 C 
ENDBRANCH   1  28
TORSDOF 5
ENDMDL
MODEL 9
REMARK VINA RESULT:      -7.9      4.236      8.015
REMARK  5 active torsions:
REMARK  status: ('A' for Active; 'I' for Inactive)
REMARK    1  A    between atoms: C_4  and  N_5 
REMARK    2  A    between atoms: C_9  and  C_10 
REMARK    3  A    between atoms: C_13  and  O_14 
REMARK    4  A    between atoms: C_17  and  C_18 
REMARK       I    between atoms: C_18  and  N_19 
REMARK    5  A    between atoms: N_19  and  C_20 
ROOT
HETATM    1  N   UNL     1       6.112  28.211  55.205  1.00  0.00    -0.292 N 
HETATM    2  C   UNL     1       7.060  28.922  55.974  1.00  0.00     0.179 C 
HETATM    3  S   UNL     1       8.476  28.345  56.679  1.00  0.00    -0.040 SA
HETATM    4  N   UNL     1       6.841  30.258  56.138  1.00  0.00    -0.354 N 
HETATM    5  C   UNL     1       5.632  30.970  55.805  1.00  0.00     0.158 C 
HETATM    6  C   UNL     1       4.821  30.185  54.828  1.00  0.00     0.060 C 
HETATM    7  C   UNL     1       5.034  28.876  54.566  1.00  0.00     0.030 C 
HETATM    8  C   UNL     1       4.173  28.086  53.599  1.00  0.00     0.070 C 
HETATM    9  H   UNL     1       7.525  30.743  56.705  1.00  0.00     0.163 HD
ENDROOT
BRANCH   6  10
HETATM   10  C   UNL     1       3.896  31.044  54.031  1.00  0.00     0.257 C 
HETATM   11  N   UNL     1       4.450  31.588  52.900  1.00  0.00    -0.306 N 
HETATM   12  H   UNL     1       5.381  31.316  52.622  1.00  0.00     0.170 HD
HETATM   13  O   UNL     1       2.740  31.164  54.424  1.00  0.00    -0.267 OA
BRANCH  11  14
HETATM   14  C   UNL     1       3.879  32.646  52.213  1.00  0.00     0.160 A 
HETATM   15  N   UNL     1       4.058  33.942  52.487  1.00  0.00    -0.110 NA
HETATM   16  O   UNL     1       3.398  34.646  51.504  1.00  0.00    -0.216 OA
HETATM   17  C   UNL     1       2.825  33.776  50.633  1.00  0.00     0.078 A 
HETATM   18  C   UNL     1       2.131  34.372  49.480  1.00  0.00     0.079 C 
HETATM   19  C   UNL     1       3.069  32.494  51.059  1.00  0.00     0.087 A 
ENDBRANCH  11  14
ENDBRANCH   6  10
BRANCH   5  20
HETATM   20  C   UNL     1       4.854  31.311  57.070  1.00  0.00    -0.031 A 
HETATM   21  C   UNL     1       4.048  30.333  57.681  1.00  0.00     0.012 A 
HETATM   22  C   UNL     1       3.315  30.629  58.834  1.00  0.00     0.037 A 
HETATM   23  C   UNL     1       3.390  31.903  59.386  1.00  0.00     0.065 A 
HETATM   24  C   UNL     1       4.192  32.881  58.811  1.00  0.00     0.037 A 
HETATM   25  C   UNL     1       4.922  32.587  57.659  1.00  0.00     0.012 A 
BRANCH  23  26
HETATM   26  O   UNL     1       2.686  32.238  60.504  1.00  0.00    -0.361 OA
HETATM   27  H   UNL     1       2.103  32.985  60.290  1.00  0.00     0.217 HD
ENDBRANCH  23  26
ENDBRANCH   5  20
BRANCH   1  28
HETATM   28  C   UNL     1       6.331  26.802  55.015  1.00  0.00     0.048 A 
HETATM   29  C   UNL     1       7.044  26.401  53.869  1.00  0.00     0.037 A 
HETATM   30  C   UNL     1       7.283  25.049  53.603  1.00  0.00    -0.060 A 
HETATM   31  C   UNL     1       8.017  24.638  52.361  1.00  0.00     0.048 C 
HETATM   32  C   UNL     1       6.858  24.094  54.529  1.00  0.00     0.007 A 
HETATM   33  C   UNL     1       6.151  24.481  55.670  1.00  0.00     0.009 A 
HETATM   34  C   UNL     1       5.852  25.831  55.916  1.00  0.00    -0.035 A 
HETATM   35  C   UNL     1       5.021  26.154  57.126  1.00  0.00     0.050 C 
ENDBRANCH   1  28
TORSDOF 5
ENDMDL
MODEL 10
REMARK VINA RESULT:      -7.7      3.357      5.699
REMARK  5 active torsions:
REMARK  status: ('A' for Active; 'I' for Inactive)
REMARK    1  A    between atoms: C_4  and  N_5 
REMARK    2  A    between atoms: C_9  and  C_10 
REMARK    3  A    between atoms: C_13  and  O_14 
REMARK    4  A    between atoms: C_17  and  C_18 
REMARK       I    between atoms: C_18  and  N_19 
REMARK    5  A    between atoms: N_19  and  C_20 
ROOT
HETATM    1  N   UNL     1       4.048  31.632  52.113  1.00  0.00    -0.292 N 
HETATM    2  C   UNL     1       4.862  31.943  51.001  1.00  0.00     0.179 C 
HETATM    3  S   UNL     1       5.045  33.425  50.223  1.00  0.00    -0.040 SA
HETATM    4  N   UNL     1       5.641  30.938  50.509  1.00  0.00    -0.354 N 
HETATM    5  C   UNL     1       5.551  29.542  50.858  1.00  0.00     0.158 C 
HETATM    6  C   UNL     1       4.838  29.378  52.160  1.00  0.00     0.060 C 
HETATM    7  C   UNL     1       4.108  30.359  52.737  1.00  0.00     0.030 C 
HETATM    8  C   UNL     1       3.358  30.161  54.040  1.00  0.00     0.070 C 
HETATM    9  H   UNL     1       6.203  31.180  49.703  1.00  0.00     0.163 HD
ENDROOT
BRANCH   6  10
HETATM   10  C   UNL     1       5.184  28.098  52.845  1.00  0.00     0.257 C 
HETATM   11  N   UNL     1       6.518  27.939  53.123  1.00  0.00    -0.306 N 
HETATM   12  H   UNL     1       7.156  28.701  52.948  1.00  0.00     0.170 HD
HETATM   13  O   UNL     1       4.270  27.330  53.125  1.00  0.00    -0.267 OA
BRANCH  11  14
HETATM   14  C   UNL     1       7.080  26.718  53.453  1.00  0.00     0.160 A 
HETATM   15  N   UNL     1       7.392  26.311  54.688  1.00  0.00    -0.110 NA
HETATM   16  O   UNL     1       7.824  25.008  54.575  1.00  0.00    -0.216 OA
HETATM   17  C   UNL     1       7.767  24.625  53.274  1.00  0.00     0.078 A 
HETATM   18  C   UNL     1       8.136  23.228  52.989  1.00  0.00     0.079 C 
HETATM   19  C   UNL     1       7.336  25.685  52.515  1.00  0.00     0.087 A 
ENDBRANCH  11  14
ENDBRANCH   6  10
BRANCH   5  20
HETATM   20  C   UNL     1       4.894  28.756  49.730  1.00  0.00    -0.031 A 
HETATM   21  C   UNL     1       3.511  28.504  49.765  1.00  0.00     0.012 A 
HETATM   22  C   UNL     1       2.890  27.773  48.746  1.00  0.00     0.037 A 
HETATM   23  C   UNL     1       3.651  27.298  47.684  1.00  0.00     0.065 A 
HETATM   24  C   UNL     1       5.015  27.547  47.618  1.00  0.00     0.037 A 
HETATM   25  C   UNL     1       5.635  28.275  48.635  1.00  0.00     0.012 A 
BRANCH  23  26
HETATM   26  O   UNL     1       3.090  26.573  46.675  1.00  0.00    -0.361 OA
HETATM   27  H   UNL     1       3.801  26.219  46.115  1.00  0.00     0.217 HD
ENDBRANCH  23  26
ENDBRANCH   5  20
BRANCH   1  28
HETATM   28  C   UNL     1       3.226  32.684  52.650  1.00  0.00     0.048 A 
HETATM   29  C   UNL     1       1.911  32.798  52.159  1.00  0.00     0.037 A 
HETATM   30  C   UNL     1       1.055  33.805  52.616  1.00  0.00    -0.060 A 
HETATM   31  C   UNL     1      -0.332  33.932  52.059  1.00  0.00     0.048 C 
HETATM   32  C   UNL     1       1.501  34.666  53.621  1.00  0.00     0.007 A 
HETATM   33  C   UNL     1       2.804  34.560  54.116  1.00  0.00     0.009 A 
HETATM   34  C   UNL     1       3.692  33.592  53.620  1.00  0.00    -0.035 A 
HETATM   35  C   UNL     1       5.098  33.596  54.151  1.00  0.00     0.050 C 
ENDBRANCH   1  28
TORSDOF 5
ENDMDL
