MODEL 1
REMARK VINA RESULT:      -7.7      0.000      0.000
REMARK  5 active torsions:
REMARK  status: ('A' for Active; 'I' for Inactive)
REMARK    1  A    between atoms: C_2  and  C_3 
REMARK    2  A    between atoms: C_3  and  N_4 
REMARK    3  A    between atoms: C_3  and  C_14 
REMARK       I    between atoms: N_4  and  C_5 
REMARK    4  A    between atoms: C_5  and  C_6 
REMARK    5  A    between atoms: C_17  and  O_18 
ROOT
HETATM    1  C   UNL     1       6.463  25.495  53.613  1.00  0.00     0.117 C 
ENDROOT
BRANCH   1   2
HETATM    2  C   UNL     1       6.721  25.907  52.151  1.00  0.00     0.025 C 
HETATM    3  C   UNL     1       5.458  25.924  51.298  1.00  0.00     0.007 C 
ENDBRANCH   1   2
BRANCH   1   4
HETATM    4  N   UNL     1       7.042  26.446  54.555  1.00  0.00    -0.348 N 
HETATM    5  C   UNL     1       6.273  27.325  55.285  1.00  0.00     0.253 C 
HETATM    6  O   UNL     1       5.053  27.390  55.204  1.00  0.00    -0.268 OA
HETATM    7  H   UNL     1       8.047  26.524  54.563  1.00  0.00     0.163 HD
BRANCH   5   8
HETATM    8  C   UNL     1       7.000  28.254  56.182  1.00  0.00     0.050 A 
HETATM    9  C   UNL     1       6.280  28.924  57.167  1.00  0.00     0.133 A 
HETATM   10  N   UNL     1       6.829  29.808  58.038  1.00  0.00    -0.271 NA
HETATM   11  C   UNL     1       8.160  30.022  57.928  1.00  0.00     0.135 A 
HETATM   12  C   UNL     1       8.961  29.386  56.991  1.00  0.00     0.029 A 
HETATM   13 BR   UNL     1      10.813  29.735  56.914  1.00  0.00    -0.050 Br
HETATM   14  C   UNL     1       8.377  28.484  56.105  1.00  0.00     0.039 A 
ENDBRANCH   5   8
ENDBRANCH   1   4
BRANCH   1  15
HETATM   15  C   UNL     1       7.022  24.107  53.892  1.00  0.00    -0.035 A 
HETATM   16  C   UNL     1       7.081  23.634  55.210  1.00  0.00     0.012 A 
HETATM   17  C   UNL     1       7.597  22.365  55.488  1.00  0.00     0.037 A 
HETATM   18  C   UNL     1       8.074  21.548  54.462  1.00  0.00     0.068 A 
HETATM   19  C   UNL     1       8.014  22.005  53.147  1.00  0.00     0.037 A 
HETATM   20  C   UNL     1       7.489  23.272  52.864  1.00  0.00     0.012 A 
BRANCH  18  21
HETATM   21  O   UNL     1       8.559  20.338  54.873  1.00  0.00    -0.356 OA
HETATM   22  C   UNL     1       9.144  20.286  56.167  1.00  0.00     0.210 C 
ENDBRANCH  18  21
ENDBRANCH   1  15
TORSDOF 5
ENDMDL
MODEL 2
REMARK VINA RESULT:      -7.7      1.899      2.553
REMARK  5 active torsions:
REMARK  status: ('A' for Active; 'I' for Inactive)
REMARK    1  A    between atoms: C_2  and  C_3 
REMARK    2  A    between atoms: C_3  and  N_4 
REMARK    3  A    between atoms: C_3  and  C_14 
REMARK       I    between atoms: N_4  and  C_5 
REMARK    4  A    between atoms: C_5  and  C_6 
REMARK    5  A    between atoms: C_17  and  O_18 
ROOT
HETATM    1  C   UNL     1       6.628  26.342  55.033  1.00  0.00     0.117 C 
ENDROOT
BRANCH   1   2
HETATM    2  C   UNL     1       5.870  26.859  53.796  1.00  0.00     0.025 C 
HETATM    3  C   UNL     1       6.488  28.112  53.189  1.00  0.00     0.007 C 
ENDBRANCH   1   2
BRANCH   1   4
HETATM    4  N   UNL     1       7.604  27.312  55.515  1.00  0.00    -0.348 N 
HETATM    5  C   UNL     1       7.444  27.996  56.700  1.00  0.00     0.253 C 
HETATM    6  O   UNL     1       6.478  27.857  57.440  1.00  0.00    -0.268 OA
HETATM    7  H   UNL     1       8.349  27.560  54.884  1.00  0.00     0.163 HD
BRANCH   5   8
HETATM    8  C   UNL     1       8.503  28.973  57.049  1.00  0.00     0.050 A 
HETATM    9  C   UNL     1       9.578  29.124  56.178  1.00  0.00     0.133 A 
HETATM   10  N   UNL     1      10.615  29.973  56.394  1.00  0.00    -0.271 NA
HETATM   11  C   UNL     1      10.566  30.715  57.524  1.00  0.00     0.135 A 
HETATM   12  C   UNL     1       9.526  30.647  58.440  1.00  0.00     0.029 A 
HETATM   13 BR   UNL     1       9.532  31.727  59.986  1.00  0.00    -0.050 Br
HETATM   14  C   UNL     1       8.474  29.767  58.199  1.00  0.00     0.039 A 
ENDBRANCH   5   8
ENDBRANCH   1   4
BRANCH   1  15
HETATM   15  C   UNL     1       7.332  25.028  54.729  1.00  0.00    -0.035 A 
HETATM   16  C   UNL     1       7.174  24.429  53.472  1.00  0.00     0.012 A 
HETATM   17  C   UNL     1       7.807  23.219  53.175  1.00  0.00     0.037 A 
HETATM   18  C   UNL     1       8.600  22.576  54.127  1.00  0.00     0.068 A 
HETATM   19  C   UNL     1       8.770  23.165  55.378  1.00  0.00     0.037 A 
HETATM   20  C   UNL     1       8.145  24.383  55.675  1.00  0.00     0.012 A 
BRANCH  18  21
HETATM   21  O   UNL     1       9.152  21.397  53.710  1.00  0.00    -0.356 OA
HETATM   22  C   UNL     1       8.322  20.535  52.943  1.00  0.00     0.210 C 
ENDBRANCH  18  21
ENDBRANCH   1  15
TORSDOF 5
ENDMDL
MODEL 3
REMARK VINA RESULT:      -7.4      3.674      5.671
REMARK  5 active torsions:
REMARK  status: ('A' for Active; 'I' for Inactive)
REMARK    1  A    between atoms: C_2  and  C_3 
REMARK    2  A    between atoms: C_3  and  N_4 
REMARK    3  A    between atoms: C_3  and  C_14 
REMARK       I    between atoms: N_4  and  C_5 
REMARK    4  A    between atoms: C_5  and  C_6 
REMARK    5  A    between atoms: C_17  and  O_18 
ROOT
HETATM    1  C   UNL     1       6.406  25.725  53.933  1.00  0.00     0.117 C 
ENDROOT
BRANCH   1   2
HETATM    2  C   UNL     1       5.328  25.962  55.008  1.00  0.00     0.025 C 
HETATM    3  C   UNL     1       5.595  27.190  55.870  1.00  0.00     0.007 C 
ENDBRANCH   1   2
BRANCH   1   4
HETATM    4  N   UNL     1       5.890  25.954  52.589  1.00  0.00    -0.348 N 
HETATM    5  C   UNL     1       5.858  27.205  52.012  1.00  0.00     0.253 C 
HETATM    6  O   UNL     1       6.248  28.222  52.572  1.00  0.00    -0.268 OA
HETATM    7  H   UNL     1       5.438  25.176  52.136  1.00  0.00     0.163 HD
BRANCH   5   8
HETATM    8  C   UNL     1       5.280  27.292  50.650  1.00  0.00     0.050 A 
HETATM    9  C   UNL     1       5.449  28.473  49.933  1.00  0.00     0.133 A 
HETATM   10  N   UNL     1       4.955  28.679  48.685  1.00  0.00    -0.271 NA
HETATM   11  C   UNL     1       4.274  27.653  48.126  1.00  0.00     0.135 A 
HETATM   12  C   UNL     1       4.072  26.434  48.756  1.00  0.00     0.029 A 
HETATM   13 BR   UNL     1       3.119  25.052  47.897  1.00  0.00    -0.050 Br
HETATM   14  C   UNL     1       4.586  26.245  50.037  1.00  0.00     0.039 A 
ENDBRANCH   5   8
ENDBRANCH   1   4
BRANCH   1  15
HETATM   15  C   UNL     1       6.963  24.312  54.024  1.00  0.00    -0.035 A 
HETATM   16  C   UNL     1       7.136  23.713  55.279  1.00  0.00     0.012 A 
HETATM   17  C   UNL     1       7.652  22.419  55.385  1.00  0.00     0.037 A 
HETATM   18  C   UNL     1       8.017  21.700  54.245  1.00  0.00     0.068 A 
HETATM   19  C   UNL     1       7.843  22.283  52.992  1.00  0.00     0.037 A 
HETATM   20  C   UNL     1       7.316  23.576  52.882  1.00  0.00     0.012 A 
BRANCH  18  21
HETATM   21  O   UNL     1       8.516  20.451  54.491  1.00  0.00    -0.356 OA
HETATM   22  C   UNL     1       8.427  19.977  55.828  1.00  0.00     0.210 C 
ENDBRANCH  18  21
ENDBRANCH   1  15
TORSDOF 5
ENDMDL
MODEL 4
REMARK VINA RESULT:      -7.2      3.236      7.230
REMARK  5 active torsions:
REMARK  status: ('A' for Active; 'I' for Inactive)
REMARK    1  A    between atoms: C_2  and  C_3 
REMARK    2  A    between atoms: C_3  and  N_4 
REMARK    3  A    between atoms: C_3  and  C_14 
REMARK       I    between atoms: N_4  and  C_5 
REMARK    4  A    between atoms: C_5  and  C_6 
REMARK    5  A    between atoms: C_17  and  O_18 
ROOT
HETATM    1  C   UNL     1       6.795  28.056  55.774  1.00  0.00     0.117 C 
ENDROOT
BRANCH   1   2
HETATM    2  C   UNL     1       5.298  28.285  56.059  1.00  0.00     0.025 C 
HETATM    3  C   UNL     1       4.440  28.303  54.800  1.00  0.00     0.007 C 
ENDBRANCH   1   2
BRANCH   1   4
HETATM    4  N   UNL     1       7.164  26.652  55.912  1.00  0.00    -0.348 N 
HETATM    5  C   UNL     1       7.309  25.816  54.827  1.00  0.00     0.253 C 
HETATM    6  O   UNL     1       7.137  26.171  53.668  1.00  0.00    -0.268 OA
HETATM    7  H   UNL     1       7.190  26.278  56.847  1.00  0.00     0.163 HD
BRANCH   5   8
HETATM    8  C   UNL     1       7.660  24.406  55.120  1.00  0.00     0.050 A 
HETATM    9  C   UNL     1       8.011  24.067  56.424  1.00  0.00     0.133 A 
HETATM   10  N   UNL     1       8.365  22.816  56.813  1.00  0.00    -0.271 NA
HETATM   11  C   UNL     1       8.354  21.859  55.858  1.00  0.00     0.135 A 
HETATM   12  C   UNL     1       8.001  22.098  54.538  1.00  0.00     0.029 A 
HETATM   13 BR   UNL     1       8.002  20.699  53.272  1.00  0.00    -0.050 Br
HETATM   14  C   UNL     1       7.642  23.389  54.160  1.00  0.00     0.039 A 
ENDBRANCH   5   8
ENDBRANCH   1   4
BRANCH   1  15
HETATM   15  C   UNL     1       7.660  28.898  56.701  1.00  0.00    -0.035 A 
HETATM   16  C   UNL     1       7.065  29.603  57.756  1.00  0.00     0.012 A 
HETATM   17  C   UNL     1       7.841  30.387  58.614  1.00  0.00     0.037 A 
HETATM   18  C   UNL     1       9.221  30.493  58.433  1.00  0.00     0.068 A 
HETATM   19  C   UNL     1       9.824  29.790  57.391  1.00  0.00     0.037 A 
HETATM   20  C   UNL     1       9.051  28.996  56.535  1.00  0.00     0.012 A 
BRANCH  18  21
HETATM   21  O   UNL     1       9.857  31.298  59.336  1.00  0.00    -0.356 OA
HETATM   22  C   UNL     1       9.038  31.976  60.279  1.00  0.00     0.210 C 
ENDBRANCH  18  21
ENDBRANCH   1  15
TORSDOF 5
ENDMDL
MODEL 5
REMARK VINA RESULT:      -7.2      3.057      7.005
REMARK  5 active torsions:
REMARK  status: ('A' for Active; 'I' for Inactive)
REMARK    1  A    between atoms: C_2  and  C_3 
REMARK    2  A    between atoms: C_3  and  N_4 
REMARK    3  A    between atoms: C_3  and  C_14 
REMARK       I    between atoms: N_4  and  C_5 
REMARK    4  A    between atoms: C_5  and  C_6 
REMARK    5  A    between atoms: C_17  and  O_18 
ROOT
HETATM    1  C   UNL     1       6.831  27.211  54.420  1.00  0.00     0.117 C 
ENDROOT
BRANCH   1   2
HETATM    2  C   UNL     1       5.319  27.508  54.387  1.00  0.00     0.025 C 
HETATM    3  C   UNL     1       4.996  28.954  54.034  1.00  0.00     0.007 C 
ENDBRANCH   1   2
BRANCH   1   4
HETATM    4  N   UNL     1       7.100  25.786  54.568  1.00  0.00    -0.348 N 
HETATM    5  C   UNL     1       7.668  25.033  53.564  1.00  0.00     0.253 C 
HETATM    6  O   UNL     1       7.985  25.485  52.471  1.00  0.00    -0.268 OA
HETATM    7  H   UNL     1       6.740  25.338  55.395  1.00  0.00     0.163 HD
BRANCH   5   8
HETATM    8  C   UNL     1       7.857  23.589  53.845  1.00  0.00     0.050 A 
HETATM    9  C   UNL     1       7.865  22.701  52.774  1.00  0.00     0.133 A 
HETATM   10  N   UNL     1       8.015  21.358  52.903  1.00  0.00    -0.271 NA
HETATM   11  C   UNL     1       8.179  20.885  54.160  1.00  0.00     0.135 A 
HETATM   12  C   UNL     1       8.204  21.695  55.285  1.00  0.00     0.029 A 
HETATM   13 BR   UNL     1       8.450  20.952  57.001  1.00  0.00    -0.050 Br
HETATM   14  C   UNL     1       8.046  23.070  55.129  1.00  0.00     0.039 A 
ENDBRANCH   5   8
ENDBRANCH   1   4
BRANCH   1  15
HETATM   15  C   UNL     1       7.509  27.972  55.550  1.00  0.00    -0.035 A 
HETATM   16  C   UNL     1       8.571  28.840  55.264  1.00  0.00     0.012 A 
HETATM   17  C   UNL     1       9.211  29.542  56.288  1.00  0.00     0.037 A 
HETATM   18  C   UNL     1       8.815  29.385  57.618  1.00  0.00     0.068 A 
HETATM   19  C   UNL     1       7.756  28.530  57.913  1.00  0.00     0.037 A 
HETATM   20  C   UNL     1       7.105  27.832  56.888  1.00  0.00     0.012 A 
BRANCH  18  21
HETATM   21  O   UNL     1       9.530  30.123  58.519  1.00  0.00    -0.356 OA
HETATM   22  C   UNL     1      10.387  31.127  57.991  1.00  0.00     0.210 C 
ENDBRANCH  18  21
ENDBRANCH   1  15
TORSDOF 5
ENDMDL
MODEL 6
REMARK VINA RESULT:      -7.1      3.368      6.642
REMARK  5 active torsions:
REMARK  status: ('A' for Active; 'I' for Inactive)
REMARK    1  A    between atoms: C_2  and  C_3 
REMARK    2  A    between atoms: C_3  and  N_4 
REMARK    3  A    between atoms: C_3  and  C_14 
REMARK       I    between atoms: N_4  and  C_5 
REMARK    4  A    between atoms: C_5  and  C_6 
REMARK    5  A    between atoms: C_17  and  O_18 
ROOT
HETATM    1  C   UNL     1       5.721  27.086  53.806  1.00  0.00     0.117 C 
ENDROOT
BRANCH   1   2
HETATM    2  C   UNL     1       6.481  28.317  54.337  1.00  0.00     0.025 C 
HETATM    3  C   UNL     1       7.996  28.169  54.261  1.00  0.00     0.007 C 
ENDBRANCH   1   2
BRANCH   1   4
HETATM    4  N   UNL     1       6.460  25.851  54.039  1.00  0.00    -0.348 N 
HETATM    5  C   UNL     1       6.243  25.056  55.143  1.00  0.00     0.253 C 
HETATM    6  O   UNL     1       5.426  25.316  56.017  1.00  0.00    -0.268 OA
HETATM    7  H   UNL     1       7.232  25.659  53.420  1.00  0.00     0.163 HD
BRANCH   5   8
HETATM    8  C   UNL     1       7.088  23.844  55.263  1.00  0.00     0.050 A 
HETATM    9  C   UNL     1       7.713  23.591  56.480  1.00  0.00     0.133 A 
HETATM   10  N   UNL     1       8.522  22.524  56.710  1.00  0.00    -0.271 NA
HETATM   11  C   UNL     1       8.700  21.666  55.679  1.00  0.00     0.135 A 
HETATM   12  C   UNL     1       8.102  21.826  54.438  1.00  0.00     0.029 A 
HETATM   13 BR   UNL     1       8.397  20.573  53.059  1.00  0.00    -0.050 Br
HETATM   14  C   UNL     1       7.279  22.928  54.224  1.00  0.00     0.039 A 
ENDBRANCH   5   8
ENDBRANCH   1   4
BRANCH   1  15
HETATM   15  C   UNL     1       5.431  27.227  52.319  1.00  0.00    -0.035 A 
HETATM   16  C   UNL     1       5.191  26.082  51.547  1.00  0.00     0.012 A 
HETATM   17  C   UNL     1       4.929  26.189  50.178  1.00  0.00     0.037 A 
HETATM   18  C   UNL     1       4.913  27.435  49.550  1.00  0.00     0.068 A 
HETATM   19  C   UNL     1       5.143  28.581  50.308  1.00  0.00     0.037 A 
HETATM   20  C   UNL     1       5.396  28.478  51.682  1.00  0.00     0.012 A 
BRANCH  18  21
HETATM   21  O   UNL     1       4.654  27.396  48.208  1.00  0.00    -0.356 OA
HETATM   22  C   UNL     1       3.948  26.261  47.723  1.00  0.00     0.210 C 
ENDBRANCH  18  21
ENDBRANCH   1  15
TORSDOF 5
ENDMDL
MODEL 7
REMARK VINA RESULT:      -7.1      3.322      4.744
REMARK  5 active torsions:
REMARK  status: ('A' for Active; 'I' for Inactive)
REMARK    1  A    between atoms: C_2  and  C_3 
REMARK    2  A    between atoms: C_3  and  N_4 
REMARK    3  A    between atoms: C_3  and  C_14 
REMARK       I    between atoms: N_4  and  C_5 
REMARK    4  A    between atoms: C_5  and  C_6 
REMARK    5  A    between atoms: C_17  and  O_18 
ROOT
HETATM    1  C   UNL     1       7.239  25.972  55.540  1.00  0.00     0.117 C 
ENDROOT
BRANCH   1   2
HETATM    2  C   UNL     1       6.544  26.017  56.915  1.00  0.00     0.025 C 
HETATM    3  C   UNL     1       5.184  25.329  56.926  1.00  0.00     0.007 C 
ENDBRANCH   1   2
BRANCH   1   4
HETATM    4  N   UNL     1       6.366  26.453  54.476  1.00  0.00    -0.348 N 
HETATM    5  C   UNL     1       6.710  27.505  53.657  1.00  0.00     0.253 C 
HETATM    6  O   UNL     1       7.762  28.125  53.753  1.00  0.00    -0.268 OA
HETATM    7  H   UNL     1       5.437  26.064  54.438  1.00  0.00     0.163 HD
BRANCH   5   8
HETATM    8  C   UNL     1       5.712  27.904  52.635  1.00  0.00     0.050 A 
HETATM    9  C   UNL     1       4.918  29.019  52.885  1.00  0.00     0.133 A 
HETATM   10  N   UNL     1       3.962  29.475  52.036  1.00  0.00    -0.271 NA
HETATM   11  C   UNL     1       3.803  28.791  50.880  1.00  0.00     0.135 A 
HETATM   12  C   UNL     1       4.560  27.681  50.537  1.00  0.00     0.029 A 
HETATM   13 BR   UNL     1       4.279  26.793  48.897  1.00  0.00    -0.050 Br
HETATM   14  C   UNL     1       5.534  27.230  51.424  1.00  0.00     0.039 A 
ENDBRANCH   5   8
ENDBRANCH   1   4
BRANCH   1  15
HETATM   15  C   UNL     1       7.702  24.559  55.212  1.00  0.00    -0.035 A 
HETATM   16  C   UNL     1       7.310  23.962  54.007  1.00  0.00     0.012 A 
HETATM   17  C   UNL     1       7.719  22.665  53.689  1.00  0.00     0.037 A 
HETATM   18  C   UNL     1       8.515  21.932  54.570  1.00  0.00     0.068 A 
HETATM   19  C   UNL     1       8.917  22.517  55.769  1.00  0.00     0.037 A 
HETATM   20  C   UNL     1       8.517  23.821  56.085  1.00  0.00     0.012 A 
BRANCH  18  21
HETATM   21  O   UNL     1       8.835  20.673  54.141  1.00  0.00    -0.356 OA
HETATM   22  C   UNL     1       8.417  20.317  52.831  1.00  0.00     0.210 C 
ENDBRANCH  18  21
ENDBRANCH   1  15
TORSDOF 5
ENDMDL
MODEL 8
REMARK VINA RESULT:      -7.1      1.918      2.443
REMARK  5 active torsions:
REMARK  status: ('A' for Active; 'I' for Inactive)
REMARK    1  A    between atoms: C_2  and  C_3 
REMARK    2  A    between atoms: C_3  and  N_4 
REMARK    3  A    between atoms: C_3  and  C_14 
REMARK       I    between atoms: N_4  and  C_5 
REMARK    4  A    between atoms: C_5  and  C_6 
REMARK    5  A    between atoms: C_17  and  O_18 
ROOT
HETATM    1  C   UNL     1       6.038  25.460  53.322  1.00  0.00     0.117 C 
ENDROOT
BRANCH   1   2
HETATM    2  C   UNL     1       6.510  25.919  51.929  1.00  0.00     0.025 C 
HETATM    3  C   UNL     1       5.388  25.972  50.900  1.00  0.00     0.007 C 
ENDBRANCH   1   2
BRANCH   1   4
HETATM    4  N   UNL     1       6.198  26.510  54.321  1.00  0.00    -0.348 N 
HETATM    5  C   UNL     1       5.252  27.491  54.520  1.00  0.00     0.253 C 
HETATM    6  O   UNL     1       4.212  27.572  53.880  1.00  0.00    -0.268 OA
HETATM    7  H   UNL     1       7.091  26.566  54.784  1.00  0.00     0.163 HD
BRANCH   5   8
HETATM    8  C   UNL     1       5.562  28.511  55.551  1.00  0.00     0.050 A 
HETATM    9  C   UNL     1       6.894  28.847  55.771  1.00  0.00     0.133 A 
HETATM   10  N   UNL     1       7.305  29.753  56.695  1.00  0.00    -0.271 NA
HETATM   11  C   UNL     1       6.338  30.359  57.421  1.00  0.00     0.135 A 
HETATM   12  C   UNL     1       4.985  30.102  57.259  1.00  0.00     0.029 A 
HETATM   13 BR   UNL     1       3.701  31.003  58.307  1.00  0.00    -0.050 Br
HETATM   14  C   UNL     1       4.586  29.168  56.306  1.00  0.00     0.039 A 
ENDBRANCH   5   8
ENDBRANCH   1   4
BRANCH   1  15
HETATM   15  C   UNL     1       6.796  24.218  53.771  1.00  0.00    -0.035 A 
HETATM   16  C   UNL     1       7.422  23.404  52.818  1.00  0.00     0.012 A 
HETATM   17  C   UNL     1       8.117  22.257  53.208  1.00  0.00     0.037 A 
HETATM   18  C   UNL     1       8.192  21.891  54.553  1.00  0.00     0.068 A 
HETATM   19  C   UNL     1       7.579  22.696  55.511  1.00  0.00     0.037 A 
HETATM   20  C   UNL     1       6.890  23.852  55.123  1.00  0.00     0.012 A 
BRANCH  18  21
HETATM   21  O   UNL     1       8.894  20.743  54.796  1.00  0.00    -0.356 OA
HETATM   22  C   UNL     1       9.122  20.406  56.158  1.00  0.00     0.210 C 
ENDBRANCH  18  21
ENDBRANCH   1  15
TORSDOF 5
ENDMDL
MODEL 9
REMARK VINA RESULT:      -7.0      4.256      8.668
REMARK  5 active torsions:
REMARK  status: ('A' for Active; 'I' for Inactive)
REMARK    1  A    between atoms: C_2  and  C_3 
REMARK    2  A    between atoms: C_3  and  N_4 
REMARK    3  A    between atoms: C_3  and  C_14 
REMARK       I    between atoms: N_4  and  C_5 
REMARK    4  A    between atoms: C_5  and  C_6 
REMARK    5  A    between atoms: C_17  and  O_18 
ROOT
HETATM    1  C   UNL     1       9.166  29.990  58.479  1.00  0.00     0.117 C 
ENDROOT
BRANCH   1   2
HETATM    2  C   UNL     1      10.375  30.663  57.801  1.00  0.00     0.025 C 
HETATM    3  C   UNL     1      11.242  29.690  57.011  1.00  0.00     0.007 C 
ENDBRANCH   1   2
BRANCH   1   4
HETATM    4  N   UNL     1       8.115  29.672  57.521  1.00  0.00    -0.348 N 
HETATM    5  C   UNL     1       7.568  28.412  57.415  1.00  0.00     0.253 C 
HETATM    6  O   UNL     1       7.916  27.460  58.101  1.00  0.00    -0.268 OA
HETATM    7  H   UNL     1       7.884  30.382  56.845  1.00  0.00     0.163 HD
BRANCH   5   8
HETATM    8  C   UNL     1       6.527  28.227  56.376  1.00  0.00     0.050 A 
HETATM    9  C   UNL     1       5.611  29.254  56.166  1.00  0.00     0.133 A 
HETATM   10  N   UNL     1       4.605  29.198  55.256  1.00  0.00    -0.271 NA
HETATM   11  C   UNL     1       4.521  28.070  54.514  1.00  0.00     0.135 A 
HETATM   12  C   UNL     1       5.399  27.004  54.639  1.00  0.00     0.029 A 
HETATM   13 BR   UNL     1       5.216  25.473  53.554  1.00  0.00    -0.050 Br
HETATM   14  C   UNL     1       6.423  27.082  55.580  1.00  0.00     0.039 A 
ENDBRANCH   5   8
ENDBRANCH   1   4
BRANCH   1  15
HETATM   15  C   UNL     1       8.596  30.878  59.576  1.00  0.00    -0.035 A 
HETATM   16  C   UNL     1       9.272  30.994  60.798  1.00  0.00     0.012 A 
HETATM   17  C   UNL     1       8.761  31.799  61.820  1.00  0.00     0.037 A 
HETATM   18  C   UNL     1       7.562  32.493  61.650  1.00  0.00     0.068 A 
HETATM   19  C   UNL     1       6.884  32.390  60.437  1.00  0.00     0.037 A 
HETATM   20  C   UNL     1       7.399  31.592  59.407  1.00  0.00     0.012 A 
BRANCH  18  21
HETATM   21  O   UNL     1       7.172  33.234  62.731  1.00  0.00    -0.356 OA
HETATM   22  C   UNL     1       7.792  32.933  63.973  1.00  0.00     0.210 C 
ENDBRANCH  18  21
ENDBRANCH   1  15
TORSDOF 5
ENDMDL
MODEL 10
REMARK VINA RESULT:      -7.0      4.731      9.202
REMARK  5 active torsions:
REMARK  status: ('A' for Active; 'I' for Inactive)
REMARK    1  A    between atoms: C_2  and  C_3 
REMARK    2  A    between atoms: C_3  and  N_4 
REMARK    3  A    between atoms: C_3  and  C_14 
REMARK       I    between atoms: N_4  and  C_5 
REMARK    4  A    between atoms: C_5  and  C_6 
REMARK    5  A    between atoms: C_17  and  O_18 
ROOT
HETATM    1  C   UNL     1       8.840  30.541  59.196  1.00  0.00     0.117 C 
ENDROOT
BRANCH   1   2
HETATM    2  C   UNL     1       9.952  31.323  58.471  1.00  0.00     0.025 C 
HETATM    3  C   UNL     1      10.737  30.475  57.477  1.00  0.00     0.007 C 
ENDBRANCH   1   2
BRANCH   1   4
HETATM    4  N   UNL     1       7.735  30.216  58.301  1.00  0.00    -0.348 N 
HETATM    5  C   UNL     1       7.444  28.923  57.926  1.00  0.00     0.253 C 
HETATM    6  O   UNL     1       8.081  27.946  58.299  1.00  0.00    -0.268 OA
HETATM    7  H   UNL     1       7.262  30.989  57.863  1.00  0.00     0.163 HD
BRANCH   5   8
HETATM    8  C   UNL     1       6.309  28.745  56.989  1.00  0.00     0.050 A 
HETATM    9  C   UNL     1       5.165  29.514  57.181  1.00  0.00     0.133 A 
HETATM   10  N   UNL     1       4.057  29.432  56.400  1.00  0.00    -0.271 NA
HETATM   11  C   UNL     1       4.102  28.552  55.374  1.00  0.00     0.135 A 
HETATM   12  C   UNL     1       5.205  27.759  55.094  1.00  0.00     0.029 A 
HETATM   13 BR   UNL     1       5.186  26.565  53.634  1.00  0.00    -0.050 Br
HETATM   14  C   UNL     1       6.330  27.857  55.909  1.00  0.00     0.039 A 
ENDBRANCH   5   8
ENDBRANCH   1   4
BRANCH   1  15
HETATM   15  C   UNL     1       8.310  31.327  60.386  1.00  0.00    -0.035 A 
HETATM   16  C   UNL     1       7.112  32.043  60.267  1.00  0.00     0.012 A 
HETATM   17  C   UNL     1       6.611  32.777  61.346  1.00  0.00     0.037 A 
HETATM   18  C   UNL     1       7.299  32.822  62.559  1.00  0.00     0.068 A 
HETATM   19  C   UNL     1       8.489  32.109  62.691  1.00  0.00     0.037 A 
HETATM   20  C   UNL     1       8.988  31.364  61.615  1.00  0.00     0.012 A 
BRANCH  18  21
HETATM   21  O   UNL     1       6.705  33.583  63.527  1.00  0.00    -0.356 OA
HETATM   22  C   UNL     1       7.278  33.531  64.826  1.00  0.00     0.210 C 
ENDBRANCH  18  21
ENDBRANCH   1  15
TORSDOF 5
ENDMDL
