MODEL 1
REMARK VINA RESULT:     -10.0      0.000      0.000
REMARK  6 active torsions:
REMARK  status: ('A' for Active; 'I' for Inactive)
REMARK    1  A    between atoms: C_2  and  C_3 
REMARK    2  A    between atoms: C_2  and  C_9 
REMARK    3  A    between atoms: C_9  and  C_10 
REMARK    4  A    between atoms: C_10  and  C_11 
REMARK       I    between atoms: C_11  and  N_12 
REMARK    5  A    between atoms: N_12  and  C_13 
REMARK    6  A    between atoms: C_20  and  C_21 
REMARK       I    between atoms: C_21  and  N_22 
ROOT
HETATM    1  C   UNL     1       8.344  28.322  57.225  1.00  0.00     0.035 A 
HETATM    2  C   UNL     1       7.802  29.221  58.160  1.00  0.00     0.046 A 
HETATM    3  C   UNL     1       8.533  30.367  58.538  1.00  0.00     0.030 A 
HETATM    4  C   UNL     1       9.782  30.580  57.972  1.00  0.00     0.063 A 
HETATM    5  N   UNL     1      10.235  31.748  58.518  1.00  0.00    -0.277 N 
HETATM    6  H   UNL     1      11.117  32.211  58.330  1.00  0.00     0.189 HD
HETATM    7  N   UNL     1       9.390  32.316  59.395  1.00  0.00    -0.168 NA
HETATM    8  C   UNL     1       8.333  31.471  59.419  1.00  0.00     0.156 A 
HETATM    9  C   UNL     1      10.352  29.709  57.042  1.00  0.00     0.034 A 
HETATM   10  C   UNL     1       9.607  28.577  56.682  1.00  0.00     0.032 A 
ENDROOT
BRANCH   1  11
HETATM   11  N   UNL     1       7.553  27.204  56.881  1.00  0.00    -0.327 N 
HETATM   12  C   UNL     1       6.751  27.053  55.766  1.00  0.00     0.222 C 
HETATM   13  O   UNL     1       6.617  27.856  54.847  1.00  0.00    -0.273 OA
HETATM   14  H   UNL     1       7.598  26.421  57.522  1.00  0.00     0.169 HD
BRANCH  12  15
HETATM   15  C   UNL     1       5.989  25.738  55.754  1.00  0.00     0.103 C 
BRANCH  15  16
HETATM   16  C   UNL     1       6.077  25.051  54.389  1.00  0.00     0.018 C 
BRANCH  16  17
HETATM   17  C   UNL     1       7.506  24.598  54.016  1.00  0.00     0.015 C 
HETATM   18  C   UNL     1       7.860  25.060  52.598  1.00  0.00     0.015 C 
BRANCH  17  19
HETATM   19  C   UNL     1       7.698  23.095  54.149  1.00  0.00    -0.054 A 
HETATM   20  C   UNL     1       7.680  22.459  55.400  1.00  0.00     0.007 A 
HETATM   21  C   UNL     1       7.866  21.079  55.501  1.00  0.00     0.001 A 
HETATM   22  C   UNL     1       8.070  20.317  54.355  1.00  0.00     0.000 A 
HETATM   23  C   UNL     1       8.084  20.933  53.105  1.00  0.00     0.001 A 
HETATM   24  C   UNL     1       7.899  22.312  53.001  1.00  0.00     0.007 A 
ENDBRANCH  17  19
ENDBRANCH  16  17
ENDBRANCH  15  16
ENDBRANCH  12  15
ENDBRANCH   1  11
BRANCH   8  25
HETATM   25  C   UNL     1       7.165  31.729  60.269  1.00  0.00     0.270 C 
HETATM   26  N   UNL     1       7.231  31.143  61.504  1.00  0.00    -0.365 N 
HETATM   27  H   UNL     1       8.050  30.594  61.736  1.00  0.00     0.159 HD
HETATM   28  H   UNL     1       6.476  31.265  62.160  1.00  0.00     0.159 HD
HETATM   29  O   UNL     1       6.198  32.406  59.933  1.00  0.00    -0.266 OA
ENDBRANCH   8  25
TORSDOF 6
ENDMDL
MODEL 2
REMARK VINA RESULT:      -9.1      1.470      2.630
REMARK  6 active torsions:
REMARK  status: ('A' for Active; 'I' for Inactive)
REMARK    1  A    between atoms: C_2  and  C_3 
REMARK    2  A    between atoms: C_2  and  C_9 
REMARK    3  A    between atoms: C_9  and  C_10 
REMARK    4  A    between atoms: C_10  and  C_11 
REMARK       I    between atoms: C_11  and  N_12 
REMARK    5  A    between atoms: N_12  and  C_13 
REMARK    6  A    between atoms: C_20  and  C_21 
REMARK       I    between atoms: C_21  and  N_22 
ROOT
HETATM    1  C   UNL     1       8.457  28.291  57.208  1.00  0.00     0.035 A 
HETATM    2  C   UNL     1       7.844  29.172  58.116  1.00  0.00     0.046 A 
HETATM    3  C   UNL     1       8.518  30.341  58.525  1.00  0.00     0.030 A 
HETATM    4  C   UNL     1       9.784  30.595  58.015  1.00  0.00     0.063 A 
HETATM    5  N   UNL     1      10.172  31.778  58.579  1.00  0.00    -0.277 N 
HETATM    6  H   UNL     1      11.046  32.270  58.430  1.00  0.00     0.189 HD
HETATM    7  N   UNL     1       9.270  32.318  59.415  1.00  0.00    -0.168 NA
HETATM    8  C   UNL     1       8.242  31.439  59.393  1.00  0.00     0.156 A 
HETATM    9  C   UNL     1      10.424  29.744  57.114  1.00  0.00     0.034 A 
HETATM   10  C   UNL     1       9.734  28.588  56.722  1.00  0.00     0.032 A 
ENDROOT
BRANCH   1  11
HETATM   11  N   UNL     1       7.719  27.147  56.831  1.00  0.00    -0.327 N 
HETATM   12  C   UNL     1       7.740  25.900  57.426  1.00  0.00     0.222 C 
HETATM   13  O   UNL     1       8.378  25.576  58.423  1.00  0.00    -0.273 OA
HETATM   14  H   UNL     1       7.092  27.269  56.044  1.00  0.00     0.169 HD
BRANCH  12  15
HETATM   15  C   UNL     1       6.864  24.885  56.711  1.00  0.00     0.103 C 
BRANCH  15  16
HETATM   16  C   UNL     1       7.685  23.698  56.197  1.00  0.00     0.018 C 
BRANCH  16  17
HETATM   17  C   UNL     1       7.049  22.987  54.982  1.00  0.00     0.015 C 
HETATM   18  C   UNL     1       7.899  21.781  54.565  1.00  0.00     0.015 C 
BRANCH  17  19
HETATM   19  C   UNL     1       6.837  23.922  53.801  1.00  0.00    -0.054 A 
HETATM   20  C   UNL     1       5.573  24.456  53.505  1.00  0.00     0.007 A 
HETATM   21  C   UNL     1       5.397  25.306  52.411  1.00  0.00     0.001 A 
HETATM   22  C   UNL     1       6.481  25.635  51.602  1.00  0.00     0.000 A 
HETATM   23  C   UNL     1       7.743  25.118  51.887  1.00  0.00     0.001 A 
HETATM   24  C   UNL     1       7.921  24.267  52.980  1.00  0.00     0.007 A 
ENDBRANCH  17  19
ENDBRANCH  16  17
ENDBRANCH  15  16
ENDBRANCH  12  15
ENDBRANCH   1  11
BRANCH   8  25
HETATM   25  C   UNL     1       7.028  31.659  60.189  1.00  0.00     0.270 C 
HETATM   26  N   UNL     1       5.888  31.792  59.444  1.00  0.00    -0.365 N 
HETATM   27  H   UNL     1       5.959  31.731  58.435  1.00  0.00     0.159 HD
HETATM   28  H   UNL     1       5.003  31.945  59.901  1.00  0.00     0.159 HD
HETATM   29  O   UNL     1       7.004  31.723  61.414  1.00  0.00    -0.266 OA
ENDBRANCH   8  25
TORSDOF 6
ENDMDL
MODEL 3
REMARK VINA RESULT:      -9.0      1.737      2.153
REMARK  6 active torsions:
REMARK  status: ('A' for Active; 'I' for Inactive)
REMARK    1  A    between atoms: C_2  and  C_3 
REMARK    2  A    between atoms: C_2  and  C_9 
REMARK    3  A    between atoms: C_9  and  C_10 
REMARK    4  A    between atoms: C_10  and  C_11 
REMARK       I    between atoms: C_11  and  N_12 
REMARK    5  A    between atoms: N_12  and  C_13 
REMARK    6  A    between atoms: C_20  and  C_21 
REMARK       I    between atoms: C_21  and  N_22 
ROOT
HETATM    1  C   UNL     1       6.762  27.767  56.545  1.00  0.00     0.035 A 
HETATM    2  C   UNL     1       5.955  28.840  56.959  1.00  0.00     0.046 A 
HETATM    3  C   UNL     1       6.533  29.933  57.637  1.00  0.00     0.030 A 
HETATM    4  C   UNL     1       7.900  29.921  57.882  1.00  0.00     0.063 A 
HETATM    5  N   UNL     1       8.163  31.091  58.538  1.00  0.00    -0.277 N 
HETATM    6  H   UNL     1       9.063  31.418  58.869  1.00  0.00     0.189 HD
HETATM    7  N   UNL     1       7.085  31.866  58.744  1.00  0.00    -0.168 NA
HETATM    8  C   UNL     1       6.069  31.162  58.195  1.00  0.00     0.156 A 
HETATM    9  C   UNL     1       8.732  28.872  57.488  1.00  0.00     0.034 A 
HETATM   10  C   UNL     1       8.134  27.797  56.815  1.00  0.00     0.032 A 
ENDROOT
BRANCH   1  11
HETATM   11  N   UNL     1       6.120  26.712  55.859  1.00  0.00    -0.327 N 
HETATM   12  C   UNL     1       5.747  26.680  54.529  1.00  0.00     0.222 C 
HETATM   13  O   UNL     1       5.947  27.554  53.691  1.00  0.00    -0.273 OA
HETATM   14  H   UNL     1       5.931  25.882  56.408  1.00  0.00     0.169 HD
BRANCH  12  15
HETATM   15  C   UNL     1       5.015  25.404  54.146  1.00  0.00     0.103 C 
BRANCH  15  16
HETATM   16  C   UNL     1       5.752  24.644  53.040  1.00  0.00     0.018 C 
BRANCH  16  17
HETATM   17  C   UNL     1       7.252  24.423  53.336  1.00  0.00     0.015 C 
HETATM   18  C   UNL     1       8.095  24.754  52.099  1.00  0.00     0.015 C 
BRANCH  17  19
HETATM   19  C   UNL     1       7.552  23.013  53.822  1.00  0.00    -0.054 A 
HETATM   20  C   UNL     1       7.864  21.978  52.927  1.00  0.00     0.007 A 
HETATM   21  C   UNL     1       8.129  20.689  53.393  1.00  0.00     0.001 A 
HETATM   22  C   UNL     1       8.088  20.418  54.758  1.00  0.00     0.000 A 
HETATM   23  C   UNL     1       7.787  21.437  55.659  1.00  0.00     0.001 A 
HETATM   24  C   UNL     1       7.521  22.727  55.195  1.00  0.00     0.007 A 
ENDBRANCH  17  19
ENDBRANCH  16  17
ENDBRANCH  15  16
ENDBRANCH  12  15
ENDBRANCH   1  11
BRANCH   8  25
HETATM   25  C   UNL     1       4.691  31.667  58.207  1.00  0.00     0.270 C 
HETATM   26  N   UNL     1       3.900  31.108  59.173  1.00  0.00    -0.365 N 
HETATM   27  H   UNL     1       4.305  30.412  59.788  1.00  0.00     0.159 HD
HETATM   28  H   UNL     1       2.937  31.392  59.262  1.00  0.00     0.159 HD
HETATM   29  O   UNL     1       4.256  32.515  57.435  1.00  0.00    -0.266 OA
ENDBRANCH   8  25
TORSDOF 6
ENDMDL
MODEL 4
REMARK VINA RESULT:      -8.8      1.976      2.590
REMARK  6 active torsions:
REMARK  status: ('A' for Active; 'I' for Inactive)
REMARK    1  A    between atoms: C_2  and  C_3 
REMARK    2  A    between atoms: C_2  and  C_9 
REMARK    3  A    between atoms: C_9  and  C_10 
REMARK    4  A    between atoms: C_10  and  C_11 
REMARK       I    between atoms: C_11  and  N_12 
REMARK    5  A    between atoms: N_12  and  C_13 
REMARK    6  A    between atoms: C_20  and  C_21 
REMARK       I    between atoms: C_21  and  N_22 
ROOT
HETATM    1  C   UNL     1       6.246  28.550  56.555  1.00  0.00     0.035 A 
HETATM    2  C   UNL     1       6.970  29.173  57.587  1.00  0.00     0.046 A 
HETATM    3  C   UNL     1       6.667  30.500  57.955  1.00  0.00     0.030 A 
HETATM    4  C   UNL     1       5.652  31.166  57.281  1.00  0.00     0.063 A 
HETATM    5  N   UNL     1       5.589  32.406  57.851  1.00  0.00    -0.277 N 
HETATM    6  H   UNL     1       4.956  33.161  57.609  1.00  0.00     0.189 HD
HETATM    7  N   UNL     1       6.478  32.610  58.838  1.00  0.00    -0.168 NA
HETATM    8  C   UNL     1       7.153  31.440  58.912  1.00  0.00     0.156 A 
HETATM    9  C   UNL     1       4.914  30.581  56.252  1.00  0.00     0.034 A 
HETATM   10  C   UNL     1       5.233  29.260  55.904  1.00  0.00     0.032 A 
ENDROOT
BRANCH   1  11
HETATM   11  N   UNL     1       6.592  27.216  56.248  1.00  0.00    -0.327 N 
HETATM   12  C   UNL     1       5.881  26.071  56.557  1.00  0.00     0.222 C 
HETATM   13  O   UNL     1       4.792  26.016  57.121  1.00  0.00    -0.273 OA
HETATM   14  H   UNL     1       7.452  27.094  55.727  1.00  0.00     0.169 HD
BRANCH  12  15
HETATM   15  C   UNL     1       6.589  24.797  56.127  1.00  0.00     0.103 C 
BRANCH  15  16
HETATM   16  C   UNL     1       6.490  24.584  54.614  1.00  0.00     0.018 C 
BRANCH  16  17
HETATM   17  C   UNL     1       7.844  24.249  53.948  1.00  0.00     0.015 C 
HETATM   18  C   UNL     1       7.862  24.747  52.497  1.00  0.00     0.015 C 
BRANCH  17  19
HETATM   19  C   UNL     1       8.175  22.766  54.005  1.00  0.00    -0.054 A 
HETATM   20  C   UNL     1       7.831  21.895  52.960  1.00  0.00     0.007 A 
HETATM   21  C   UNL     1       8.137  20.535  53.036  1.00  0.00     0.001 A 
HETATM   22  C   UNL     1       8.794  20.029  54.155  1.00  0.00     0.000 A 
HETATM   23  C   UNL     1       9.148  20.883  55.197  1.00  0.00     0.001 A 
HETATM   24  C   UNL     1       8.842  22.243  55.124  1.00  0.00     0.007 A 
ENDBRANCH  17  19
ENDBRANCH  16  17
ENDBRANCH  15  16
ENDBRANCH  12  15
ENDBRANCH   1  11
BRANCH   8  25
HETATM   25  C   UNL     1       8.235  31.240  59.884  1.00  0.00     0.270 C 
HETATM   26  N   UNL     1       7.822  30.719  61.080  1.00  0.00    -0.365 N 
HETATM   27  H   UNL     1       6.838  30.516  61.206  1.00  0.00     0.159 HD
HETATM   28  H   UNL     1       8.493  30.544  61.811  1.00  0.00     0.159 HD
HETATM   29  O   UNL     1       9.414  31.505  59.674  1.00  0.00    -0.266 OA
ENDBRANCH   8  25
TORSDOF 6
ENDMDL
MODEL 5
REMARK VINA RESULT:      -8.7      4.287      9.383
REMARK  6 active torsions:
REMARK  status: ('A' for Active; 'I' for Inactive)
REMARK    1  A    between atoms: C_2  and  C_3 
REMARK    2  A    between atoms: C_2  and  C_9 
REMARK    3  A    between atoms: C_9  and  C_10 
REMARK    4  A    between atoms: C_10  and  C_11 
REMARK       I    between atoms: C_11  and  N_12 
REMARK    5  A    between atoms: N_12  and  C_13 
REMARK    6  A    between atoms: C_20  and  C_21 
REMARK       I    between atoms: C_21  and  N_22 
ROOT
HETATM    1  C   UNL     1       9.124  30.012  58.346  1.00  0.00     0.035 A 
HETATM    2  C   UNL     1       7.840  29.602  57.950  1.00  0.00     0.046 A 
HETATM    3  C   UNL     1       7.618  29.166  56.627  1.00  0.00     0.030 A 
HETATM    4  C   UNL     1       8.686  29.155  55.739  1.00  0.00     0.063 A 
HETATM    5  N   UNL     1       8.174  28.691  54.560  1.00  0.00    -0.277 N 
HETATM    6  H   UNL     1       8.673  28.548  53.689  1.00  0.00     0.189 HD
HETATM    7  N   UNL     1       6.863  28.398  54.600  1.00  0.00    -0.168 NA
HETATM    8  C   UNL     1       6.505  28.690  55.871  1.00  0.00     0.156 A 
HETATM    9  C   UNL     1       9.973  29.557  56.096  1.00  0.00     0.034 A 
HETATM   10  C   UNL     1      10.169  29.986  57.417  1.00  0.00     0.032 A 
ENDROOT
BRANCH   1  11
HETATM   11  N   UNL     1       9.278  30.421  59.689  1.00  0.00    -0.327 N 
HETATM   12  C   UNL     1       9.338  31.715  60.171  1.00  0.00     0.222 C 
HETATM   13  O   UNL     1       9.224  32.746  59.515  1.00  0.00    -0.273 OA
HETATM   14  H   UNL     1       9.332  29.675  60.372  1.00  0.00     0.169 HD
BRANCH  12  15
HETATM   15  C   UNL     1       9.575  31.781  61.671  1.00  0.00     0.103 C 
BRANCH  15  16
HETATM   16  C   UNL     1       8.261  31.696  62.452  1.00  0.00     0.018 C 
BRANCH  16  17
HETATM   17  C   UNL     1       7.756  33.064  62.961  1.00  0.00     0.015 C 
HETATM   18  C   UNL     1       7.445  32.994  64.461  1.00  0.00     0.015 C 
BRANCH  17  19
HETATM   19  C   UNL     1       6.545  33.567  62.190  1.00  0.00    -0.054 A 
HETATM   20  C   UNL     1       5.997  32.835  61.124  1.00  0.00     0.007 A 
HETATM   21  C   UNL     1       4.890  33.318  60.424  1.00  0.00     0.001 A 
HETATM   22  C   UNL     1       4.314  34.534  60.780  1.00  0.00     0.000 A 
HETATM   23  C   UNL     1       4.843  35.268  61.840  1.00  0.00     0.001 A 
HETATM   24  C   UNL     1       5.950  34.788  62.542  1.00  0.00     0.007 A 
ENDBRANCH  17  19
ENDBRANCH  16  17
ENDBRANCH  15  16
ENDBRANCH  12  15
ENDBRANCH   1  11
BRANCH   8  25
HETATM   25  C   UNL     1       5.126  28.509  56.340  1.00  0.00     0.270 C 
HETATM   26  N   UNL     1       4.571  27.307  55.995  1.00  0.00    -0.365 N 
HETATM   27  H   UNL     1       5.129  26.651  55.462  1.00  0.00     0.159 HD
HETATM   28  H   UNL     1       3.627  27.089  56.274  1.00  0.00     0.159 HD
HETATM   29  O   UNL     1       4.498  29.342  56.986  1.00  0.00    -0.266 OA
ENDBRANCH   8  25
TORSDOF 6
ENDMDL
MODEL 6
REMARK VINA RESULT:      -8.7      3.892      9.864
REMARK  6 active torsions:
REMARK  status: ('A' for Active; 'I' for Inactive)
REMARK    1  A    between atoms: C_2  and  C_3 
REMARK    2  A    between atoms: C_2  and  C_9 
REMARK    3  A    between atoms: C_9  and  C_10 
REMARK    4  A    between atoms: C_10  and  C_11 
REMARK       I    between atoms: C_11  and  N_12 
REMARK    5  A    between atoms: N_12  and  C_13 
REMARK    6  A    between atoms: C_20  and  C_21 
REMARK       I    between atoms: C_21  and  N_22 
ROOT
HETATM    1  C   UNL     1       8.703  29.826  58.223  1.00  0.00     0.035 A 
HETATM    2  C   UNL     1       7.532  29.127  57.883  1.00  0.00     0.046 A 
HETATM    3  C   UNL     1       7.357  28.647  56.568  1.00  0.00     0.030 A 
HETATM    4  C   UNL     1       8.356  28.881  55.633  1.00  0.00     0.063 A 
HETATM    5  N   UNL     1       7.912  28.306  54.475  1.00  0.00    -0.277 N 
HETATM    6  H   UNL     1       8.390  28.280  53.581  1.00  0.00     0.189 HD
HETATM    7  N   UNL     1       6.709  27.717  54.573  1.00  0.00    -0.168 NA
HETATM    8  C   UNL     1       6.352  27.922  55.861  1.00  0.00     0.156 A 
HETATM    9  C   UNL     1       9.530  29.573  55.933  1.00  0.00     0.034 A 
HETATM   10  C   UNL     1       9.681  30.040  57.247  1.00  0.00     0.032 A 
ENDROOT
BRANCH   1  11
HETATM   11  N   UNL     1       8.818  30.265  59.560  1.00  0.00    -0.327 N 
HETATM   12  C   UNL     1       9.153  31.531  60.003  1.00  0.00     0.222 C 
HETATM   13  O   UNL     1       9.368  32.517  59.304  1.00  0.00    -0.273 OA
HETATM   14  H   UNL     1       8.614  29.571  60.269  1.00  0.00     0.169 HD
BRANCH  12  15
HETATM   15  C   UNL     1       9.247  31.627  61.517  1.00  0.00     0.103 C 
BRANCH  15  16
HETATM   16  C   UNL     1       8.315  32.708  62.070  1.00  0.00     0.018 C 
BRANCH  16  17
HETATM   17  C   UNL     1       6.961  32.159  62.571  1.00  0.00     0.015 C 
HETATM   18  C   UNL     1       5.899  32.271  61.470  1.00  0.00     0.015 C 
BRANCH  17  19
HETATM   19  C   UNL     1       6.483  32.846  63.841  1.00  0.00    -0.054 A 
HETATM   20  C   UNL     1       5.118  33.050  64.098  1.00  0.00     0.007 A 
HETATM   21  C   UNL     1       4.701  33.690  65.266  1.00  0.00     0.001 A 
HETATM   22  C   UNL     1       5.640  34.131  66.194  1.00  0.00     0.000 A 
HETATM   23  C   UNL     1       6.999  33.930  65.957  1.00  0.00     0.001 A 
HETATM   24  C   UNL     1       7.418  33.291  64.788  1.00  0.00     0.007 A 
ENDBRANCH  17  19
ENDBRANCH  16  17
ENDBRANCH  15  16
ENDBRANCH  12  15
ENDBRANCH   1  11
BRANCH   8  25
HETATM   25  C   UNL     1       5.075  27.427  56.391  1.00  0.00     0.270 C 
HETATM   26  N   UNL     1       3.984  28.140  55.977  1.00  0.00    -0.365 N 
HETATM   27  H   UNL     1       4.127  28.929  55.357  1.00  0.00     0.159 HD
HETATM   28  H   UNL     1       3.062  27.875  56.287  1.00  0.00     0.159 HD
HETATM   29  O   UNL     1       4.963  26.462  57.141  1.00  0.00    -0.266 OA
ENDBRANCH   8  25
TORSDOF 6
ENDMDL
MODEL 7
REMARK VINA RESULT:      -8.5      1.841      2.505
REMARK  6 active torsions:
REMARK  status: ('A' for Active; 'I' for Inactive)
REMARK    1  A    between atoms: C_2  and  C_3 
REMARK    2  A    between atoms: C_2  and  C_9 
REMARK    3  A    between atoms: C_9  and  C_10 
REMARK    4  A    between atoms: C_10  and  C_11 
REMARK       I    between atoms: C_11  and  N_12 
REMARK    5  A    between atoms: N_12  and  C_13 
REMARK    6  A    between atoms: C_20  and  C_21 
REMARK       I    between atoms: C_21  and  N_22 
ROOT
HETATM    1  C   UNL     1       6.606  30.000  56.375  1.00  0.00     0.035 A 
HETATM    2  C   UNL     1       7.407  30.188  57.514  1.00  0.00     0.046 A 
HETATM    3  C   UNL     1       7.021  31.123  58.498  1.00  0.00     0.030 A 
HETATM    4  C   UNL     1       5.848  31.842  58.313  1.00  0.00     0.063 A 
HETATM    5  N   UNL     1       5.739  32.648  59.410  1.00  0.00    -0.277 N 
HETATM    6  H   UNL     1       4.998  33.310  59.613  1.00  0.00     0.189 HD
HETATM    7  N   UNL     1       6.741  32.520  60.297  1.00  0.00    -0.168 NA
HETATM    8  C   UNL     1       7.542  31.581  59.744  1.00  0.00     0.156 A 
HETATM    9  C   UNL     1       5.029  31.684  57.194  1.00  0.00     0.034 A 
HETATM   10  C   UNL     1       5.434  30.748  56.230  1.00  0.00     0.032 A 
ENDROOT
BRANCH   1  11
HETATM   11  N   UNL     1       7.044  29.038  55.438  1.00  0.00    -0.327 N 
HETATM   12  C   UNL     1       6.422  27.852  55.099  1.00  0.00     0.222 C 
HETATM   13  O   UNL     1       5.347  27.441  55.525  1.00  0.00    -0.273 OA
HETATM   14  H   UNL     1       7.904  29.260  54.951  1.00  0.00     0.169 HD
BRANCH  12  15
HETATM   15  C   UNL     1       7.215  27.029  54.097  1.00  0.00     0.103 C 
BRANCH  15  16
HETATM   16  C   UNL     1       7.146  25.534  54.418  1.00  0.00     0.018 C 
BRANCH  16  17
HETATM   17  C   UNL     1       8.000  24.658  53.474  1.00  0.00     0.015 C 
HETATM   18  C   UNL     1       7.559  24.856  52.018  1.00  0.00     0.015 C 
BRANCH  17  19
HETATM   19  C   UNL     1       7.961  23.184  53.846  1.00  0.00    -0.054 A 
HETATM   20  C   UNL     1       7.812  22.766  55.177  1.00  0.00     0.007 A 
HETATM   21  C   UNL     1       7.787  21.407  55.498  1.00  0.00     0.001 A 
HETATM   22  C   UNL     1       7.906  20.450  54.495  1.00  0.00     0.000 A 
HETATM   23  C   UNL     1       8.047  20.850  53.167  1.00  0.00     0.001 A 
HETATM   24  C   UNL     1       8.074  22.208  52.844  1.00  0.00     0.007 A 
ENDBRANCH  17  19
ENDBRANCH  16  17
ENDBRANCH  15  16
ENDBRANCH  12  15
ENDBRANCH   1  11
BRANCH   8  25
HETATM   25  C   UNL     1       8.776  31.140  60.407  1.00  0.00     0.270 C 
HETATM   26  N   UNL     1       9.818  32.017  60.288  1.00  0.00    -0.365 N 
HETATM   27  H   UNL     1       9.672  32.877  59.772  1.00  0.00     0.159 HD
HETATM   28  H   UNL     1      10.708  31.803  60.712  1.00  0.00     0.159 HD
HETATM   29  O   UNL     1       8.894  30.085  61.022  1.00  0.00    -0.266 OA
ENDBRANCH   8  25
TORSDOF 6
ENDMDL
MODEL 8
REMARK VINA RESULT:      -8.4      2.818      9.427
REMARK  6 active torsions:
REMARK  status: ('A' for Active; 'I' for Inactive)
REMARK    1  A    between atoms: C_2  and  C_3 
REMARK    2  A    between atoms: C_2  and  C_9 
REMARK    3  A    between atoms: C_9  and  C_10 
REMARK    4  A    between atoms: C_10  and  C_11 
REMARK       I    between atoms: C_11  and  N_12 
REMARK    5  A    between atoms: N_12  and  C_13 
REMARK    6  A    between atoms: C_20  and  C_21 
REMARK       I    between atoms: C_21  and  N_22 
ROOT
HETATM    1  C   UNL     1       7.626  26.174  56.794  1.00  0.00     0.035 A 
HETATM    2  C   UNL     1       7.103  25.959  55.507  1.00  0.00     0.046 A 
HETATM    3  C   UNL     1       7.382  24.754  54.828  1.00  0.00     0.030 A 
HETATM    4  C   UNL     1       8.175  23.803  55.454  1.00  0.00     0.063 A 
HETATM    5  N   UNL     1       8.263  22.764  54.571  1.00  0.00    -0.277 N 
HETATM    6  H   UNL     1       8.765  21.892  54.698  1.00  0.00     0.189 HD
HETATM    7  N   UNL     1       7.597  22.956  53.419  1.00  0.00    -0.168 NA
HETATM    8  C   UNL     1       7.049  24.183  53.564  1.00  0.00     0.156 A 
HETATM    9  C   UNL     1       8.713  23.983  56.729  1.00  0.00     0.034 A 
HETATM   10  C   UNL     1       8.422  25.188  57.384  1.00  0.00     0.032 A 
ENDROOT
BRANCH   1  11
HETATM   11  N   UNL     1       7.295  27.396  57.421  1.00  0.00    -0.327 N 
HETATM   12  C   UNL     1       7.962  28.602  57.317  1.00  0.00     0.222 C 
HETATM   13  O   UNL     1       8.945  28.836  56.620  1.00  0.00    -0.273 OA
HETATM   14  H   UNL     1       6.462  27.381  57.998  1.00  0.00     0.169 HD
BRANCH  12  15
HETATM   15  C   UNL     1       7.359  29.693  58.186  1.00  0.00     0.103 C 
BRANCH  15  16
HETATM   16  C   UNL     1       8.305  30.091  59.323  1.00  0.00     0.018 C 
BRANCH  16  17
HETATM   17  C   UNL     1       8.471  31.619  59.482  1.00  0.00     0.015 C 
HETATM   18  C   UNL     1       9.934  32.022  59.270  1.00  0.00     0.015 C 
BRANCH  17  19
HETATM   19  C   UNL     1       7.969  32.126  60.826  1.00  0.00    -0.054 A 
HETATM   20  C   UNL     1       8.721  31.963  62.000  1.00  0.00     0.007 A 
HETATM   21  C   UNL     1       8.238  32.429  63.224  1.00  0.00     0.001 A 
HETATM   22  C   UNL     1       7.002  33.065  63.292  1.00  0.00     0.000 A 
HETATM   23  C   UNL     1       6.248  33.241  62.133  1.00  0.00     0.001 A 
HETATM   24  C   UNL     1       6.727  32.775  60.908  1.00  0.00     0.007 A 
ENDBRANCH  17  19
ENDBRANCH  16  17
ENDBRANCH  15  16
ENDBRANCH  12  15
ENDBRANCH   1  11
BRANCH   8  25
HETATM   25  C   UNL     1       6.224  24.784  52.508  1.00  0.00     0.270 C 
HETATM   26  N   UNL     1       6.941  25.445  51.548  1.00  0.00    -0.365 N 
HETATM   27  H   UNL     1       7.950  25.473  51.629  1.00  0.00     0.159 HD
HETATM   28  H   UNL     1       6.462  25.889  50.780  1.00  0.00     0.159 HD
HETATM   29  O   UNL     1       5.000  24.717  52.461  1.00  0.00    -0.266 OA
ENDBRANCH   8  25
TORSDOF 6
ENDMDL
MODEL 9
REMARK VINA RESULT:      -8.4      3.461      6.274
REMARK  6 active torsions:
REMARK  status: ('A' for Active; 'I' for Inactive)
REMARK    1  A    between atoms: C_2  and  C_3 
REMARK    2  A    between atoms: C_2  and  C_9 
REMARK    3  A    between atoms: C_9  and  C_10 
REMARK    4  A    between atoms: C_10  and  C_11 
REMARK       I    between atoms: C_11  and  N_12 
REMARK    5  A    between atoms: N_12  and  C_13 
REMARK    6  A    between atoms: C_20  and  C_21 
REMARK       I    between atoms: C_21  and  N_22 
ROOT
HETATM    1  C   UNL     1       7.033  31.989  61.686  1.00  0.00     0.035 A 
HETATM    2  C   UNL     1       5.769  32.558  61.917  1.00  0.00     0.046 A 
HETATM    3  C   UNL     1       5.517  33.246  63.122  1.00  0.00     0.030 A 
HETATM    4  C   UNL     1       6.536  33.344  64.061  1.00  0.00     0.063 A 
HETATM    5  N   UNL     1       6.005  34.055  65.100  1.00  0.00    -0.277 N 
HETATM    6  H   UNL     1       6.470  34.320  65.962  1.00  0.00     0.189 HD
HETATM    7  N   UNL     1       4.727  34.429  64.923  1.00  0.00    -0.168 NA
HETATM    8  C   UNL     1       4.411  33.934  63.704  1.00  0.00     0.156 A 
HETATM    9  C   UNL     1       7.802  32.790  63.868  1.00  0.00     0.034 A 
HETATM   10  C   UNL     1       8.028  32.111  62.661  1.00  0.00     0.032 A 
ENDROOT
BRANCH   1  11
HETATM   11  N   UNL     1       7.220  31.327  60.453  1.00  0.00    -0.327 N 
HETATM   12  C   UNL     1       8.082  31.681  59.432  1.00  0.00     0.222 C 
HETATM   13  O   UNL     1       8.875  32.617  59.435  1.00  0.00    -0.273 OA
HETATM   14  H   UNL     1       6.668  30.488  60.316  1.00  0.00     0.169 HD
BRANCH  12  15
HETATM   15  C   UNL     1       7.971  30.773  58.218  1.00  0.00     0.103 C 
BRANCH  15  16
HETATM   16  C   UNL     1       8.282  29.317  58.575  1.00  0.00     0.018 C 
BRANCH  16  17
HETATM   17  C   UNL     1       8.494  28.410  57.343  1.00  0.00     0.015 C 
HETATM   18  C   UNL     1       8.616  29.257  56.071  1.00  0.00     0.015 C 
BRANCH  17  19
HETATM   19  C   UNL     1       7.396  27.369  57.186  1.00  0.00    -0.054 A 
HETATM   20  C   UNL     1       7.671  25.994  57.256  1.00  0.00     0.007 A 
HETATM   21  C   UNL     1       6.651  25.054  57.100  1.00  0.00     0.001 A 
HETATM   22  C   UNL     1       5.342  25.475  56.877  1.00  0.00     0.000 A 
HETATM   23  C   UNL     1       5.052  26.836  56.812  1.00  0.00     0.001 A 
HETATM   24  C   UNL     1       6.072  27.778  56.966  1.00  0.00     0.007 A 
ENDBRANCH  17  19
ENDBRANCH  16  17
ENDBRANCH  15  16
ENDBRANCH  12  15
ENDBRANCH   1  11
BRANCH   8  25
HETATM   25  C   UNL     1       3.077  34.125  63.121  1.00  0.00     0.270 C 
HETATM   26  N   UNL     1       2.052  33.998  64.019  1.00  0.00    -0.365 N 
HETATM   27  H   UNL     1       2.276  33.790  64.984  1.00  0.00     0.159 HD
HETATM   28  H   UNL     1       1.099  34.114  63.713  1.00  0.00     0.159 HD
HETATM   29  O   UNL     1       2.866  34.376  61.939  1.00  0.00    -0.266 OA
ENDBRANCH   8  25
TORSDOF 6
ENDMDL
MODEL 10
REMARK VINA RESULT:      -8.2      2.776      9.565
REMARK  6 active torsions:
REMARK  status: ('A' for Active; 'I' for Inactive)
REMARK    1  A    between atoms: C_2  and  C_3 
REMARK    2  A    between atoms: C_2  and  C_9 
REMARK    3  A    between atoms: C_9  and  C_10 
REMARK    4  A    between atoms: C_10  and  C_11 
REMARK       I    between atoms: C_11  and  N_12 
REMARK    5  A    between atoms: N_12  and  C_13 
REMARK    6  A    between atoms: C_20  and  C_21 
REMARK       I    between atoms: C_21  and  N_22 
ROOT
HETATM    1  C   UNL     1       7.012  28.019  57.366  1.00  0.00     0.035 A 
HETATM    2  C   UNL     1       7.591  26.753  57.172  1.00  0.00     0.046 A 
HETATM    3  C   UNL     1       7.026  25.858  56.239  1.00  0.00     0.030 A 
HETATM    4  C   UNL     1       5.900  26.254  55.531  1.00  0.00     0.063 A 
HETATM    5  N   UNL     1       5.592  25.199  54.718  1.00  0.00    -0.277 N 
HETATM    6  H   UNL     1       4.826  25.138  54.056  1.00  0.00     0.189 HD
HETATM    7  N   UNL     1       6.419  24.147  54.836  1.00  0.00    -0.168 NA
HETATM    8  C   UNL     1       7.310  24.539  55.775  1.00  0.00     0.156 A 
HETATM    9  C   UNL     1       5.297  27.501  55.698  1.00  0.00     0.034 A 
HETATM   10  C   UNL     1       5.877  28.374  56.630  1.00  0.00     0.032 A 
ENDROOT
BRANCH   1  11
HETATM   11  N   UNL     1       7.637  28.871  58.303  1.00  0.00    -0.327 N 
HETATM   12  C   UNL     1       8.700  29.726  58.083  1.00  0.00     0.222 C 
HETATM   13  O   UNL     1       9.266  29.930  57.014  1.00  0.00    -0.273 OA
HETATM   14  H   UNL     1       7.244  28.859  59.237  1.00  0.00     0.169 HD
BRANCH  12  15
HETATM   15  C   UNL     1       9.157  30.444  59.343  1.00  0.00     0.103 C 
BRANCH  15  16
HETATM   16  C   UNL     1       8.051  31.335  59.914  1.00  0.00     0.018 C 
BRANCH  16  17
HETATM   17  C   UNL     1       8.559  32.366  60.946  1.00  0.00     0.015 C 
HETATM   18  C   UNL     1       9.929  31.945  61.492  1.00  0.00     0.015 C 
BRANCH  17  19
HETATM   19  C   UNL     1       7.577  32.587  62.087  1.00  0.00    -0.054 A 
HETATM   20  C   UNL     1       6.189  32.570  61.875  1.00  0.00     0.007 A 
HETATM   21  C   UNL     1       5.305  32.783  62.934  1.00  0.00     0.001 A 
HETATM   22  C   UNL     1       5.794  33.012  64.217  1.00  0.00     0.000 A 
HETATM   23  C   UNL     1       7.169  33.025  64.444  1.00  0.00     0.001 A 
HETATM   24  C   UNL     1       8.055  32.814  63.386  1.00  0.00     0.007 A 
ENDBRANCH  17  19
ENDBRANCH  16  17
ENDBRANCH  15  16
ENDBRANCH  12  15
ENDBRANCH   1  11
BRANCH   8  25
HETATM   25  C   UNL     1       8.406  23.662  56.207  1.00  0.00     0.270 C 
HETATM   26  N   UNL     1       8.347  23.304  57.526  1.00  0.00    -0.365 N 
HETATM   27  H   UNL     1       7.583  23.655  58.091  1.00  0.00     0.159 HD
HETATM   28  H   UNL     1       9.055  22.702  57.916  1.00  0.00     0.159 HD
HETATM   29  O   UNL     1       9.308  23.268  55.476  1.00  0.00    -0.266 OA
ENDBRANCH   8  25
TORSDOF 6
ENDMDL
