MODEL 1
REMARK VINA RESULT:      -8.4      0.000      0.000
REMARK  5 active torsions:
REMARK  status: ('A' for Active; 'I' for Inactive)
REMARK    1  A    between atoms: C_4  and  C_5 
REMARK    2  A    between atoms: C_5  and  N_6 
REMARK    3  A    between atoms: N_6  and  C_9 
REMARK    4  A    between atoms: C_12  and  O_13 
REMARK    5  A    between atoms: O_13  and  C_14 
ROOT
HETATM    1  C   UNL     1       7.444  24.932  54.741  1.00  0.00     0.164 A 
HETATM    2  N   UNL     1       7.358  23.892  55.597  1.00  0.00    -0.236 NA
HETATM    3  C   UNL     1       7.613  22.662  55.083  1.00  0.00     0.142 A 
HETATM    4  C   UNL     1       7.941  22.427  53.755  1.00  0.00     0.062 A 
HETATM    5  C   UNL     1       8.199  21.101  53.292  1.00  0.00     0.101 C 
HETATM    6  N   UNL     1       8.406  20.023  52.918  1.00  0.00    -0.191 NA
HETATM    7  C   UNL     1       8.008  23.523  52.895  1.00  0.00     0.028 A 
HETATM    8  C   UNL     1       7.753  24.798  53.395  1.00  0.00     0.059 A 
ENDROOT
BRANCH   1   9
HETATM    9  O   UNL     1       7.189  26.211  55.186  1.00  0.00    -0.329 OA
BRANCH   9  10
HETATM   10  C   UNL     1       6.838  26.319  56.571  1.00  0.00     0.130 C 
HETATM   11  C   UNL     1       7.989  27.074  57.253  1.00  0.00     0.034 C 
HETATM   12  C   UNL     1       8.155  28.491  56.694  1.00  0.00     0.035 C 
HETATM   13  C   UNL     1       6.863  29.314  56.745  1.00  0.00     0.186 C 
HETATM   14  C   UNL     1       5.668  28.543  56.172  1.00  0.00     0.035 C 
HETATM   15  C   UNL     1       5.537  27.120  56.726  1.00  0.00     0.034 C 
BRANCH  13  16
HETATM   16  N   UNL     1       6.552  29.712  58.153  1.00  0.00    -0.065 N 
HETATM   17  H   UNL     1       7.072  29.168  58.854  1.00  0.00     0.278 HD
HETATM   18  H   UNL     1       5.567  29.500  58.382  1.00  0.00     0.278 HD
BRANCH  16  19
HETATM   19  C   UNL     1       6.716  31.173  58.492  1.00  0.00     0.299 C 
BRANCH  19  20
HETATM   20  C   UNL     1       7.609  31.332  59.681  1.00  0.00     0.101 A 
HETATM   21  N   UNL     1       7.186  31.823  60.829  1.00  0.00    -0.249 NA
HETATM   22  C   UNL     1       8.240  31.854  61.734  1.00  0.00     0.038 A 
HETATM   23  C   UNL     1       8.006  32.370  63.110  1.00  0.00     0.071 C 
HETATM   24  C   UNL     1       9.442  31.384  61.238  1.00  0.00     0.078 A 
HETATM   25  S   UNL     1       9.259  30.889  59.608  1.00  0.00    -0.083 SA
ENDBRANCH  19  20
ENDBRANCH  16  19
ENDBRANCH  13  16
ENDBRANCH   9  10
ENDBRANCH   1   9
TORSDOF 5
ENDMDL
MODEL 2
REMARK VINA RESULT:      -7.7      2.465      9.301
REMARK  5 active torsions:
REMARK  status: ('A' for Active; 'I' for Inactive)
REMARK    1  A    between atoms: C_4  and  C_5 
REMARK    2  A    between atoms: C_5  and  N_6 
REMARK    3  A    between atoms: N_6  and  C_9 
REMARK    4  A    between atoms: C_12  and  O_13 
REMARK    5  A    between atoms: O_13  and  C_14 
ROOT
HETATM    1  C   UNL     1       7.704  30.493  58.799  1.00  0.00     0.164 A 
HETATM    2  N   UNL     1       8.682  30.078  59.632  1.00  0.00    -0.236 NA
HETATM    3  C   UNL     1       8.743  30.687  60.844  1.00  0.00     0.142 A 
HETATM    4  C   UNL     1       7.879  31.694  61.252  1.00  0.00     0.062 A 
HETATM    5  C   UNL     1       8.008  32.283  62.546  1.00  0.00     0.101 C 
HETATM    6  N   UNL     1       8.116  32.761  63.597  1.00  0.00    -0.191 NA
HETATM    7  C   UNL     1       6.890  32.108  60.360  1.00  0.00     0.028 A 
HETATM    8  C   UNL     1       6.802  31.499  59.110  1.00  0.00     0.059 A 
ENDROOT
BRANCH   1   9
HETATM    9  O   UNL     1       7.583  29.929  57.547  1.00  0.00    -0.329 OA
BRANCH   9  10
HETATM   10  C   UNL     1       8.456  28.822  57.287  1.00  0.00     0.130 C 
HETATM   11  C   UNL     1       7.673  27.555  57.664  1.00  0.00     0.034 C 
HETATM   12  C   UNL     1       6.418  27.382  56.803  1.00  0.00     0.035 C 
HETATM   13  C   UNL     1       6.709  27.410  55.299  1.00  0.00     0.186 C 
HETATM   14  C   UNL     1       7.585  28.606  54.907  1.00  0.00     0.035 C 
HETATM   15  C   UNL     1       8.821  28.775  55.796  1.00  0.00     0.034 C 
BRANCH  13  16
HETATM   16  N   UNL     1       7.393  26.149  54.875  1.00  0.00    -0.065 N 
HETATM   17  H   UNL     1       8.299  26.002  55.338  1.00  0.00     0.278 HD
HETATM   18  H   UNL     1       7.651  26.193  53.875  1.00  0.00     0.278 HD
BRANCH  16  19
HETATM   19  C   UNL     1       6.597  24.873  55.006  1.00  0.00     0.299 C 
BRANCH  19  20
HETATM   20  C   UNL     1       7.482  23.687  54.796  1.00  0.00     0.101 A 
HETATM   21  N   UNL     1       7.265  22.796  53.849  1.00  0.00    -0.249 NA
HETATM   22  C   UNL     1       8.246  21.812  53.908  1.00  0.00     0.038 A 
HETATM   23  C   UNL     1       8.215  20.691  52.931  1.00  0.00     0.071 C 
HETATM   24  C   UNL     1       9.183  21.989  54.910  1.00  0.00     0.078 A 
HETATM   25  S   UNL     1       8.839  23.412  55.800  1.00  0.00    -0.083 SA
ENDBRANCH  19  20
ENDBRANCH  16  19
ENDBRANCH  13  16
ENDBRANCH   9  10
ENDBRANCH   1   9
TORSDOF 5
ENDMDL
MODEL 3
REMARK VINA RESULT:      -7.4      4.149     10.965
REMARK  5 active torsions:
REMARK  status: ('A' for Active; 'I' for Inactive)
REMARK    1  A    between atoms: C_4  and  C_5 
REMARK    2  A    between atoms: C_5  and  N_6 
REMARK    3  A    between atoms: N_6  and  C_9 
REMARK    4  A    between atoms: C_12  and  O_13 
REMARK    5  A    between atoms: O_13  and  C_14 
ROOT
HETATM    1  C   UNL     1       6.410  33.785  63.389  1.00  0.00     0.164 A 
HETATM    2  N   UNL     1       6.047  33.021  64.441  1.00  0.00    -0.236 NA
HETATM    3  C   UNL     1       5.136  33.556  65.293  1.00  0.00     0.142 A 
HETATM    4  C   UNL     1       4.583  34.821  65.144  1.00  0.00     0.062 A 
HETATM    5  C   UNL     1       3.626  35.312  66.084  1.00  0.00     0.101 C 
HETATM    6  N   UNL     1       2.851  35.709  66.849  1.00  0.00    -0.191 NA
HETATM    7  C   UNL     1       4.991  35.589  64.054  1.00  0.00     0.028 A 
HETATM    8  C   UNL     1       5.923  35.063  63.161  1.00  0.00     0.059 A 
ENDROOT
BRANCH   1   9
HETATM    9  O   UNL     1       7.338  33.314  62.485  1.00  0.00    -0.329 OA
BRANCH   9  10
HETATM   10  C   UNL     1       7.229  31.920  62.166  1.00  0.00     0.130 C 
HETATM   11  C   UNL     1       6.853  31.844  60.679  1.00  0.00     0.034 C 
HETATM   12  C   UNL     1       7.936  32.453  59.783  1.00  0.00     0.035 C 
HETATM   13  C   UNL     1       9.324  31.850  60.020  1.00  0.00     0.186 C 
HETATM   14  C   UNL     1       9.684  31.809  61.510  1.00  0.00     0.035 C 
HETATM   15  C   UNL     1       8.578  31.220  62.390  1.00  0.00     0.034 C 
BRANCH  13  16
HETATM   16  N   UNL     1       9.393  30.462  59.467  1.00  0.00    -0.065 N 
HETATM   17  H   UNL     1       8.774  29.799  59.952  1.00  0.00     0.278 HD
HETATM   18  H   UNL     1      10.331  30.054  59.622  1.00  0.00     0.278 HD
BRANCH  16  19
HETATM   19  C   UNL     1       9.154  30.314  57.984  1.00  0.00     0.299 C 
BRANCH  19  20
HETATM   20  C   UNL     1       8.107  29.277  57.729  1.00  0.00     0.101 A 
HETATM   21  N   UNL     1       8.359  27.984  57.781  1.00  0.00    -0.249 NA
HETATM   22  C   UNL     1       7.197  27.277  57.494  1.00  0.00     0.038 A 
HETATM   23  C   UNL     1       7.229  25.789  57.493  1.00  0.00     0.071 C 
HETATM   24  C   UNL     1       6.091  28.064  57.227  1.00  0.00     0.078 A 
HETATM   25  S   UNL     1       6.503  29.723  57.339  1.00  0.00    -0.083 SA
ENDBRANCH  19  20
ENDBRANCH  16  19
ENDBRANCH  13  16
ENDBRANCH   9  10
ENDBRANCH   1   9
TORSDOF 5
ENDMDL
MODEL 4
REMARK VINA RESULT:      -7.3      2.497      3.094
REMARK  5 active torsions:
REMARK  status: ('A' for Active; 'I' for Inactive)
REMARK    1  A    between atoms: C_4  and  C_5 
REMARK    2  A    between atoms: C_5  and  N_6 
REMARK    3  A    between atoms: N_6  and  C_9 
REMARK    4  A    between atoms: C_12  and  O_13 
REMARK    5  A    between atoms: O_13  and  C_14 
ROOT
HETATM    1  C   UNL     1       6.799  24.607  54.758  1.00  0.00     0.164 A 
HETATM    2  N   UNL     1       7.085  23.670  55.686  1.00  0.00    -0.236 NA
HETATM    3  C   UNL     1       7.555  22.483  55.224  1.00  0.00     0.142 A 
HETATM    4  C   UNL     1       7.740  22.192  53.879  1.00  0.00     0.062 A 
HETATM    5  C   UNL     1       8.242  20.919  53.473  1.00  0.00     0.101 C 
HETATM    6  N   UNL     1       8.648  19.883  53.146  1.00  0.00    -0.191 NA
HETATM    7  C   UNL     1       7.422  23.179  52.947  1.00  0.00     0.028 A 
HETATM    8  C   UNL     1       6.940  24.408  53.393  1.00  0.00     0.059 A 
ENDROOT
BRANCH   1   9
HETATM    9  O   UNL     1       6.309  25.835  55.149  1.00  0.00    -0.329 OA
BRANCH   9  10
HETATM   10  C   UNL     1       7.288  26.755  55.647  1.00  0.00     0.130 C 
HETATM   11  C   UNL     1       7.301  27.944  54.674  1.00  0.00     0.034 C 
HETATM   12  C   UNL     1       5.950  28.664  54.634  1.00  0.00     0.035 C 
HETATM   13  C   UNL     1       5.460  29.105  56.017  1.00  0.00     0.186 C 
HETATM   14  C   UNL     1       5.540  27.967  57.042  1.00  0.00     0.035 C 
HETATM   15  C   UNL     1       6.891  27.244  57.048  1.00  0.00     0.034 C 
BRANCH  13  16
HETATM   16  N   UNL     1       6.266  30.262  56.514  1.00  0.00    -0.065 N 
HETATM   17  H   UNL     1       6.141  31.116  55.954  1.00  0.00     0.278 HD
HETATM   18  H   UNL     1       7.277  30.071  56.416  1.00  0.00     0.278 HD
BRANCH  16  19
HETATM   19  C   UNL     1       6.088  30.634  57.965  1.00  0.00     0.299 C 
BRANCH  19  20
HETATM   20  C   UNL     1       5.282  31.888  58.083  1.00  0.00     0.101 A 
HETATM   21  N   UNL     1       5.503  32.950  57.333  1.00  0.00    -0.249 NA
HETATM   22  C   UNL     1       4.604  33.953  57.677  1.00  0.00     0.038 A 
HETATM   23  C   UNL     1       4.655  35.256  56.962  1.00  0.00     0.071 C 
HETATM   24  C   UNL     1       3.723  33.617  58.690  1.00  0.00     0.078 A 
HETATM   25  S   UNL     1       4.016  32.017  59.226  1.00  0.00    -0.083 SA
ENDBRANCH  19  20
ENDBRANCH  16  19
ENDBRANCH  13  16
ENDBRANCH   9  10
ENDBRANCH   1   9
TORSDOF 5
ENDMDL
MODEL 5
REMARK VINA RESULT:      -7.1      4.221      6.566
REMARK  5 active torsions:
REMARK  status: ('A' for Active; 'I' for Inactive)
REMARK    1  A    between atoms: C_4  and  C_5 
REMARK    2  A    between atoms: C_5  and  N_6 
REMARK    3  A    between atoms: N_6  and  C_9 
REMARK    4  A    between atoms: C_12  and  O_13 
REMARK    5  A    between atoms: O_13  and  C_14 
ROOT
HETATM    1  C   UNL     1       8.601  29.683  58.552  1.00  0.00     0.164 A 
HETATM    2  N   UNL     1       9.550  29.967  57.636  1.00  0.00    -0.236 NA
HETATM    3  C   UNL     1       9.322  29.528  56.372  1.00  0.00     0.142 A 
HETATM    4  C   UNL     1       8.195  28.813  55.989  1.00  0.00     0.062 A 
HETATM    5  C   UNL     1       8.026  28.389  54.636  1.00  0.00     0.101 C 
HETATM    6  N   UNL     1       7.893  28.044  53.537  1.00  0.00    -0.191 NA
HETATM    7  C   UNL     1       7.241  28.525  56.965  1.00  0.00     0.028 A 
HETATM    8  C   UNL     1       7.448  28.965  58.271  1.00  0.00     0.059 A 
ENDROOT
BRANCH   1   9
HETATM    9  O   UNL     1       8.766  30.086  59.860  1.00  0.00    -0.329 OA
BRANCH   9  10
HETATM   10  C   UNL     1       9.089  31.471  60.037  1.00  0.00     0.130 C 
HETATM   11  C   UNL     1       7.800  32.257  59.750  1.00  0.00     0.034 C 
HETATM   12  C   UNL     1       6.682  31.901  60.736  1.00  0.00     0.035 C 
HETATM   13  C   UNL     1       7.097  32.060  62.202  1.00  0.00     0.186 C 
HETATM   14  C   UNL     1       8.440  31.379  62.495  1.00  0.00     0.035 C 
HETATM   15  C   UNL     1       9.536  31.729  61.484  1.00  0.00     0.034 C 
BRANCH  13  16
HETATM   16  N   UNL     1       7.200  33.508  62.563  1.00  0.00    -0.065 N 
HETATM   17  H   UNL     1       7.770  34.053  61.903  1.00  0.00     0.278 HD
HETATM   18  H   UNL     1       7.706  33.626  63.456  1.00  0.00     0.278 HD
BRANCH  16  19
HETATM   19  C   UNL     1       5.899  34.247  62.763  1.00  0.00     0.299 C 
BRANCH  19  20
HETATM   20  C   UNL     1       5.522  34.249  64.210  1.00  0.00     0.101 A 
HETATM   21  N   UNL     1       6.416  34.266  65.178  1.00  0.00    -0.249 NA
HETATM   22  C   UNL     1       5.765  34.256  66.407  1.00  0.00     0.038 A 
HETATM   23  C   UNL     1       6.568  34.275  67.659  1.00  0.00     0.071 C 
HETATM   24  C   UNL     1       4.384  34.227  66.329  1.00  0.00     0.078 A 
HETATM   25  S   UNL     1       3.881  34.215  64.692  1.00  0.00    -0.083 SA
ENDBRANCH  19  20
ENDBRANCH  16  19
ENDBRANCH  13  16
ENDBRANCH   9  10
ENDBRANCH   1   9
TORSDOF 5
ENDMDL
MODEL 6
REMARK VINA RESULT:      -7.1      3.311      4.122
REMARK  5 active torsions:
REMARK  status: ('A' for Active; 'I' for Inactive)
REMARK    1  A    between atoms: C_4  and  C_5 
REMARK    2  A    between atoms: C_5  and  N_6 
REMARK    3  A    between atoms: N_6  and  C_9 
REMARK    4  A    between atoms: C_12  and  O_13 
REMARK    5  A    between atoms: O_13  and  C_14 
ROOT
HETATM    1  C   UNL     1       7.695  25.022  54.411  1.00  0.00     0.164 A 
HETATM    2  N   UNL     1       8.172  24.192  55.363  1.00  0.00    -0.236 NA
HETATM    3  C   UNL     1       8.415  22.912  54.983  1.00  0.00     0.142 A 
HETATM    4  C   UNL     1       8.194  22.426  53.702  1.00  0.00     0.062 A 
HETATM    5  C   UNL     1       8.479  21.065  53.380  1.00  0.00     0.101 C 
HETATM    6  N   UNL     1       8.709  19.958  53.122  1.00  0.00    -0.191 NA
HETATM    7  C   UNL     1       7.688  23.308  52.747  1.00  0.00     0.028 A 
HETATM    8  C   UNL     1       7.431  24.629  53.108  1.00  0.00     0.059 A 
ENDROOT
BRANCH   1   9
HETATM    9  O   UNL     1       7.414  26.335  54.723  1.00  0.00    -0.329 OA
BRANCH   9  10
HETATM   10  C   UNL     1       6.055  26.737  54.513  1.00  0.00     0.130 C 
HETATM   11  C   UNL     1       5.280  26.321  55.773  1.00  0.00     0.034 C 
HETATM   12  C   UNL     1       5.798  27.035  57.025  1.00  0.00     0.035 C 
HETATM   13  C   UNL     1       5.819  28.561  56.883  1.00  0.00     0.186 C 
HETATM   14  C   UNL     1       6.489  29.006  55.578  1.00  0.00     0.035 C 
HETATM   15  C   UNL     1       5.974  28.261  54.342  1.00  0.00     0.034 C 
BRANCH  13  16
HETATM   16  N   UNL     1       4.428  29.110  56.926  1.00  0.00    -0.065 N 
HETATM   17  H   UNL     1       3.733  28.431  57.261  1.00  0.00     0.278 HD
HETATM   18  H   UNL     1       4.094  29.329  55.973  1.00  0.00     0.278 HD
BRANCH  16  19
HETATM   19  C   UNL     1       4.232  30.389  57.702  1.00  0.00     0.299 C 
BRANCH  19  20
HETATM   20  C   UNL     1       3.592  31.427  56.836  1.00  0.00     0.101 A 
HETATM   21  N   UNL     1       3.248  32.617  57.288  1.00  0.00    -0.249 NA
HETATM   22  C   UNL     1       2.674  33.353  56.257  1.00  0.00     0.038 A 
HETATM   23  C   UNL     1       2.204  34.739  56.524  1.00  0.00     0.071 C 
HETATM   24  C   UNL     1       2.599  32.689  55.046  1.00  0.00     0.078 A 
HETATM   25  S   UNL     1       3.259  31.115  55.188  1.00  0.00    -0.083 SA
ENDBRANCH  19  20
ENDBRANCH  16  19
ENDBRANCH  13  16
ENDBRANCH   9  10
ENDBRANCH   1   9
TORSDOF 5
ENDMDL
MODEL 7
REMARK VINA RESULT:      -7.0      4.940      7.458
REMARK  5 active torsions:
REMARK  status: ('A' for Active; 'I' for Inactive)
REMARK    1  A    between atoms: C_4  and  C_5 
REMARK    2  A    between atoms: C_5  and  N_6 
REMARK    3  A    between atoms: N_6  and  C_9 
REMARK    4  A    between atoms: C_12  and  O_13 
REMARK    5  A    between atoms: O_13  and  C_14 
ROOT
HETATM    1  C   UNL     1       7.124  24.518  54.439  1.00  0.00     0.164 A 
HETATM    2  N   UNL     1       7.045  23.715  55.521  1.00  0.00    -0.236 NA
HETATM    3  C   UNL     1       7.538  22.458  55.379  1.00  0.00     0.142 A 
HETATM    4  C   UNL     1       8.094  21.969  54.204  1.00  0.00     0.062 A 
HETATM    5  C   UNL     1       8.594  20.634  54.136  1.00  0.00     0.101 C 
HETATM    6  N   UNL     1       8.997  19.548  54.083  1.00  0.00    -0.191 NA
HETATM    7  C   UNL     1       8.146  22.822  53.102  1.00  0.00     0.028 A 
HETATM    8  C   UNL     1       7.650  24.119  53.220  1.00  0.00     0.059 A 
ENDROOT
BRANCH   1   9
HETATM    9  O   UNL     1       6.635  25.806  54.503  1.00  0.00    -0.329 OA
BRANCH   9  10
HETATM   10  C   UNL     1       6.768  26.571  53.298  1.00  0.00     0.130 C 
HETATM   11  C   UNL     1       5.401  26.517  52.598  1.00  0.00     0.034 C 
HETATM   12  C   UNL     1       4.298  27.157  53.447  1.00  0.00     0.035 C 
HETATM   13  C   UNL     1       4.626  28.589  53.883  1.00  0.00     0.186 C 
HETATM   14  C   UNL     1       6.032  28.697  54.486  1.00  0.00     0.035 C 
HETATM   15  C   UNL     1       7.115  28.029  53.633  1.00  0.00     0.034 C 
BRANCH  13  16
HETATM   16  N   UNL     1       4.524  29.525  52.722  1.00  0.00    -0.065 N 
HETATM   17  H   UNL     1       5.341  29.493  52.099  1.00  0.00     0.278 HD
HETATM   18  H   UNL     1       4.521  30.507  53.045  1.00  0.00     0.278 HD
BRANCH  16  19
HETATM   19  C   UNL     1       3.288  29.404  51.865  1.00  0.00     0.299 C 
BRANCH  19  20
HETATM   20  C   UNL     1       3.665  29.067  50.457  1.00  0.00     0.101 A 
HETATM   21  N   UNL     1       2.785  28.664  49.562  1.00  0.00    -0.249 NA
HETATM   22  C   UNL     1       3.432  28.422  48.356  1.00  0.00     0.038 A 
HETATM   23  C   UNL     1       2.643  27.957  47.184  1.00  0.00     0.071 C 
HETATM   24  C   UNL     1       4.797  28.649  48.376  1.00  0.00     0.078 A 
HETATM   25  S   UNL     1       5.287  29.178  49.930  1.00  0.00    -0.083 SA
ENDBRANCH  19  20
ENDBRANCH  16  19
ENDBRANCH  13  16
ENDBRANCH   9  10
ENDBRANCH   1   9
TORSDOF 5
ENDMDL
MODEL 8
REMARK VINA RESULT:      -6.9      1.863      2.565
REMARK  5 active torsions:
REMARK  status: ('A' for Active; 'I' for Inactive)
REMARK    1  A    between atoms: C_4  and  C_5 
REMARK    2  A    between atoms: C_5  and  N_6 
REMARK    3  A    between atoms: N_6  and  C_9 
REMARK    4  A    between atoms: C_12  and  O_13 
REMARK    5  A    between atoms: O_13  and  C_14 
ROOT
HETATM    1  C   UNL     1       5.905  26.159  54.893  1.00  0.00     0.164 A 
HETATM    2  N   UNL     1       7.036  25.678  55.449  1.00  0.00    -0.236 NA
HETATM    3  C   UNL     1       7.563  24.563  54.881  1.00  0.00     0.142 A 
HETATM    4  C   UNL     1       7.005  23.907  53.793  1.00  0.00     0.062 A 
HETATM    5  C   UNL     1       7.622  22.740  53.250  1.00  0.00     0.101 C 
HETATM    6  N   UNL     1       8.125  21.790  52.814  1.00  0.00    -0.191 NA
HETATM    7  C   UNL     1       5.828  24.425  53.252  1.00  0.00     0.028 A 
HETATM    8  C   UNL     1       5.266  25.570  53.813  1.00  0.00     0.059 A 
ENDROOT
BRANCH   1   9
HETATM    9  O   UNL     1       5.305  27.283  55.420  1.00  0.00    -0.329 OA
BRANCH   9  10
HETATM   10  C   UNL     1       5.843  28.533  54.969  1.00  0.00     0.130 C 
HETATM   11  C   UNL     1       4.674  29.530  54.962  1.00  0.00     0.034 C 
HETATM   12  C   UNL     1       4.093  29.742  56.363  1.00  0.00     0.035 C 
HETATM   13  C   UNL     1       5.147  30.152  57.397  1.00  0.00     0.186 C 
HETATM   14  C   UNL     1       6.379  29.240  57.353  1.00  0.00     0.035 C 
HETATM   15  C   UNL     1       6.928  29.023  55.940  1.00  0.00     0.034 C 
BRANCH  13  16
HETATM   16  N   UNL     1       5.582  31.565  57.168  1.00  0.00    -0.065 N 
HETATM   17  H   UNL     1       5.293  31.937  56.254  1.00  0.00     0.278 HD
HETATM   18  H   UNL     1       6.613  31.626  57.125  1.00  0.00     0.278 HD
BRANCH  16  19
HETATM   19  C   UNL     1       5.184  32.571  58.220  1.00  0.00     0.299 C 
BRANCH  19  20
HETATM   20  C   UNL     1       6.136  32.519  59.373  1.00  0.00     0.101 A 
HETATM   21  N   UNL     1       7.428  32.310  59.220  1.00  0.00    -0.249 NA
HETATM   22  C   UNL     1       8.046  32.309  60.465  1.00  0.00     0.038 A 
HETATM   23  C   UNL     1       9.515  32.093  60.552  1.00  0.00     0.071 C 
HETATM   24  C   UNL     1       7.192  32.517  61.534  1.00  0.00     0.078 A 
HETATM   25  S   UNL     1       5.585  32.721  60.979  1.00  0.00    -0.083 SA
ENDBRANCH  19  20
ENDBRANCH  16  19
ENDBRANCH  13  16
ENDBRANCH   9  10
ENDBRANCH   1   9
TORSDOF 5
ENDMDL
MODEL 9
REMARK VINA RESULT:      -6.8      5.203      8.480
REMARK  5 active torsions:
REMARK  status: ('A' for Active; 'I' for Inactive)
REMARK    1  A    between atoms: C_4  and  C_5 
REMARK    2  A    between atoms: C_5  and  N_6 
REMARK    3  A    between atoms: N_6  and  C_9 
REMARK    4  A    between atoms: C_12  and  O_13 
REMARK    5  A    between atoms: O_13  and  C_14 
ROOT
HETATM    1  C   UNL     1       4.733  27.059  50.192  1.00  0.00     0.164 A 
HETATM    2  N   UNL     1       4.563  26.037  49.327  1.00  0.00    -0.236 NA
HETATM    3  C   UNL     1       3.514  26.136  48.471  1.00  0.00     0.142 A 
HETATM    4  C   UNL     1       2.626  27.203  48.450  1.00  0.00     0.062 A 
HETATM    5  C   UNL     1       1.547  27.234  47.516  1.00  0.00     0.101 C 
HETATM    6  N   UNL     1       0.670  27.256  46.757  1.00  0.00    -0.191 NA
HETATM    7  C   UNL     1       2.823  28.235  49.368  1.00  0.00     0.028 A 
HETATM    8  C   UNL     1       3.894  28.161  50.256  1.00  0.00     0.059 A 
ENDROOT
BRANCH   1   9
HETATM    9  O   UNL     1       5.771  27.026  51.098  1.00  0.00    -0.329 OA
BRANCH   9  10
HETATM   10  C   UNL     1       5.992  25.759  51.730  1.00  0.00     0.130 C 
HETATM   11  C   UNL     1       7.449  25.767  52.218  1.00  0.00     0.034 C 
HETATM   12  C   UNL     1       7.698  26.865  53.257  1.00  0.00     0.035 C 
HETATM   13  C   UNL     1       6.731  26.803  54.444  1.00  0.00     0.186 C 
HETATM   14  C   UNL     1       5.271  26.681  53.988  1.00  0.00     0.035 C 
HETATM   15  C   UNL     1       5.050  25.595  52.931  1.00  0.00     0.034 C 
BRANCH  13  16
HETATM   16  N   UNL     1       7.060  25.641  55.327  1.00  0.00    -0.065 N 
HETATM   17  H   UNL     1       6.940  25.844  56.328  1.00  0.00     0.278 HD
HETATM   18  H   UNL     1       8.065  25.406  55.260  1.00  0.00     0.278 HD
BRANCH  16  19
HETATM   19  C   UNL     1       6.345  24.346  55.032  1.00  0.00     0.299 C 
BRANCH  19  20
HETATM   20  C   UNL     1       7.332  23.234  54.873  1.00  0.00     0.101 A 
HETATM   21  N   UNL     1       7.327  22.421  53.835  1.00  0.00    -0.249 NA
HETATM   22  C   UNL     1       8.353  21.492  53.972  1.00  0.00     0.038 A 
HETATM   23  C   UNL     1       8.552  20.463  52.917  1.00  0.00     0.071 C 
HETATM   24  C   UNL     1       9.108  21.630  55.123  1.00  0.00     0.078 A 
HETATM   25  S   UNL     1       8.533  22.946  56.056  1.00  0.00    -0.083 SA
ENDBRANCH  19  20
ENDBRANCH  16  19
ENDBRANCH  13  16
ENDBRANCH   9  10
ENDBRANCH   1   9
TORSDOF 5
ENDMDL
MODEL 10
REMARK VINA RESULT:      -6.8      4.274      6.814
REMARK  5 active torsions:
REMARK  status: ('A' for Active; 'I' for Inactive)
REMARK    1  A    between atoms: C_4  and  C_5 
REMARK    2  A    between atoms: C_5  and  N_6 
REMARK    3  A    between atoms: N_6  and  C_9 
REMARK    4  A    between atoms: C_12  and  O_13 
REMARK    5  A    between atoms: O_13  and  C_14 
ROOT
HETATM    1  C   UNL     1       7.690  29.895  58.604  1.00  0.00     0.164 A 
HETATM    2  N   UNL     1       8.104  28.655  58.269  1.00  0.00    -0.236 NA
HETATM    3  C   UNL     1       7.727  28.201  57.047  1.00  0.00     0.142 A 
HETATM    4  C   UNL     1       6.950  28.926  56.154  1.00  0.00     0.062 A 
HETATM    5  C   UNL     1       6.598  28.378  54.883  1.00  0.00     0.101 C 
HETATM    6  N   UNL     1       6.311  27.930  53.853  1.00  0.00    -0.191 NA
HETATM    7  C   UNL     1       6.528  30.198  56.539  1.00  0.00     0.028 A 
HETATM    8  C   UNL     1       6.902  30.691  57.787  1.00  0.00     0.059 A 
ENDROOT
BRANCH   1   9
HETATM    9  O   UNL     1       8.025  30.422  59.833  1.00  0.00    -0.329 OA
BRANCH   9  10
HETATM   10  C   UNL     1       7.712  31.809  60.010  1.00  0.00     0.130 C 
HETATM   11  C   UNL     1       6.507  31.864  60.963  1.00  0.00     0.034 C 
HETATM   12  C   UNL     1       6.837  31.273  62.337  1.00  0.00     0.035 C 
HETATM   13  C   UNL     1       8.070  31.910  62.988  1.00  0.00     0.186 C 
HETATM   14  C   UNL     1       9.260  31.972  62.023  1.00  0.00     0.035 C 
HETATM   15  C   UNL     1       8.902  32.543  60.647  1.00  0.00     0.034 C 
BRANCH  13  16
HETATM   16  N   UNL     1       7.756  33.295  63.458  1.00  0.00    -0.065 N 
HETATM   17  H   UNL     1       7.132  33.809  62.823  1.00  0.00     0.278 HD
HETATM   18  H   UNL     1       8.608  33.879  63.466  1.00  0.00     0.278 HD
BRANCH  16  19
HETATM   19  C   UNL     1       7.196  33.421  64.854  1.00  0.00     0.299 C 
BRANCH  19  20
HETATM   20  C   UNL     1       5.857  34.086  64.817  1.00  0.00     0.101 A 
HETATM   21  N   UNL     1       5.432  34.774  63.775  1.00  0.00    -0.249 NA
HETATM   22  C   UNL     1       4.162  35.274  64.040  1.00  0.00     0.038 A 
HETATM   23  C   UNL     1       3.468  36.088  63.006  1.00  0.00     0.071 C 
HETATM   24  C   UNL     1       3.661  34.948  65.287  1.00  0.00     0.078 A 
HETATM   25  S   UNL     1       4.792  33.996  66.152  1.00  0.00    -0.083 SA
ENDBRANCH  19  20
ENDBRANCH  16  19
ENDBRANCH  13  16
ENDBRANCH   9  10
ENDBRANCH   1   9
TORSDOF 5
ENDMDL
