MODEL 1
REMARK VINA RESULT:      -8.2      0.000      0.000
REMARK  6 active torsions:
REMARK  status: ('A' for Active; 'I' for Inactive)
REMARK    1  A    between atoms: N_2  and  C_4 
REMARK    2  A    between atoms: N_2  and  C_11 
REMARK    3  A    between atoms: C_4  and  C_5 
REMARK    4  A    between atoms: C_5  and  O_6 
REMARK    5  A    between atoms: C_11  and  C_12 
REMARK    6  A    between atoms: C_13  and  C_14 
ROOT
HETATM    1  C   UNL     1       6.826  24.871  56.450  1.00  0.00     0.016 A 
HETATM    2  C   UNL     1       7.865  23.915  56.187  1.00  0.00     0.102 A 
HETATM    3  N   UNL     1       8.867  24.047  57.064  1.00  0.00    -0.174 NA
HETATM    4  N   UNL     1       8.491  25.029  57.886  1.00  0.00    -0.288 N 
HETATM    5  H   UNL     1       9.119  25.284  58.644  1.00  0.00     0.188 HD
HETATM    6  C   UNL     1       7.270  25.553  57.571  1.00  0.00     0.120 A 
ENDROOT
BRANCH   1   7
HETATM    7  C   UNL     1       5.556  25.018  55.687  1.00  0.00     0.277 C 
BRANCH   7   8
HETATM    8  N   UNL     1       5.630  25.897  54.453  1.00  0.00    -0.068 N 
HETATM    9  C   UNL     1       5.002  25.222  53.256  1.00  0.00     0.270 C 
HETATM   10  H   UNL     1       6.627  26.020  54.251  1.00  0.00     0.279 HD
BRANCH   8  11
HETATM   11  C   UNL     1       5.030  27.274  54.734  1.00  0.00     0.272 C 
BRANCH  11  12
HETATM   12  C   UNL     1       6.087  28.389  54.911  1.00  0.00     0.082 C 
HETATM   13  C   UNL     1       6.230  28.785  56.383  1.00  0.00     0.039 C 
HETATM   14  C   UNL     1       7.580  29.490  56.447  1.00  0.00     0.003 C 
HETATM   15  C   UNL     1       8.445  28.807  55.392  1.00  0.00     0.003 C 
HETATM   16  C   UNL     1       7.506  27.966  54.521  1.00  0.00     0.039 C 
BRANCH  12  17
HETATM   17  O   UNL     1       5.694  29.530  54.146  1.00  0.00    -0.388 OA
HETATM   18  H   UNL     1       5.635  30.310  54.732  1.00  0.00     0.210 HD
ENDBRANCH  12  17
ENDBRANCH  11  12
ENDBRANCH   8  11
ENDBRANCH   7   8
ENDBRANCH   1   7
BRANCH   2  19
HETATM   19  C   UNL     1       7.935  22.895  55.148  1.00  0.00     0.072 A 
HETATM   20  C   UNL     1       7.810  21.538  55.455  1.00  0.00     0.132 A 
HETATM   21  F   UNL     1       7.657  21.143  56.729  1.00  0.00    -0.205 F 
HETATM   22  C   UNL     1       7.860  20.560  54.462  1.00  0.00     0.043 A 
HETATM   23  C   UNL     1       8.033  20.933  53.130  1.00  0.00     0.006 A 
HETATM   24  C   UNL     1       8.164  22.282  52.804  1.00  0.00     0.043 A 
HETATM   25  C   UNL     1       8.114  23.249  53.808  1.00  0.00     0.132 A 
HETATM   26  F   UNL     1       8.289  24.532  53.457  1.00  0.00    -0.205 F 
ENDBRANCH   2  19
TORSDOF 6
ENDMDL
MODEL 2
REMARK VINA RESULT:      -8.2      1.505      2.645
REMARK  6 active torsions:
REMARK  status: ('A' for Active; 'I' for Inactive)
REMARK    1  A    between atoms: N_2  and  C_4 
REMARK    2  A    between atoms: N_2  and  C_11 
REMARK    3  A    between atoms: C_4  and  C_5 
REMARK    4  A    between atoms: C_5  and  O_6 
REMARK    5  A    between atoms: C_11  and  C_12 
REMARK    6  A    between atoms: C_13  and  C_14 
ROOT
HETATM    1  C   UNL     1       6.914  24.852  56.604  1.00  0.00     0.016 A 
HETATM    2  C   UNL     1       7.973  23.978  56.183  1.00  0.00     0.102 A 
HETATM    3  N   UNL     1       9.099  24.236  56.858  1.00  0.00    -0.174 NA
HETATM    4  N   UNL     1       8.788  25.218  57.706  1.00  0.00    -0.288 N 
HETATM    5  H   UNL     1       9.515  25.560  58.329  1.00  0.00     0.188 HD
HETATM    6  C   UNL     1       7.487  25.620  57.604  1.00  0.00     0.120 A 
ENDROOT
BRANCH   1   7
HETATM    7  C   UNL     1       5.519  24.854  56.082  1.00  0.00     0.277 C 
BRANCH   7   8
HETATM    8  N   UNL     1       5.004  26.195  55.595  1.00  0.00    -0.068 N 
HETATM    9  C   UNL     1       4.928  27.199  56.723  1.00  0.00     0.270 C 
HETATM   10  H   UNL     1       4.049  26.030  55.264  1.00  0.00     0.279 HD
BRANCH   8  11
HETATM   11  C   UNL     1       5.834  26.698  54.416  1.00  0.00     0.272 C 
BRANCH  11  12
HETATM   12  C   UNL     1       5.076  26.680  53.069  1.00  0.00     0.082 C 
HETATM   13  C   UNL     1       5.680  27.681  52.081  1.00  0.00     0.039 C 
HETATM   14  C   UNL     1       5.174  27.212  50.722  1.00  0.00     0.003 C 
HETATM   15  C   UNL     1       5.058  25.694  50.833  1.00  0.00     0.003 C 
HETATM   16  C   UNL     1       5.171  25.347  52.321  1.00  0.00     0.039 C 
BRANCH  12  17
HETATM   17  O   UNL     1       3.704  27.008  53.301  1.00  0.00    -0.388 OA
HETATM   18  H   UNL     1       3.546  27.939  53.050  1.00  0.00     0.210 HD
ENDBRANCH  12  17
ENDBRANCH  11  12
ENDBRANCH   8  11
ENDBRANCH   7   8
ENDBRANCH   1   7
BRANCH   2  19
HETATM   19  C   UNL     1       7.950  22.922  55.179  1.00  0.00     0.072 A 
HETATM   20  C   UNL     1       7.870  21.577  55.544  1.00  0.00     0.132 A 
HETATM   21  F   UNL     1       7.847  21.226  56.840  1.00  0.00    -0.205 F 
HETATM   22  C   UNL     1       7.830  20.563  54.585  1.00  0.00     0.043 A 
HETATM   23  C   UNL     1       7.868  20.890  53.231  1.00  0.00     0.006 A 
HETATM   24  C   UNL     1       7.952  22.227  52.846  1.00  0.00     0.043 A 
HETATM   25  C   UNL     1       7.993  23.229  53.816  1.00  0.00     0.132 A 
HETATM   26  F   UNL     1       8.119  24.500  53.405  1.00  0.00    -0.205 F 
ENDBRANCH   2  19
TORSDOF 6
ENDMDL
MODEL 3
REMARK VINA RESULT:      -8.1      0.247      1.739
REMARK  6 active torsions:
REMARK  status: ('A' for Active; 'I' for Inactive)
REMARK    1  A    between atoms: N_2  and  C_4 
REMARK    2  A    between atoms: N_2  and  C_11 
REMARK    3  A    between atoms: C_4  and  C_5 
REMARK    4  A    between atoms: C_5  and  O_6 
REMARK    5  A    between atoms: C_11  and  C_12 
REMARK    6  A    between atoms: C_13  and  C_14 
ROOT
HETATM    1  C   UNL     1       6.865  24.781  56.321  1.00  0.00     0.016 A 
HETATM    2  C   UNL     1       7.916  23.822  56.129  1.00  0.00     0.102 A 
HETATM    3  N   UNL     1       8.902  24.013  57.015  1.00  0.00    -0.174 NA
HETATM    4  N   UNL     1       8.503  25.035  57.774  1.00  0.00    -0.288 N 
HETATM    5  H   UNL     1       9.115  25.339  58.527  1.00  0.00     0.188 HD
HETATM    6  C   UNL     1       7.284  25.529  57.409  1.00  0.00     0.120 A 
ENDROOT
BRANCH   1   7
HETATM    7  C   UNL     1       5.607  24.872  55.529  1.00  0.00     0.277 C 
BRANCH   7   8
HETATM    8  N   UNL     1       5.688  25.705  54.265  1.00  0.00    -0.068 N 
HETATM    9  C   UNL     1       5.113  24.965  53.079  1.00  0.00     0.270 C 
HETATM   10  H   UNL     1       6.685  25.852  54.084  1.00  0.00     0.279 HD
BRANCH   8  11
HETATM   11  C   UNL     1       5.038  27.072  54.475  1.00  0.00     0.272 C 
BRANCH  11  12
HETATM   12  C   UNL     1       6.053  28.217  54.691  1.00  0.00     0.082 C 
HETATM   13  C   UNL     1       6.082  28.662  56.156  1.00  0.00     0.039 C 
HETATM   14  C   UNL     1       7.407  29.401  56.293  1.00  0.00     0.003 C 
HETATM   15  C   UNL     1       8.361  28.708  55.324  1.00  0.00     0.003 C 
HETATM   16  C   UNL     1       7.506  27.818  54.416  1.00  0.00     0.039 C 
BRANCH  12  17
HETATM   17  O   UNL     1       5.691  29.325  53.863  1.00  0.00    -0.388 OA
HETATM   18  H   UNL     1       6.461  29.595  53.326  1.00  0.00     0.210 HD
ENDBRANCH  12  17
ENDBRANCH  11  12
ENDBRANCH   8  11
ENDBRANCH   7   8
ENDBRANCH   1   7
BRANCH   2  19
HETATM   19  C   UNL     1       8.014  22.746  55.151  1.00  0.00     0.072 A 
HETATM   20  C   UNL     1       8.250  23.013  53.801  1.00  0.00     0.132 A 
HETATM   21  F   UNL     1       8.359  24.280  53.370  1.00  0.00    -0.205 F 
HETATM   22  C   UNL     1       8.361  21.985  52.864  1.00  0.00     0.043 A 
HETATM   23  C   UNL     1       8.238  20.658  53.274  1.00  0.00     0.006 A 
HETATM   24  C   UNL     1       7.998  20.371  54.616  1.00  0.00     0.043 A 
HETATM   25  C   UNL     1       7.887  21.410  55.542  1.00  0.00     0.132 A 
HETATM   26  F   UNL     1       7.610  21.093  56.815  1.00  0.00    -0.205 F 
ENDBRANCH   2  19
TORSDOF 6
ENDMDL
MODEL 4
REMARK VINA RESULT:      -7.6      1.320      2.932
REMARK  6 active torsions:
REMARK  status: ('A' for Active; 'I' for Inactive)
REMARK    1  A    between atoms: N_2  and  C_4 
REMARK    2  A    between atoms: N_2  and  C_11 
REMARK    3  A    between atoms: C_4  and  C_5 
REMARK    4  A    between atoms: C_5  and  O_6 
REMARK    5  A    between atoms: C_11  and  C_12 
REMARK    6  A    between atoms: C_13  and  C_14 
ROOT
HETATM    1  C   UNL     1       6.876  24.806  56.561  1.00  0.00     0.016 A 
HETATM    2  C   UNL     1       7.896  23.851  56.232  1.00  0.00     0.102 A 
HETATM    3  N   UNL     1       8.920  23.934  57.091  1.00  0.00    -0.174 NA
HETATM    4  N   UNL     1       8.575  24.883  57.963  1.00  0.00    -0.288 N 
HETATM    5  H   UNL     1       9.222  25.099  58.717  1.00  0.00     0.188 HD
HETATM    6  C   UNL     1       7.353  25.434  57.699  1.00  0.00     0.120 A 
ENDROOT
BRANCH   1   7
HETATM    7  C   UNL     1       5.590  25.000  55.834  1.00  0.00     0.277 C 
BRANCH   7   8
HETATM    8  N   UNL     1       5.276  26.427  55.428  1.00  0.00    -0.068 N 
HETATM    9  C   UNL     1       4.859  27.260  56.618  1.00  0.00     0.270 C 
HETATM   10  H   UNL     1       4.473  26.372  54.793  1.00  0.00     0.279 HD
BRANCH   8  11
HETATM   11  C   UNL     1       6.445  27.041  54.661  1.00  0.00     0.272 C 
BRANCH  11  12
HETATM   12  C   UNL     1       6.042  27.663  53.304  1.00  0.00     0.082 C 
HETATM   13  C   UNL     1       6.130  26.633  52.175  1.00  0.00     0.039 C 
HETATM   14  C   UNL     1       5.272  27.227  51.064  1.00  0.00     0.003 C 
HETATM   15  C   UNL     1       4.167  28.003  51.775  1.00  0.00     0.003 C 
HETATM   16  C   UNL     1       4.583  28.127  53.244  1.00  0.00     0.039 C 
BRANCH  12  17
HETATM   17  O   UNL     1       6.911  28.761  53.017  1.00  0.00    -0.388 OA
HETATM   18  H   UNL     1       6.429  29.428  52.491  1.00  0.00     0.210 HD
ENDBRANCH  12  17
ENDBRANCH  11  12
ENDBRANCH   8  11
ENDBRANCH   7   8
ENDBRANCH   1   7
BRANCH   2  19
HETATM   19  C   UNL     1       7.931  22.876  55.149  1.00  0.00     0.072 A 
HETATM   20  C   UNL     1       8.119  23.272  53.824  1.00  0.00     0.132 A 
HETATM   21  F   UNL     1       8.238  24.573  53.515  1.00  0.00    -0.205 F 
HETATM   22  C   UNL     1       8.170  22.340  52.786  1.00  0.00     0.043 A 
HETATM   23  C   UNL     1       8.034  20.982  53.068  1.00  0.00     0.006 A 
HETATM   24  C   UNL     1       7.841  20.567  54.384  1.00  0.00     0.043 A 
HETATM   25  C   UNL     1       7.790  21.511  55.411  1.00  0.00     0.132 A 
HETATM   26  F   UNL     1       7.558  21.074  56.658  1.00  0.00    -0.205 F 
ENDBRANCH   2  19
TORSDOF 6
ENDMDL
MODEL 5
REMARK VINA RESULT:      -7.5      2.112      3.655
REMARK  6 active torsions:
REMARK  status: ('A' for Active; 'I' for Inactive)
REMARK    1  A    between atoms: N_2  and  C_4 
REMARK    2  A    between atoms: N_2  and  C_11 
REMARK    3  A    between atoms: C_4  and  C_5 
REMARK    4  A    between atoms: C_5  and  O_6 
REMARK    5  A    between atoms: C_11  and  C_12 
REMARK    6  A    between atoms: C_13  and  C_14 
ROOT
HETATM    1  C   UNL     1       6.054  26.615  54.055  1.00  0.00     0.016 A 
HETATM    2  C   UNL     1       5.973  25.193  53.872  1.00  0.00     0.102 A 
HETATM    3  N   UNL     1       4.835  24.857  53.251  1.00  0.00    -0.174 NA
HETATM    4  N   UNL     1       4.209  26.010  53.011  1.00  0.00    -0.288 N 
HETATM    5  H   UNL     1       3.314  25.977  52.530  1.00  0.00     0.188 HD
HETATM    6  C   UNL     1       4.899  27.098  53.464  1.00  0.00     0.120 A 
ENDROOT
BRANCH   1   7
HETATM    7  C   UNL     1       7.175  27.353  54.700  1.00  0.00     0.277 C 
BRANCH   7   8
HETATM    8  N   UNL     1       6.966  27.721  56.156  1.00  0.00    -0.068 N 
HETATM    9  C   UNL     1       8.148  27.309  57.004  1.00  0.00     0.270 C 
HETATM   10  H   UNL     1       6.156  27.180  56.473  1.00  0.00     0.279 HD
BRANCH   8  11
HETATM   11  C   UNL     1       6.630  29.204  56.297  1.00  0.00     0.272 C 
BRANCH  11  12
HETATM   12  C   UNL     1       5.241  29.471  56.920  1.00  0.00     0.082 C 
HETATM   13  C   UNL     1       5.256  30.733  57.786  1.00  0.00     0.039 C 
HETATM   14  C   UNL     1       3.786  31.115  57.911  1.00  0.00     0.003 C 
HETATM   15  C   UNL     1       3.140  30.676  56.600  1.00  0.00     0.003 C 
HETATM   16  C   UNL     1       4.146  29.765  55.890  1.00  0.00     0.039 C 
BRANCH  12  17
HETATM   17  O   UNL     1       4.864  28.348  57.720  1.00  0.00    -0.388 OA
HETATM   18  H   UNL     1       5.466  28.280  58.487  1.00  0.00     0.210 HD
ENDBRANCH  12  17
ENDBRANCH  11  12
ENDBRANCH   8  11
ENDBRANCH   7   8
ENDBRANCH   1   7
BRANCH   2  19
HETATM   19  C   UNL     1       6.925  24.159  54.259  1.00  0.00     0.072 A 
HETATM   20  C   UNL     1       7.055  23.754  55.589  1.00  0.00     0.132 A 
HETATM   21  F   UNL     1       6.323  24.338  56.550  1.00  0.00    -0.205 F 
HETATM   22  C   UNL     1       7.953  22.753  55.960  1.00  0.00     0.043 A 
HETATM   23  C   UNL     1       8.741  22.135  54.990  1.00  0.00     0.006 A 
HETATM   24  C   UNL     1       8.629  22.528  53.658  1.00  0.00     0.043 A 
HETATM   25  C   UNL     1       7.728  23.532  53.302  1.00  0.00     0.132 A 
HETATM   26  F   UNL     1       7.684  23.913  52.016  1.00  0.00    -0.205 F 
ENDBRANCH   2  19
TORSDOF 6
ENDMDL
MODEL 6
REMARK VINA RESULT:      -7.4      2.642      5.777
REMARK  6 active torsions:
REMARK  status: ('A' for Active; 'I' for Inactive)
REMARK    1  A    between atoms: N_2  and  C_4 
REMARK    2  A    between atoms: N_2  and  C_11 
REMARK    3  A    between atoms: C_4  and  C_5 
REMARK    4  A    between atoms: C_5  and  O_6 
REMARK    5  A    between atoms: C_11  and  C_12 
REMARK    6  A    between atoms: C_13  and  C_14 
ROOT
HETATM    1  C   UNL     1       7.530  26.767  56.125  1.00  0.00     0.016 A 
HETATM    2  C   UNL     1       7.401  27.396  54.840  1.00  0.00     0.102 A 
HETATM    3  N   UNL     1       8.004  28.592  54.834  1.00  0.00    -0.174 NA
HETATM    4  N   UNL     1       8.529  28.730  56.052  1.00  0.00    -0.288 N 
HETATM    5  H   UNL     1       9.047  29.581  56.255  1.00  0.00     0.188 HD
HETATM    6  C   UNL     1       8.285  27.661  56.865  1.00  0.00     0.120 A 
ENDROOT
BRANCH   1   7
HETATM    7  C   UNL     1       6.994  25.430  56.503  1.00  0.00     0.277 C 
BRANCH   7   8
HETATM    8  N   UNL     1       7.942  24.263  56.306  1.00  0.00    -0.068 N 
HETATM    9  C   UNL     1       8.605  23.866  57.606  1.00  0.00     0.270 C 
HETATM   10  H   UNL     1       8.676  24.597  55.674  1.00  0.00     0.279 HD
BRANCH   8  11
HETATM   11  C   UNL     1       7.229  23.094  55.629  1.00  0.00     0.272 C 
BRANCH  11  12
HETATM   12  C   UNL     1       8.168  22.191  54.797  1.00  0.00     0.082 C 
HETATM   13  C   UNL     1       8.147  20.749  55.311  1.00  0.00     0.039 C 
HETATM   14  C   UNL     1       8.697  19.933  54.148  1.00  0.00     0.003 C 
HETATM   15  C   UNL     1       8.251  20.668  52.888  1.00  0.00     0.003 C 
HETATM   16  C   UNL     1       7.750  22.047  53.330  1.00  0.00     0.039 C 
BRANCH  12  17
HETATM   17  O   UNL     1       9.499  22.705  54.873  1.00  0.00    -0.388 OA
HETATM   18  H   UNL     1       9.669  23.282  54.103  1.00  0.00     0.210 HD
ENDBRANCH  12  17
ENDBRANCH  11  12
ENDBRANCH   8  11
ENDBRANCH   7   8
ENDBRANCH   1   7
BRANCH   2  19
HETATM   19  C   UNL     1       6.739  26.907  53.638  1.00  0.00     0.072 A 
HETATM   20  C   UNL     1       5.544  27.472  53.188  1.00  0.00     0.132 A 
HETATM   21  F   UNL     1       4.959  28.462  53.881  1.00  0.00    -0.205 F 
HETATM   22  C   UNL     1       4.915  27.018  52.028  1.00  0.00     0.043 A 
HETATM   23  C   UNL     1       5.486  25.980  51.292  1.00  0.00     0.006 A 
HETATM   24  C   UNL     1       6.676  25.400  51.727  1.00  0.00     0.043 A 
HETATM   25  C   UNL     1       7.292  25.863  52.890  1.00  0.00     0.132 A 
HETATM   26  F   UNL     1       8.412  25.248  53.299  1.00  0.00    -0.205 F 
ENDBRANCH   2  19
TORSDOF 6
ENDMDL
MODEL 7
REMARK VINA RESULT:      -7.3      2.618      6.662
REMARK  6 active torsions:
REMARK  status: ('A' for Active; 'I' for Inactive)
REMARK    1  A    between atoms: N_2  and  C_4 
REMARK    2  A    between atoms: N_2  and  C_11 
REMARK    3  A    between atoms: C_4  and  C_5 
REMARK    4  A    between atoms: C_5  and  O_6 
REMARK    5  A    between atoms: C_11  and  C_12 
REMARK    6  A    between atoms: C_13  and  C_14 
ROOT
HETATM    1  C   UNL     1       5.476  25.605  54.646  1.00  0.00     0.016 A 
HETATM    2  C   UNL     1       5.433  27.025  54.439  1.00  0.00     0.102 A 
HETATM    3  N   UNL     1       4.961  27.314  53.220  1.00  0.00    -0.174 NA
HETATM    4  N   UNL     1       4.680  26.137  52.660  1.00  0.00    -0.288 N 
HETATM    5  H   UNL     1       4.295  26.134  51.719  1.00  0.00     0.188 HD
HETATM    6  C   UNL     1       4.960  25.077  53.475  1.00  0.00     0.120 A 
ENDROOT
BRANCH   1   7
HETATM    7  C   UNL     1       5.936  24.913  55.882  1.00  0.00     0.277 C 
BRANCH   7   8
HETATM    8  N   UNL     1       7.401  24.520  55.906  1.00  0.00    -0.068 N 
HETATM    9  C   UNL     1       8.178  25.353  56.899  1.00  0.00     0.270 C 
HETATM   10  H   UNL     1       7.767  24.729  54.973  1.00  0.00     0.279 HD
BRANCH   8  11
HETATM   11  C   UNL     1       7.554  23.020  56.151  1.00  0.00     0.272 C 
BRANCH  11  12
HETATM   12  C   UNL     1       8.252  22.269  54.993  1.00  0.00     0.082 C 
HETATM   13  C   UNL     1       7.920  20.775  55.023  1.00  0.00     0.039 C 
HETATM   14  C   UNL     1       8.253  20.293  53.616  1.00  0.00     0.003 C 
HETATM   15  C   UNL     1       7.959  21.478  52.701  1.00  0.00     0.003 C 
HETATM   16  C   UNL     1       7.786  22.705  53.601  1.00  0.00     0.039 C 
BRANCH  12  17
HETATM   17  O   UNL     1       9.666  22.446  55.108  1.00  0.00    -0.388 OA
HETATM   18  H   UNL     1       9.872  23.400  55.152  1.00  0.00     0.210 HD
ENDBRANCH  12  17
ENDBRANCH  11  12
ENDBRANCH   8  11
ENDBRANCH   7   8
ENDBRANCH   1   7
BRANCH   2  19
HETATM   19  C   UNL     1       5.815  28.100  55.347  1.00  0.00     0.072 A 
HETATM   20  C   UNL     1       4.876  28.716  56.176  1.00  0.00     0.132 A 
HETATM   21  F   UNL     1       3.585  28.352  56.127  1.00  0.00    -0.205 F 
HETATM   22  C   UNL     1       5.242  29.734  57.058  1.00  0.00     0.043 A 
HETATM   23  C   UNL     1       6.571  30.149  57.125  1.00  0.00     0.006 A 
HETATM   24  C   UNL     1       7.522  29.548  56.303  1.00  0.00     0.043 A 
HETATM   25  C   UNL     1       7.142  28.533  55.423  1.00  0.00     0.132 A 
HETATM   26  F   UNL     1       8.079  28.013  54.617  1.00  0.00    -0.205 F 
ENDBRANCH   2  19
TORSDOF 6
ENDMDL
MODEL 8
REMARK VINA RESULT:      -7.1      3.262      5.074
REMARK  6 active torsions:
REMARK  status: ('A' for Active; 'I' for Inactive)
REMARK    1  A    between atoms: N_2  and  C_4 
REMARK    2  A    between atoms: N_2  and  C_11 
REMARK    3  A    between atoms: C_4  and  C_5 
REMARK    4  A    between atoms: C_5  and  O_6 
REMARK    5  A    between atoms: C_11  and  C_12 
REMARK    6  A    between atoms: C_13  and  C_14 
ROOT
HETATM    1  C   UNL     1       5.724  27.362  53.868  1.00  0.00     0.016 A 
HETATM    2  C   UNL     1       6.900  26.638  54.263  1.00  0.00     0.102 A 
HETATM    3  N   UNL     1       7.785  27.454  54.849  1.00  0.00    -0.174 NA
HETATM    4  N   UNL     1       7.205  28.655  54.864  1.00  0.00    -0.288 N 
HETATM    5  H   UNL     1       7.717  29.428  55.282  1.00  0.00     0.188 HD
HETATM    6  C   UNL     1       5.963  28.656  54.298  1.00  0.00     0.120 A 
ENDROOT
BRANCH   1   7
HETATM    7  C   UNL     1       4.525  26.787  53.196  1.00  0.00     0.277 C 
BRANCH   7   8
HETATM    8  N   UNL     1       3.960  27.606  52.052  1.00  0.00    -0.068 N 
HETATM    9  C   UNL     1       3.167  28.788  52.561  1.00  0.00     0.270 C 
HETATM   10  H   UNL     1       3.310  26.989  51.554  1.00  0.00     0.279 HD
BRANCH   8  11
HETATM   11  C   UNL     1       5.065  28.014  51.080  1.00  0.00     0.272 C 
BRANCH  11  12
HETATM   12  C   UNL     1       4.777  27.627  49.612  1.00  0.00     0.082 C 
HETATM   13  C   UNL     1       4.519  26.124  49.477  1.00  0.00     0.039 C 
HETATM   14  C   UNL     1       3.800  25.990  48.140  1.00  0.00     0.003 C 
HETATM   15  C   UNL     1       2.990  27.274  47.984  1.00  0.00     0.003 C 
HETATM   16  C   UNL     1       3.501  28.255  49.043  1.00  0.00     0.039 C 
BRANCH  12  17
HETATM   17  O   UNL     1       5.898  27.992  48.804  1.00  0.00    -0.388 OA
HETATM   18  H   UNL     1       6.543  27.259  48.792  1.00  0.00     0.210 HD
ENDBRANCH  12  17
ENDBRANCH  11  12
ENDBRANCH   8  11
ENDBRANCH   7   8
ENDBRANCH   1   7
BRANCH   2  19
HETATM   19  C   UNL     1       7.205  25.222  54.107  1.00  0.00     0.072 A 
HETATM   20  C   UNL     1       7.701  24.715  52.904  1.00  0.00     0.132 A 
HETATM   21  F   UNL     1       7.874  25.525  51.848  1.00  0.00    -0.205 F 
HETATM   22  C   UNL     1       8.010  23.362  52.756  1.00  0.00     0.043 A 
HETATM   23  C   UNL     1       7.827  22.489  53.828  1.00  0.00     0.006 A 
HETATM   24  C   UNL     1       7.329  22.975  55.035  1.00  0.00     0.043 A 
HETATM   25  C   UNL     1       7.022  24.330  55.167  1.00  0.00     0.132 A 
HETATM   26  F   UNL     1       6.503  24.748  56.332  1.00  0.00    -0.205 F 
ENDBRANCH   2  19
TORSDOF 6
ENDMDL
MODEL 9
REMARK VINA RESULT:      -7.1      3.004      4.572
REMARK  6 active torsions:
REMARK  status: ('A' for Active; 'I' for Inactive)
REMARK    1  A    between atoms: N_2  and  C_4 
REMARK    2  A    between atoms: N_2  and  C_11 
REMARK    3  A    between atoms: C_4  and  C_5 
REMARK    4  A    between atoms: C_5  and  O_6 
REMARK    5  A    between atoms: C_11  and  C_12 
REMARK    6  A    between atoms: C_13  and  C_14 
ROOT
HETATM    1  C   UNL     1       5.405  27.362  55.015  1.00  0.00     0.016 A 
HETATM    2  C   UNL     1       5.727  26.026  55.431  1.00  0.00     0.102 A 
HETATM    3  N   UNL     1       5.166  25.749  56.615  1.00  0.00    -0.174 NA
HETATM    4  N   UNL     1       4.483  26.844  56.949  1.00  0.00    -0.288 N 
HETATM    5  H   UNL     1       3.967  26.838  57.825  1.00  0.00     0.188 HD
HETATM    6  C   UNL     1       4.583  27.841  56.020  1.00  0.00     0.120 A 
ENDROOT
BRANCH   1   7
HETATM    7  C   UNL     1       5.845  28.016  53.751  1.00  0.00     0.277 C 
BRANCH   7   8
HETATM    8  N   UNL     1       4.867  27.932  52.595  1.00  0.00    -0.068 N 
HETATM    9  C   UNL     1       3.489  28.399  53.003  1.00  0.00     0.270 C 
HETATM   10  H   UNL     1       4.798  26.939  52.352  1.00  0.00     0.279 HD
BRANCH   8  11
HETATM   11  C   UNL     1       5.405  28.680  51.376  1.00  0.00     0.272 C 
BRANCH  11  12
HETATM   12  C   UNL     1       5.036  28.020  50.028  1.00  0.00     0.082 C 
HETATM   13  C   UNL     1       4.900  26.502  50.174  1.00  0.00     0.039 C 
HETATM   14  C   UNL     1       4.092  26.083  48.952  1.00  0.00     0.003 C 
HETATM   15  C   UNL     1       3.163  27.258  48.657  1.00  0.00     0.003 C 
HETATM   16  C   UNL     1       3.670  28.445  49.482  1.00  0.00     0.039 C 
BRANCH  12  17
HETATM   17  O   UNL     1       6.054  28.317  49.069  1.00  0.00    -0.388 OA
HETATM   18  H   UNL     1       5.706  28.952  48.412  1.00  0.00     0.210 HD
ENDBRANCH  12  17
ENDBRANCH  11  12
ENDBRANCH   8  11
ENDBRANCH   7   8
ENDBRANCH   1   7
BRANCH   2  19
HETATM   19  C   UNL     1       6.533  25.019  54.752  1.00  0.00     0.072 A 
HETATM   20  C   UNL     1       7.776  24.628  55.254  1.00  0.00     0.132 A 
HETATM   21  F   UNL     1       8.272  25.202  56.360  1.00  0.00    -0.205 F 
HETATM   22  C   UNL     1       8.544  23.652  54.616  1.00  0.00     0.043 A 
HETATM   23  C   UNL     1       8.067  23.046  53.455  1.00  0.00     0.006 A 
HETATM   24  C   UNL     1       6.830  23.425  52.937  1.00  0.00     0.043 A 
HETATM   25  C   UNL     1       6.075  24.404  53.584  1.00  0.00     0.132 A 
HETATM   26  F   UNL     1       4.911  24.773  53.028  1.00  0.00    -0.205 F 
ENDBRANCH   2  19
TORSDOF 6
ENDMDL
MODEL 10
REMARK VINA RESULT:      -7.1      5.001      8.484
REMARK  6 active torsions:
REMARK  status: ('A' for Active; 'I' for Inactive)
REMARK    1  A    between atoms: N_2  and  C_4 
REMARK    2  A    between atoms: N_2  and  C_11 
REMARK    3  A    between atoms: C_4  and  C_5 
REMARK    4  A    between atoms: C_5  and  O_6 
REMARK    5  A    between atoms: C_11  and  C_12 
REMARK    6  A    between atoms: C_13  and  C_14 
ROOT
HETATM    1  C   UNL     1       8.992  30.030  58.282  1.00  0.00     0.016 A 
HETATM    2  C   UNL     1       9.143  31.198  59.104  1.00  0.00     0.102 A 
HETATM    3  N   UNL     1      10.162  31.952  58.675  1.00  0.00    -0.174 NA
HETATM    4  N   UNL     1      10.643  31.322  57.601  1.00  0.00    -0.288 N 
HETATM    5  H   UNL     1      11.429  31.743  57.112  1.00  0.00     0.188 HD
HETATM    6  C   UNL     1       9.972  30.168  57.314  1.00  0.00     0.120 A 
ENDROOT
BRANCH   1   7
HETATM    7  C   UNL     1       7.962  28.967  58.452  1.00  0.00     0.277 C 
BRANCH   7   8
HETATM    8  N   UNL     1       7.077  28.714  57.247  1.00  0.00    -0.068 N 
HETATM    9  C   UNL     1       6.609  30.010  56.625  1.00  0.00     0.270 C 
HETATM   10  H   UNL     1       6.249  28.224  57.600  1.00  0.00     0.279 HD
BRANCH   8  11
HETATM   11  C   UNL     1       7.777  27.800  56.243  1.00  0.00     0.272 C 
BRANCH  11  12
HETATM   12  C   UNL     1       7.427  26.304  56.415  1.00  0.00     0.082 C 
HETATM   13  C   UNL     1       7.443  25.574  55.070  1.00  0.00     0.039 C 
HETATM   14  C   UNL     1       7.566  24.103  55.447  1.00  0.00     0.003 C 
HETATM   15  C   UNL     1       8.389  24.081  56.732  1.00  0.00     0.003 C 
HETATM   16  C   UNL     1       8.443  25.521  57.252  1.00  0.00     0.039 C 
BRANCH  12  17
HETATM   17  O   UNL     1       6.128  26.193  57.003  1.00  0.00    -0.388 OA
HETATM   18  H   UNL     1       6.179  26.429  57.949  1.00  0.00     0.210 HD
ENDBRANCH  12  17
ENDBRANCH  11  12
ENDBRANCH   8  11
ENDBRANCH   7   8
ENDBRANCH   1   7
BRANCH   2  19
HETATM   19  C   UNL     1       8.363  31.617  60.262  1.00  0.00     0.072 A 
HETATM   20  C   UNL     1       7.130  32.254  60.112  1.00  0.00     0.132 A 
HETATM   21  F   UNL     1       6.652  32.528  58.889  1.00  0.00    -0.205 F 
HETATM   22  C   UNL     1       6.372  32.641  61.219  1.00  0.00     0.043 A 
HETATM   23  C   UNL     1       6.846  32.387  62.505  1.00  0.00     0.006 A 
HETATM   24  C   UNL     1       8.076  31.755  62.675  1.00  0.00     0.043 A 
HETATM   25  C   UNL     1       8.824  31.376  61.559  1.00  0.00     0.132 A 
HETATM   26  F   UNL     1      10.023  30.812  61.766  1.00  0.00    -0.205 F 
ENDBRANCH   2  19
TORSDOF 6
ENDMDL
