MODEL 1
REMARK VINA RESULT:     -10.7      0.000      0.000
REMARK  7 active torsions:
REMARK  status: ('A' for Active; 'I' for Inactive)
REMARK    1  A    between atoms: C_8  and  C_9 
REMARK    2  A    between atoms: C_9  and  N_10 
REMARK    3  A    between atoms: C_14  and  C_15 
REMARK    4  A    between atoms: C_15  and  C_16 
REMARK    5  A    between atoms: C_16  and  C_17 
REMARK    6  A    between atoms: N_27  and  C_28 
REMARK    7  A    between atoms: C_28  and  C_29 
ROOT
HETATM    1  C   UNL     1       6.860  25.913  54.766  1.00  0.00     0.123 A 
HETATM    2  N   UNL     1       7.032  25.298  56.074  1.00  0.00    -0.324 N 
HETATM    3  C   UNL     1       7.693  26.094  56.978  1.00  0.00     0.326 A 
HETATM    4  O   UNL     1       7.939  25.767  58.122  1.00  0.00    -0.247 OA
HETATM    5  N   UNL     1       7.962  27.283  56.375  1.00  0.00    -0.268 N 
HETATM    6  C   UNL     1       7.526  27.269  55.083  1.00  0.00     0.257 A 
HETATM    7  O   UNL     1       7.593  28.208  54.301  1.00  0.00    -0.270 OA
HETATM    8  H   UNL     1       6.804  24.337  56.311  1.00  0.00     0.165 HD
ENDROOT
BRANCH   1   9
HETATM    9  C   UNL     1       5.329  26.013  54.428  1.00  0.00     0.027 C 
HETATM   10  C   UNL     1       4.711  24.892  53.577  1.00  0.00     0.035 C 
HETATM   11  C   UNL     1       4.927  24.987  52.072  1.00  0.00     0.235 C 
HETATM   12  N   UNL     1       4.667  26.370  51.534  1.00  0.00    -0.067 N 
HETATM   13  H   UNL     1       3.644  26.477  51.466  1.00  0.00     0.280 HD
HETATM   14  C   UNL     1       5.175  27.526  52.352  1.00  0.00     0.235 C 
HETATM   15  C   UNL     1       4.863  27.355  53.828  1.00  0.00     0.035 C 
BRANCH  12  16
HETATM   16  C   UNL     1       5.193  26.506  50.109  1.00  0.00     0.278 C 
BRANCH  16  17
HETATM   17  C   UNL     1       4.209  27.040  49.146  1.00  0.00     0.034 A 
HETATM   18  C   UNL     1       3.934  28.399  48.820  1.00  0.00     0.062 A 
HETATM   19  C   UNL     1       4.583  29.633  49.338  1.00  0.00     0.073 C 
HETATM   20  N   UNL     1       2.960  28.502  47.909  1.00  0.00    -0.176 NA
HETATM   21  N   UNL     1       2.561  27.235  47.685  1.00  0.00    -0.262 N 
HETATM   22  C   UNL     1       1.438  26.984  46.811  1.00  0.00     0.181 C 
HETATM   23  C   UNL     1       3.314  26.337  48.378  1.00  0.00     0.131 A 
HETATM   24 CL   UNL     1       3.061  24.661  48.232  1.00  0.00    -0.062 Cl
ENDBRANCH  16  17
ENDBRANCH  12  16
ENDBRANCH   1   9
BRANCH   1  25
HETATM   25  C   UNL     1       7.740  25.210  53.700  1.00  0.00     0.080 C 
BRANCH  25  26
HETATM   26  C   UNL     1       8.059  23.760  53.989  1.00  0.00    -0.052 A 
HETATM   27  C   UNL     1       7.583  22.732  53.166  1.00  0.00     0.049 A 
HETATM   28  C   UNL     1       7.880  21.404  53.466  1.00  0.00     0.116 A 
HETATM   29  F   UNL     1       7.405  20.434  52.673  1.00  0.00    -0.206 F 
HETATM   30  C   UNL     1       8.653  21.071  54.570  1.00  0.00     0.042 A 
HETATM   31  C   UNL     1       9.143  22.085  55.389  1.00  0.00     0.003 A 
HETATM   32  C   UNL     1       8.849  23.421  55.101  1.00  0.00     0.007 A 
ENDBRANCH  25  26
ENDBRANCH   1  25
BRANCH   5  33
HETATM   33  C   UNL     1       8.586  28.414  57.036  1.00  0.00     0.140 C 
BRANCH  33  34
HETATM   34  C   UNL     1       7.679  29.107  58.065  1.00  0.00    -0.004 C 
HETATM   35  C   UNL     1       8.466  30.027  58.999  1.00  0.00     0.011 C 
HETATM   36  C   UNL     1       6.600  29.909  57.332  1.00  0.00     0.011 C 
ENDBRANCH  33  34
ENDBRANCH   5  33
TORSDOF 7
ENDMDL
MODEL 2
REMARK VINA RESULT:     -10.6      1.616      2.011
REMARK  7 active torsions:
REMARK  status: ('A' for Active; 'I' for Inactive)
REMARK    1  A    between atoms: C_8  and  C_9 
REMARK    2  A    between atoms: C_9  and  N_10 
REMARK    3  A    between atoms: C_14  and  C_15 
REMARK    4  A    between atoms: C_15  and  C_16 
REMARK    5  A    between atoms: C_16  and  C_17 
REMARK    6  A    between atoms: N_27  and  C_28 
REMARK    7  A    between atoms: C_28  and  C_29 
ROOT
HETATM    1  C   UNL     1       6.814  25.570  54.325  1.00  0.00     0.123 A 
HETATM    2  N   UNL     1       6.816  25.393  55.770  1.00  0.00    -0.324 N 
HETATM    3  C   UNL     1       7.205  26.513  56.465  1.00  0.00     0.326 A 
HETATM    4  O   UNL     1       7.275  26.574  57.677  1.00  0.00    -0.247 OA
HETATM    5  N   UNL     1       7.439  27.507  55.566  1.00  0.00    -0.268 N 
HETATM    6  C   UNL     1       7.249  27.051  54.295  1.00  0.00     0.257 A 
HETATM    7  O   UNL     1       7.347  27.723  53.277  1.00  0.00    -0.270 OA
HETATM    8  H   UNL     1       6.663  24.517  56.260  1.00  0.00     0.165 HD
ENDROOT
BRANCH   1   9
HETATM    9  C   UNL     1       5.369  25.314  53.766  1.00  0.00     0.027 C 
HETATM   10  C   UNL     1       5.243  24.798  52.322  1.00  0.00     0.035 C 
HETATM   11  C   UNL     1       5.357  25.840  51.218  1.00  0.00     0.235 C 
HETATM   12  N   UNL     1       4.534  27.072  51.494  1.00  0.00    -0.067 N 
HETATM   13  H   UNL     1       3.557  26.836  51.269  1.00  0.00     0.280 HD
HETATM   14  C   UNL     1       4.544  27.595  52.904  1.00  0.00     0.235 C 
HETATM   15  C   UNL     1       4.374  26.483  53.923  1.00  0.00     0.035 C 
BRANCH  12  16
HETATM   16  C   UNL     1       4.916  28.204  50.546  1.00  0.00     0.278 C 
BRANCH  16  17
HETATM   17  C   UNL     1       4.009  28.361  49.391  1.00  0.00     0.034 A 
HETATM   18  C   UNL     1       4.298  28.195  48.006  1.00  0.00     0.062 A 
HETATM   19  C   UNL     1       5.577  27.793  47.361  1.00  0.00     0.073 C 
HETATM   20  N   UNL     1       3.225  28.436  47.245  1.00  0.00    -0.176 NA
HETATM   21  N   UNL     1       2.265  28.812  48.111  1.00  0.00    -0.262 N 
HETATM   22  C   UNL     1       0.981  29.245  47.609  1.00  0.00     0.181 C 
HETATM   23  C   UNL     1       2.689  28.738  49.402  1.00  0.00     0.131 A 
HETATM   24 CL   UNL     1       1.654  29.101  50.702  1.00  0.00    -0.062 Cl
ENDBRANCH  16  17
ENDBRANCH  12  16
ENDBRANCH   1   9
BRANCH   1  25
HETATM   25  C   UNL     1       7.949  24.747  53.662  1.00  0.00     0.080 C 
BRANCH  25  26
HETATM   26  C   UNL     1       7.931  23.267  53.974  1.00  0.00    -0.052 A 
HETATM   27  C   UNL     1       7.944  22.801  55.294  1.00  0.00     0.049 A 
HETATM   28  C   UNL     1       7.943  21.431  55.550  1.00  0.00     0.116 A 
HETATM   29  F   UNL     1       7.968  21.006  56.820  1.00  0.00    -0.206 F 
HETATM   30  C   UNL     1       7.921  20.505  54.515  1.00  0.00     0.042 A 
HETATM   31  C   UNL     1       7.895  20.956  53.199  1.00  0.00     0.003 A 
HETATM   32  C   UNL     1       7.900  22.328  52.929  1.00  0.00     0.007 A 
ENDBRANCH  25  26
ENDBRANCH   1  25
BRANCH   5  33
HETATM   33  C   UNL     1       7.797  28.867  55.923  1.00  0.00     0.140 C 
BRANCH  33  34
HETATM   34  C   UNL     1       9.114  28.975  56.707  1.00  0.00    -0.004 C 
HETATM   35  C   UNL     1      10.202  29.694  55.908  1.00  0.00     0.011 C 
HETATM   36  C   UNL     1       8.863  29.712  58.025  1.00  0.00     0.011 C 
ENDBRANCH  33  34
ENDBRANCH   5  33
TORSDOF 7
ENDMDL
MODEL 3
REMARK VINA RESULT:     -10.1      1.863      2.275
REMARK  7 active torsions:
REMARK  status: ('A' for Active; 'I' for Inactive)
REMARK    1  A    between atoms: C_8  and  C_9 
REMARK    2  A    between atoms: C_9  and  N_10 
REMARK    3  A    between atoms: C_14  and  C_15 
REMARK    4  A    between atoms: C_15  and  C_16 
REMARK    5  A    between atoms: C_16  and  C_17 
REMARK    6  A    between atoms: N_27  and  C_28 
REMARK    7  A    between atoms: C_28  and  C_29 
ROOT
HETATM    1  C   UNL     1       6.926  24.853  54.865  1.00  0.00     0.123 A 
HETATM    2  N   UNL     1       6.045  24.738  56.017  1.00  0.00    -0.324 N 
HETATM    3  C   UNL     1       5.762  25.939  56.621  1.00  0.00     0.326 A 
HETATM    4  O   UNL     1       5.047  26.060  57.597  1.00  0.00    -0.247 OA
HETATM    5  N   UNL     1       6.376  26.923  55.911  1.00  0.00    -0.268 N 
HETATM    6  C   UNL     1       7.087  26.388  54.878  1.00  0.00     0.257 A 
HETATM    7  O   UNL     1       7.713  27.026  54.042  1.00  0.00    -0.270 OA
HETATM    8  H   UNL     1       5.733  23.868  56.440  1.00  0.00     0.165 HD
ENDROOT
BRANCH   1   9
HETATM    9  C   UNL     1       6.202  24.294  53.589  1.00  0.00     0.027 C 
HETATM   10  C   UNL     1       6.939  24.403  52.243  1.00  0.00     0.035 C 
HETATM   11  C   UNL     1       6.872  25.754  51.543  1.00  0.00     0.235 C 
HETATM   12  N   UNL     1       5.479  26.329  51.519  1.00  0.00    -0.067 N 
HETATM   13  H   UNL     1       4.966  25.837  50.774  1.00  0.00     0.280 HD
HETATM   14  C   UNL     1       4.665  26.192  52.776  1.00  0.00     0.235 C 
HETATM   15  C   UNL     1       4.760  24.796  53.365  1.00  0.00     0.035 C 
BRANCH  12  16
HETATM   16  C   UNL     1       5.505  27.797  51.105  1.00  0.00     0.278 C 
BRANCH  16  17
HETATM   17  C   UNL     1       4.343  28.220  50.299  1.00  0.00     0.034 A 
HETATM   18  C   UNL     1       4.020  27.872  48.955  1.00  0.00     0.062 A 
HETATM   19  C   UNL     1       4.749  26.971  48.024  1.00  0.00     0.073 C 
HETATM   20  N   UNL     1       2.890  28.461  48.550  1.00  0.00    -0.176 NA
HETATM   21  N   UNL     1       2.509  29.230  49.588  1.00  0.00    -0.262 N 
HETATM   22  C   UNL     1       1.358  30.093  49.453  1.00  0.00     0.181 C 
HETATM   23  C   UNL     1       3.332  29.077  50.661  1.00  0.00     0.131 A 
HETATM   24 CL   UNL     1       3.045  29.889  52.128  1.00  0.00    -0.062 Cl
ENDBRANCH  16  17
ENDBRANCH  12  16
ENDBRANCH   1   9
BRANCH   1  25
HETATM   25  C   UNL     1       8.321  24.246  55.168  1.00  0.00     0.080 C 
BRANCH  25  26
HETATM   26  C   UNL     1       8.376  22.734  55.157  1.00  0.00    -0.052 A 
HETATM   27  C   UNL     1       8.718  22.026  53.998  1.00  0.00     0.049 A 
HETATM   28  C   UNL     1       8.746  20.633  54.014  1.00  0.00     0.116 A 
HETATM   29  F   UNL     1       9.063  19.975  52.891  1.00  0.00    -0.206 F 
HETATM   30  C   UNL     1       8.448  19.921  55.168  1.00  0.00     0.042 A 
HETATM   31  C   UNL     1       8.119  20.613  56.330  1.00  0.00     0.003 A 
HETATM   32  C   UNL     1       8.084  22.010  56.325  1.00  0.00     0.007 A 
ENDBRANCH  25  26
ENDBRANCH   1  25
BRANCH   5  33
HETATM   33  C   UNL     1       6.250  28.340  56.196  1.00  0.00     0.140 C 
BRANCH  33  34
HETATM   34  C   UNL     1       7.073  28.802  57.409  1.00  0.00    -0.004 C 
HETATM   35  C   UNL     1       8.574  28.803  57.120  1.00  0.00     0.011 C 
HETATM   36  C   UNL     1       6.622  30.205  57.824  1.00  0.00     0.011 C 
ENDBRANCH  33  34
ENDBRANCH   5  33
TORSDOF 7
ENDMDL
MODEL 4
REMARK VINA RESULT:      -9.8      3.211      7.486
REMARK  7 active torsions:
REMARK  status: ('A' for Active; 'I' for Inactive)
REMARK    1  A    between atoms: C_8  and  C_9 
REMARK    2  A    between atoms: C_9  and  N_10 
REMARK    3  A    between atoms: C_14  and  C_15 
REMARK    4  A    between atoms: C_15  and  C_16 
REMARK    5  A    between atoms: C_16  and  C_17 
REMARK    6  A    between atoms: N_27  and  C_28 
REMARK    7  A    between atoms: C_28  and  C_29 
ROOT
HETATM    1  C   UNL     1       6.761  26.222  53.722  1.00  0.00     0.123 A 
HETATM    2  N   UNL     1       6.961  27.612  53.338  1.00  0.00    -0.324 N 
HETATM    3  C   UNL     1       6.148  28.024  52.309  1.00  0.00     0.326 A 
HETATM    4  O   UNL     1       6.159  29.145  51.839  1.00  0.00    -0.247 OA
HETATM    5  N   UNL     1       5.337  26.987  51.970  1.00  0.00    -0.268 N 
HETATM    6  C   UNL     1       5.627  25.891  52.729  1.00  0.00     0.257 A 
HETATM    7  O   UNL     1       5.039  24.819  52.681  1.00  0.00    -0.270 OA
HETATM    8  H   UNL     1       7.691  28.224  53.687  1.00  0.00     0.165 HD
ENDROOT
BRANCH   1   9
HETATM    9  C   UNL     1       6.335  26.149  55.231  1.00  0.00     0.027 C 
HETATM   10  C   UNL     1       4.978  26.760  55.621  1.00  0.00     0.035 C 
HETATM   11  C   UNL     1       4.944  28.271  55.808  1.00  0.00     0.235 C 
HETATM   12  N   UNL     1       6.097  28.780  56.634  1.00  0.00    -0.067 N 
HETATM   13  H   UNL     1       5.869  28.581  57.619  1.00  0.00     0.280 HD
HETATM   14  C   UNL     1       7.447  28.175  56.365  1.00  0.00     0.235 C 
HETATM   15  C   UNL     1       7.377  26.663  56.246  1.00  0.00     0.035 C 
BRANCH  12  16
HETATM   16  C   UNL     1       6.208  30.298  56.533  1.00  0.00     0.278 C 
BRANCH  16  17
HETATM   17  C   UNL     1       6.306  30.987  57.835  1.00  0.00     0.034 A 
HETATM   18  C   UNL     1       5.273  31.620  58.585  1.00  0.00     0.062 A 
HETATM   19  C   UNL     1       3.823  31.726  58.271  1.00  0.00     0.073 C 
HETATM   20  N   UNL     1       5.741  32.155  59.718  1.00  0.00    -0.176 NA
HETATM   21  N   UNL     1       7.069  31.930  59.683  1.00  0.00    -0.262 N 
HETATM   22  C   UNL     1       7.912  32.471  60.725  1.00  0.00     0.181 C 
HETATM   23  C   UNL     1       7.431  31.200  58.593  1.00  0.00     0.131 A 
HETATM   24 CL   UNL     1       9.044  30.725  58.335  1.00  0.00    -0.062 Cl
ENDBRANCH  16  17
ENDBRANCH  12  16
ENDBRANCH   1   9
BRANCH   1  25
HETATM   25  C   UNL     1       7.983  25.354  53.324  1.00  0.00     0.080 C 
BRANCH  25  26
HETATM   26  C   UNL     1       7.912  23.909  53.768  1.00  0.00    -0.052 A 
HETATM   27  C   UNL     1       7.975  22.860  52.843  1.00  0.00     0.049 A 
HETATM   28  C   UNL     1       7.891  21.539  53.279  1.00  0.00     0.116 A 
HETATM   29  F   UNL     1       7.940  20.550  52.377  1.00  0.00    -0.206 F 
HETATM   30  C   UNL     1       7.755  21.234  54.627  1.00  0.00     0.042 A 
HETATM   31  C   UNL     1       7.705  22.268  55.558  1.00  0.00     0.003 A 
HETATM   32  C   UNL     1       7.784  23.597  55.132  1.00  0.00     0.007 A 
ENDBRANCH  25  26
ENDBRANCH   1  25
BRANCH   5  33
HETATM   33  C   UNL     1       4.287  27.060  50.972  1.00  0.00     0.140 C 
BRANCH  33  34
HETATM   34  C   UNL     1       4.754  26.692  49.554  1.00  0.00    -0.004 C 
HETATM   35  C   UNL     1       3.732  25.825  48.819  1.00  0.00     0.011 C 
HETATM   36  C   UNL     1       5.018  27.973  48.758  1.00  0.00     0.011 C 
ENDBRANCH  33  34
ENDBRANCH   5  33
TORSDOF 7
ENDMDL
MODEL 5
REMARK VINA RESULT:      -9.7      3.348      7.178
REMARK  7 active torsions:
REMARK  status: ('A' for Active; 'I' for Inactive)
REMARK    1  A    between atoms: C_8  and  C_9 
REMARK    2  A    between atoms: C_9  and  N_10 
REMARK    3  A    between atoms: C_14  and  C_15 
REMARK    4  A    between atoms: C_15  and  C_16 
REMARK    5  A    between atoms: C_16  and  C_17 
REMARK    6  A    between atoms: N_27  and  C_28 
REMARK    7  A    between atoms: C_28  and  C_29 
ROOT
HETATM    1  C   UNL     1       5.283  27.834  52.610  1.00  0.00     0.123 A 
HETATM    2  N   UNL     1       6.735  27.928  52.587  1.00  0.00    -0.324 N 
HETATM    3  C   UNL     1       7.282  28.351  53.775  1.00  0.00     0.326 A 
HETATM    4  O   UNL     1       8.474  28.496  53.963  1.00  0.00    -0.247 OA
HETATM    5  N   UNL     1       6.271  28.522  54.668  1.00  0.00    -0.268 N 
HETATM    6  C   UNL     1       5.069  28.256  54.079  1.00  0.00     0.257 A 
HETATM    7  O   UNL     1       3.982  28.286  54.640  1.00  0.00    -0.270 OA
HETATM    8  H   UNL     1       7.324  27.811  51.768  1.00  0.00     0.165 HD
ENDROOT
BRANCH   1   9
HETATM    9  C   UNL     1       4.845  26.359  52.296  1.00  0.00     0.027 C 
HETATM   10  C   UNL     1       4.689  25.392  53.482  1.00  0.00     0.035 C 
HETATM   11  C   UNL     1       5.971  24.771  54.021  1.00  0.00     0.235 C 
HETATM   12  N   UNL     1       6.868  24.250  52.928  1.00  0.00    -0.067 N 
HETATM   13  H   UNL     1       6.475  23.348  52.622  1.00  0.00     0.280 HD
HETATM   14  C   UNL     1       7.012  25.104  51.699  1.00  0.00     0.235 C 
HETATM   15  C   UNL     1       5.673  25.631  51.216  1.00  0.00     0.035 C 
BRANCH  12  16
HETATM   16  C   UNL     1       8.258  23.932  53.473  1.00  0.00     0.278 C 
BRANCH  16  17
HETATM   17  C   UNL     1       8.290  22.819  54.443  1.00  0.00     0.034 A 
HETATM   18  C   UNL     1       8.092  21.429  54.206  1.00  0.00     0.062 A 
HETATM   19  C   UNL     1       7.832  20.729  52.920  1.00  0.00     0.073 C 
HETATM   20  N   UNL     1       8.181  20.717  55.335  1.00  0.00    -0.176 NA
HETATM   21  N   UNL     1       8.373  21.632  56.306  1.00  0.00    -0.262 N 
HETATM   22  C   UNL     1       8.416  21.208  57.686  1.00  0.00     0.181 C 
HETATM   23  C   UNL     1       8.484  22.891  55.801  1.00  0.00     0.131 A 
HETATM   24 CL   UNL     1       8.789  24.230  56.804  1.00  0.00    -0.062 Cl
ENDBRANCH  16  17
ENDBRANCH  12  16
ENDBRANCH   1   9
BRANCH   1  25
HETATM   25  C   UNL     1       4.640  28.931  51.722  1.00  0.00     0.080 C 
BRANCH  25  26
HETATM   26  C   UNL     1       4.422  28.538  50.278  1.00  0.00    -0.052 A 
HETATM   27  C   UNL     1       3.173  28.096  49.824  1.00  0.00     0.049 A 
HETATM   28  C   UNL     1       3.006  27.726  48.491  1.00  0.00     0.116 A 
HETATM   29  F   UNL     1       1.807  27.292  48.081  1.00  0.00    -0.206 F 
HETATM   30  C   UNL     1       4.058  27.795  47.588  1.00  0.00     0.042 A 
HETATM   31  C   UNL     1       5.301  28.246  48.023  1.00  0.00     0.003 A 
HETATM   32  C   UNL     1       5.482  28.616  49.359  1.00  0.00     0.007 A 
ENDBRANCH  25  26
ENDBRANCH   1  25
BRANCH   5  33
HETATM   33  C   UNL     1       6.458  28.891  56.058  1.00  0.00     0.140 C 
BRANCH  33  34
HETATM   34  C   UNL     1       7.232  27.846  56.877  1.00  0.00    -0.004 C 
HETATM   35  C   UNL     1       7.854  28.447  58.138  1.00  0.00     0.011 C 
HETATM   36  C   UNL     1       6.290  26.700  57.257  1.00  0.00     0.011 C 
ENDBRANCH  33  34
ENDBRANCH   5  33
TORSDOF 7
ENDMDL
MODEL 6
REMARK VINA RESULT:      -9.6      3.309      7.054
REMARK  7 active torsions:
REMARK  status: ('A' for Active; 'I' for Inactive)
REMARK    1  A    between atoms: C_8  and  C_9 
REMARK    2  A    between atoms: C_9  and  N_10 
REMARK    3  A    between atoms: C_14  and  C_15 
REMARK    4  A    between atoms: C_15  and  C_16 
REMARK    5  A    between atoms: C_16  and  C_17 
REMARK    6  A    between atoms: N_27  and  C_28 
REMARK    7  A    between atoms: C_28  and  C_29 
ROOT
HETATM    1  C   UNL     1       5.293  28.115  53.389  1.00  0.00     0.123 A 
HETATM    2  N   UNL     1       6.729  28.282  53.218  1.00  0.00    -0.324 N 
HETATM    3  C   UNL     1       7.414  28.435  54.399  1.00  0.00     0.326 A 
HETATM    4  O   UNL     1       8.617  28.590  54.474  1.00  0.00    -0.247 OA
HETATM    5  N   UNL     1       6.521  28.338  55.421  1.00  0.00    -0.268 N 
HETATM    6  C   UNL     1       5.260  28.162  54.932  1.00  0.00     0.257 A 
HETATM    7  O   UNL     1       4.252  28.003  55.608  1.00  0.00    -0.270 OA
HETATM    8  H   UNL     1       7.210  28.394  52.331  1.00  0.00     0.165 HD
ENDROOT
BRANCH   1   9
HETATM    9  C   UNL     1       4.847  26.738  52.780  1.00  0.00     0.027 C 
HETATM   10  C   UNL     1       4.685  25.549  53.743  1.00  0.00     0.035 C 
HETATM   11  C   UNL     1       5.962  24.823  54.142  1.00  0.00     0.235 C 
HETATM   12  N   UNL     1       6.858  24.532  52.965  1.00  0.00    -0.067 N 
HETATM   13  H   UNL     1       6.459  23.714  52.481  1.00  0.00     0.280 HD
HETATM   14  C   UNL     1       7.007  25.620  51.937  1.00  0.00     0.235 C 
HETATM   15  C   UNL     1       5.671  26.242  51.574  1.00  0.00     0.035 C 
BRANCH  12  16
HETATM   16  C   UNL     1       8.245  24.101  53.432  1.00  0.00     0.278 C 
BRANCH  16  17
HETATM   17  C   UNL     1       8.237  23.103  54.520  1.00  0.00     0.034 A 
HETATM   18  C   UNL     1       8.438  23.309  55.915  1.00  0.00     0.062 A 
HETATM   19  C   UNL     1       8.678  24.582  56.645  1.00  0.00     0.073 C 
HETATM   20  N   UNL     1       8.374  22.161  56.599  1.00  0.00    -0.176 NA
HETATM   21  N   UNL     1       8.194  21.211  55.662  1.00  0.00    -0.262 N 
HETATM   22  C   UNL     1       8.179  19.819  56.051  1.00  0.00     0.181 C 
HETATM   23  C   UNL     1       8.068  21.744  54.416  1.00  0.00     0.131 A 
HETATM   24 CL   UNL     1       7.773  20.768  53.054  1.00  0.00    -0.062 Cl
ENDBRANCH  16  17
ENDBRANCH  12  16
ENDBRANCH   1   9
BRANCH   1  25
HETATM   25  C   UNL     1       4.522  29.359  52.878  1.00  0.00     0.080 C 
BRANCH  25  26
HETATM   26  C   UNL     1       4.158  29.327  51.410  1.00  0.00    -0.052 A 
HETATM   27  C   UNL     1       2.872  28.972  50.986  1.00  0.00     0.049 A 
HETATM   28  C   UNL     1       2.570  28.936  49.627  1.00  0.00     0.116 A 
HETATM   29  F   UNL     1       1.337  28.581  49.242  1.00  0.00    -0.206 F 
HETATM   30  C   UNL     1       3.523  29.258  48.669  1.00  0.00     0.042 A 
HETATM   31  C   UNL     1       4.801  29.626  49.078  1.00  0.00     0.003 A 
HETATM   32  C   UNL     1       5.118  29.661  50.439  1.00  0.00     0.007 A 
ENDBRANCH  25  26
ENDBRANCH   1  25
BRANCH   5  33
HETATM   33  C   UNL     1       6.877  28.373  56.827  1.00  0.00     0.140 C 
BRANCH  33  34
HETATM   34  C   UNL     1       7.167  29.786  57.356  1.00  0.00    -0.004 C 
HETATM   35  C   UNL     1       5.888  30.533  57.735  1.00  0.00     0.011 C 
HETATM   36  C   UNL     1       8.095  29.694  58.570  1.00  0.00     0.011 C 
ENDBRANCH  33  34
ENDBRANCH   5  33
TORSDOF 7
ENDMDL
MODEL 7
REMARK VINA RESULT:      -9.6      3.442      7.345
REMARK  7 active torsions:
REMARK  status: ('A' for Active; 'I' for Inactive)
REMARK    1  A    between atoms: C_8  and  C_9 
REMARK    2  A    between atoms: C_9  and  N_10 
REMARK    3  A    between atoms: C_14  and  C_15 
REMARK    4  A    between atoms: C_15  and  C_16 
REMARK    5  A    between atoms: C_16  and  C_17 
REMARK    6  A    between atoms: N_27  and  C_28 
REMARK    7  A    between atoms: C_28  and  C_29 
ROOT
HETATM    1  C   UNL     1       5.212  27.800  52.284  1.00  0.00     0.123 A 
HETATM    2  N   UNL     1       6.390  28.044  53.103  1.00  0.00    -0.324 N 
HETATM    3  C   UNL     1       6.107  28.572  54.339  1.00  0.00     0.326 A 
HETATM    4  O   UNL     1       6.948  28.849  55.172  1.00  0.00    -0.247 OA
HETATM    5  N   UNL     1       4.756  28.674  54.455  1.00  0.00    -0.268 N 
HETATM    6  C   UNL     1       4.149  28.260  53.305  1.00  0.00     0.257 A 
HETATM    7  O   UNL     1       2.941  28.200  53.122  1.00  0.00    -0.270 OA
HETATM    8  H   UNL     1       7.354  27.954  52.796  1.00  0.00     0.165 HD
ENDROOT
BRANCH   1   9
HETATM    9  C   UNL     1       5.132  26.275  51.917  1.00  0.00     0.027 C 
HETATM   10  C   UNL     1       4.736  25.292  53.032  1.00  0.00     0.035 C 
HETATM   11  C   UNL     1       5.841  24.880  53.995  1.00  0.00     0.235 C 
HETATM   12  N   UNL     1       7.120  24.511  53.288  1.00  0.00    -0.067 N 
HETATM   13  H   UNL     1       6.992  23.560  52.915  1.00  0.00     0.280 HD
HETATM   14  C   UNL     1       7.536  25.382  52.135  1.00  0.00     0.235 C 
HETATM   15  C   UNL     1       6.372  25.692  51.210  1.00  0.00     0.035 C 
BRANCH  12  16
HETATM   16  C   UNL     1       8.278  24.416  54.277  1.00  0.00     0.278 C 
BRANCH  16  17
HETATM   17  C   UNL     1       8.256  23.207  55.123  1.00  0.00     0.034 A 
HETATM   18  C   UNL     1       8.462  23.103  56.529  1.00  0.00     0.062 A 
HETATM   19  C   UNL     1       8.723  24.184  57.516  1.00  0.00     0.073 C 
HETATM   20  N   UNL     1       8.381  21.835  56.949  1.00  0.00    -0.176 NA
HETATM   21  N   UNL     1       8.185  21.113  55.829  1.00  0.00    -0.262 N 
HETATM   22  C   UNL     1       8.149  19.670  55.908  1.00  0.00     0.181 C 
HETATM   23  C   UNL     1       8.065  21.905  54.728  1.00  0.00     0.131 A 
HETATM   24 CL   UNL     1       7.754  21.251  53.189  1.00  0.00    -0.062 Cl
ENDBRANCH  16  17
ENDBRANCH  12  16
ENDBRANCH   1   9
BRANCH   1  25
HETATM   25  C   UNL     1       5.152  28.785  51.088  1.00  0.00     0.080 C 
BRANCH  25  26
HETATM   26  C   UNL     1       4.447  28.256  49.859  1.00  0.00    -0.052 A 
HETATM   27  C   UNL     1       3.050  28.181  49.795  1.00  0.00     0.049 A 
HETATM   28  C   UNL     1       2.430  27.675  48.655  1.00  0.00     0.116 A 
HETATM   29  F   UNL     1       1.093  27.600  48.620  1.00  0.00    -0.206 F 
HETATM   30  C   UNL     1       3.171  27.245  47.563  1.00  0.00     0.042 A 
HETATM   31  C   UNL     1       4.560  27.326  47.608  1.00  0.00     0.003 A 
HETATM   32  C   UNL     1       5.195  27.829  48.748  1.00  0.00     0.007 A 
ENDBRANCH  25  26
ENDBRANCH   1  25
BRANCH   5  33
HETATM   33  C   UNL     1       4.066  29.121  55.651  1.00  0.00     0.140 C 
BRANCH  33  34
HETATM   34  C   UNL     1       4.042  30.648  55.817  1.00  0.00    -0.004 C 
HETATM   35  C   UNL     1       2.837  31.283  55.124  1.00  0.00     0.011 C 
HETATM   36  C   UNL     1       4.029  30.997  57.308  1.00  0.00     0.011 C 
ENDBRANCH  33  34
ENDBRANCH   5  33
TORSDOF 7
ENDMDL
MODEL 8
REMARK VINA RESULT:      -9.3      1.929      2.696
REMARK  7 active torsions:
REMARK  status: ('A' for Active; 'I' for Inactive)
REMARK    1  A    between atoms: C_8  and  C_9 
REMARK    2  A    between atoms: C_9  and  N_10 
REMARK    3  A    between atoms: C_14  and  C_15 
REMARK    4  A    between atoms: C_15  and  C_16 
REMARK    5  A    between atoms: C_16  and  C_17 
REMARK    6  A    between atoms: N_27  and  C_28 
REMARK    7  A    between atoms: C_28  and  C_29 
ROOT
HETATM    1  C   UNL     1       6.413  25.916  55.067  1.00  0.00     0.123 A 
HETATM    2  N   UNL     1       5.115  26.571  54.993  1.00  0.00    -0.324 N 
HETATM    3  C   UNL     1       4.936  27.554  55.936  1.00  0.00     0.326 A 
HETATM    4  O   UNL     1       3.924  28.219  56.045  1.00  0.00    -0.247 OA
HETATM    5  N   UNL     1       6.083  27.659  56.660  1.00  0.00    -0.268 N 
HETATM    6  C   UNL     1       6.996  26.739  56.235  1.00  0.00     0.257 A 
HETATM    7  O   UNL     1       8.134  26.617  56.668  1.00  0.00    -0.270 OA
HETATM    8  H   UNL     1       4.343  26.291  54.395  1.00  0.00     0.165 HD
ENDROOT
BRANCH   1   9
HETATM    9  C   UNL     1       7.175  26.102  53.707  1.00  0.00     0.027 C 
HETATM   10  C   UNL     1       7.467  27.539  53.242  1.00  0.00     0.035 C 
HETATM   11  C   UNL     1       6.320  28.277  52.564  1.00  0.00     0.235 C 
HETATM   12  N   UNL     1       5.620  27.436  51.528  1.00  0.00    -0.067 N 
HETATM   13  H   UNL     1       6.216  27.440  50.687  1.00  0.00     0.280 HD
HETATM   14  C   UNL     1       5.368  25.995  51.878  1.00  0.00     0.235 C 
HETATM   15  C   UNL     1       6.587  25.341  52.501  1.00  0.00     0.035 C 
BRANCH  12  16
HETATM   16  C   UNL     1       4.303  28.079  51.105  1.00  0.00     0.278 C 
BRANCH  16  17
HETATM   17  C   UNL     1       4.226  28.419  49.671  1.00  0.00     0.034 A 
HETATM   18  C   UNL     1       3.957  27.559  48.568  1.00  0.00     0.062 A 
HETATM   19  C   UNL     1       3.653  26.103  48.572  1.00  0.00     0.073 C 
HETATM   20  N   UNL     1       3.982  28.221  47.406  1.00  0.00    -0.176 NA
HETATM   21  N   UNL     1       4.322  29.483  47.735  1.00  0.00    -0.262 N 
HETATM   22  C   UNL     1       4.537  30.459  46.692  1.00  0.00     0.181 C 
HETATM   23  C   UNL     1       4.434  29.642  49.082  1.00  0.00     0.131 A 
HETATM   24 CL   UNL     1       4.797  31.153  49.773  1.00  0.00    -0.062 Cl
ENDBRANCH  16  17
ENDBRANCH  12  16
ENDBRANCH   1   9
BRANCH   1  25
HETATM   25  C   UNL     1       6.271  24.454  55.565  1.00  0.00     0.080 C 
BRANCH  25  26
HETATM   26  C   UNL     1       7.364  23.514  55.108  1.00  0.00    -0.052 A 
HETATM   27  C   UNL     1       7.188  22.677  53.999  1.00  0.00     0.049 A 
HETATM   28  C   UNL     1       8.207  21.810  53.611  1.00  0.00     0.116 A 
HETATM   29  F   UNL     1       8.014  21.008  52.555  1.00  0.00    -0.206 F 
HETATM   30  C   UNL     1       9.412  21.761  54.299  1.00  0.00     0.042 A 
HETATM   31  C   UNL     1       9.604  22.598  55.395  1.00  0.00     0.003 A 
HETATM   32  C   UNL     1       8.588  23.469  55.797  1.00  0.00     0.007 A 
ENDBRANCH  25  26
ENDBRANCH   1  25
BRANCH   5  33
HETATM   33  C   UNL     1       6.307  28.642  57.703  1.00  0.00     0.140 C 
BRANCH  33  34
HETATM   34  C   UNL     1       6.946  29.945  57.197  1.00  0.00    -0.004 C 
HETATM   35  C   UNL     1       6.177  31.182  57.663  1.00  0.00     0.011 C 
HETATM   36  C   UNL     1       8.396  30.021  57.682  1.00  0.00     0.011 C 
ENDBRANCH  33  34
ENDBRANCH   5  33
TORSDOF 7
ENDMDL
MODEL 9
REMARK VINA RESULT:      -9.2      4.778      7.489
REMARK  7 active torsions:
REMARK  status: ('A' for Active; 'I' for Inactive)
REMARK    1  A    between atoms: C_8  and  C_9 
REMARK    2  A    between atoms: C_9  and  N_10 
REMARK    3  A    between atoms: C_14  and  C_15 
REMARK    4  A    between atoms: C_15  and  C_16 
REMARK    5  A    between atoms: C_16  and  C_17 
REMARK    6  A    between atoms: N_27  and  C_28 
REMARK    7  A    between atoms: C_28  and  C_29 
ROOT
HETATM    1  C   UNL     1       5.815  28.412  57.065  1.00  0.00     0.123 A 
HETATM    2  N   UNL     1       4.876  29.024  57.994  1.00  0.00    -0.324 N 
HETATM    3  C   UNL     1       4.691  30.370  57.788  1.00  0.00     0.326 A 
HETATM    4  O   UNL     1       3.951  31.066  58.454  1.00  0.00    -0.247 OA
HETATM    5  N   UNL     1       5.433  30.738  56.709  1.00  0.00    -0.268 N 
HETATM    6  C   UNL     1       6.130  29.669  56.227  1.00  0.00     0.257 A 
HETATM    7  O   UNL     1       6.854  29.680  55.240  1.00  0.00    -0.270 OA
HETATM    8  H   UNL     1       4.460  28.570  58.801  1.00  0.00     0.165 HD
ENDROOT
BRANCH   1   9
HETATM    9  C   UNL     1       5.093  27.270  56.264  1.00  0.00     0.027 C 
HETATM   10  C   UNL     1       4.849  25.934  56.986  1.00  0.00     0.035 C 
HETATM   11  C   UNL     1       6.030  24.976  57.055  1.00  0.00     0.235 C 
HETATM   12  N   UNL     1       6.737  24.829  55.732  1.00  0.00    -0.067 N 
HETATM   13  H   UNL     1       6.164  24.195  55.155  1.00  0.00     0.280 HD
HETATM   14  C   UNL     1       6.945  26.083  54.928  1.00  0.00     0.235 C 
HETATM   15  C   UNL     1       5.694  26.941  54.882  1.00  0.00     0.035 C 
BRANCH  12  16
HETATM   16  C   UNL     1       8.080  24.128  55.908  1.00  0.00     0.278 C 
BRANCH  16  17
HETATM   17  C   UNL     1       8.148  22.784  55.300  1.00  0.00     0.034 A 
HETATM   18  C   UNL     1       8.304  21.524  55.946  1.00  0.00     0.062 A 
HETATM   19  C   UNL     1       8.409  21.227  57.399  1.00  0.00     0.073 C 
HETATM   20  N   UNL     1       8.338  20.518  55.065  1.00  0.00    -0.176 NA
HETATM   21  N   UNL     1       8.266  21.112  53.859  1.00  0.00    -0.262 N 
HETATM   22  C   UNL     1       8.377  20.311  52.661  1.00  0.00     0.181 C 
HETATM   23  C   UNL     1       8.111  22.460  53.966  1.00  0.00     0.131 A 
HETATM   24 CL   UNL     1       7.935  23.449  52.593  1.00  0.00    -0.062 Cl
ENDBRANCH  16  17
ENDBRANCH  12  16
ENDBRANCH   1   9
BRANCH   1  25
HETATM   25  C   UNL     1       7.125  28.003  57.786  1.00  0.00     0.080 C 
BRANCH  25  26
HETATM   26  C   UNL     1       8.184  29.082  57.848  1.00  0.00    -0.052 A 
HETATM   27  C   UNL     1       8.081  30.154  58.744  1.00  0.00     0.049 A 
HETATM   28  C   UNL     1       9.063  31.141  58.767  1.00  0.00     0.116 A 
HETATM   29  F   UNL     1       8.939  32.164  59.622  1.00  0.00    -0.206 F 
HETATM   30  C   UNL     1      10.162  31.083  57.920  1.00  0.00     0.042 A 
HETATM   31  C   UNL     1      10.283  30.016  57.035  1.00  0.00     0.003 A 
HETATM   32  C   UNL     1       9.302  29.021  56.999  1.00  0.00     0.007 A 
ENDBRANCH  25  26
ENDBRANCH   1  25
BRANCH   5  33
HETATM   33  C   UNL     1       5.440  32.070  56.134  1.00  0.00     0.140 C 
BRANCH  33  34
HETATM   34  C   UNL     1       4.123  32.451  55.439  1.00  0.00    -0.004 C 
HETATM   35  C   UNL     1       3.870  33.958  55.472  1.00  0.00     0.011 C 
HETATM   36  C   UNL     1       4.152  31.959  53.990  1.00  0.00     0.011 C 
ENDBRANCH  33  34
ENDBRANCH   5  33
TORSDOF 7
ENDMDL
MODEL 10
REMARK VINA RESULT:      -9.2      3.601      8.458
REMARK  7 active torsions:
REMARK  status: ('A' for Active; 'I' for Inactive)
REMARK    1  A    between atoms: C_8  and  C_9 
REMARK    2  A    between atoms: C_9  and  N_10 
REMARK    3  A    between atoms: C_14  and  C_15 
REMARK    4  A    between atoms: C_15  and  C_16 
REMARK    5  A    between atoms: C_16  and  C_17 
REMARK    6  A    between atoms: N_27  and  C_28 
REMARK    7  A    between atoms: C_28  and  C_29 
ROOT
HETATM    1  C   UNL     1       5.020  27.901  53.532  1.00  0.00     0.123 A 
HETATM    2  N   UNL     1       4.206  26.744  53.192  1.00  0.00    -0.324 N 
HETATM    3  C   UNL     1       4.923  25.578  53.074  1.00  0.00     0.326 A 
HETATM    4  O   UNL     1       4.433  24.501  52.795  1.00  0.00    -0.247 OA
HETATM    5  N   UNL     1       6.224  25.851  53.362  1.00  0.00    -0.268 N 
HETATM    6  C   UNL     1       6.381  27.179  53.630  1.00  0.00     0.257 A 
HETATM    7  O   UNL     1       7.429  27.718  53.961  1.00  0.00    -0.270 OA
HETATM    8  H   UNL     1       3.221  26.763  52.947  1.00  0.00     0.165 HD
ENDROOT
BRANCH   1   9
HETATM    9  C   UNL     1       4.521  28.517  54.888  1.00  0.00     0.027 C 
HETATM   10  C   UNL     1       5.038  29.913  55.272  1.00  0.00     0.035 C 
HETATM   11  C   UNL     1       6.427  29.973  55.894  1.00  0.00     0.235 C 
HETATM   12  N   UNL     1       6.627  28.935  56.969  1.00  0.00    -0.067 N 
HETATM   13  H   UNL     1       6.155  29.286  57.815  1.00  0.00     0.280 HD
HETATM   14  C   UNL     1       6.079  27.561  56.700  1.00  0.00     0.235 C 
HETATM   15  C   UNL     1       4.673  27.613  56.129  1.00  0.00     0.035 C 
BRANCH  12  16
HETATM   16  C   UNL     1       8.102  28.814  57.339  1.00  0.00     0.278 C 
BRANCH  16  17
HETATM   17  C   UNL     1       8.656  29.999  58.023  1.00  0.00     0.034 A 
HETATM   18  C   UNL     1       9.992  30.493  58.002  1.00  0.00     0.062 A 
HETATM   19  C   UNL     1      11.171  29.965  57.265  1.00  0.00     0.073 C 
HETATM   20  N   UNL     1      10.127  31.588  58.758  1.00  0.00    -0.176 NA
HETATM   21  N   UNL     1       8.914  31.775  59.314  1.00  0.00    -0.262 N 
HETATM   22  C   UNL     1       8.727  32.834  60.280  1.00  0.00     0.181 C 
HETATM   23  C   UNL     1       8.005  30.868  58.863  1.00  0.00     0.131 A 
HETATM   24 CL   UNL     1       6.379  30.915  59.361  1.00  0.00    -0.062 Cl
ENDBRANCH  16  17
ENDBRANCH  12  16
ENDBRANCH   1   9
BRANCH   1  25
HETATM   25  C   UNL     1       5.112  28.887  52.338  1.00  0.00     0.080 C 
BRANCH  25  26
HETATM   26  C   UNL     1       4.024  28.734  51.298  1.00  0.00    -0.052 A 
HETATM   27  C   UNL     1       4.249  28.034  50.107  1.00  0.00     0.049 A 
HETATM   28  C   UNL     1       3.233  27.923  49.160  1.00  0.00     0.116 A 
HETATM   29  F   UNL     1       3.473  27.261  48.021  1.00  0.00    -0.206 F 
HETATM   30  C   UNL     1       1.984  28.489  49.376  1.00  0.00     0.042 A 
HETATM   31  C   UNL     1       1.743  29.177  50.562  1.00  0.00     0.003 A 
HETATM   32  C   UNL     1       2.756  29.298  51.518  1.00  0.00     0.007 A 
ENDBRANCH  25  26
ENDBRANCH   1  25
BRANCH   5  33
HETATM   33  C   UNL     1       7.278  24.855  53.417  1.00  0.00     0.140 C 
BRANCH  33  34
HETATM   34  C   UNL     1       7.181  23.918  54.631  1.00  0.00    -0.004 C 
HETATM   35  C   UNL     1       7.659  22.502  54.305  1.00  0.00     0.011 C 
HETATM   36  C   UNL     1       8.006  24.493  55.785  1.00  0.00     0.011 C 
ENDBRANCH  33  34
ENDBRANCH   5  33
TORSDOF 7
ENDMDL
