MODEL 1
REMARK VINA RESULT:      -9.6      0.000      0.000
REMARK  8 active torsions:
REMARK  status: ('A' for Active; 'I' for Inactive)
REMARK    1  A    between atoms: C_2  and  O_3 
REMARK    2  A    between atoms: O_3  and  C_4 
REMARK    3  A    between atoms: C_7  and  N_8 
REMARK       I    between atoms: N_8  and  C_9 
REMARK    4  A    between atoms: C_9  and  C_10 
REMARK    5  A    between atoms: C_10  and  N_11 
REMARK    6  A    between atoms: C_14  and  C_15 
REMARK       I    between atoms: C_15  and  N_16 
REMARK    7  A    between atoms: N_16  and  C_17 
REMARK    8  A    between atoms: C_25  and  N_26 
ROOT
HETATM    1  N   UNL     1       8.313  28.211  56.550  1.00  0.00    -0.248 N 
HETATM    2  N   UNL     1       8.357  27.737  57.816  1.00  0.00     0.007 NA
HETATM    3  N   UNL     1       7.977  26.468  57.777  1.00  0.00    -0.150 NA
HETATM    4  C   UNL     1       7.661  26.149  56.472  1.00  0.00     0.187 A 
HETATM    5  C   UNL     1       7.821  27.273  55.679  1.00  0.00     0.151 A 
ENDROOT
BRANCH   1   6
HETATM    6  C   UNL     1       8.889  29.501  56.263  1.00  0.00     0.251 C 
BRANCH   6   7
HETATM    7  C   UNL     1       9.225  30.269  57.517  1.00  0.00     0.241 C 
HETATM    8  N   UNL     1       8.119  30.603  58.283  1.00  0.00    -0.326 N 
HETATM    9  H   UNL     1       7.210  30.536  57.829  1.00  0.00     0.169 HD
HETATM   10  O   UNL     1      10.400  30.489  57.807  1.00  0.00    -0.271 OA
BRANCH   8  11
HETATM   11  C   UNL     1       8.115  31.095  59.604  1.00  0.00     0.034 A 
HETATM   12  C   UNL     1       7.354  32.184  60.024  1.00  0.00     0.032 A 
HETATM   13  C   UNL     1       7.449  32.645  61.343  1.00  0.00     0.039 A 
HETATM   14  C   UNL     1       8.293  32.022  62.262  1.00  0.00     0.068 A 
HETATM   15  C   UNL     1       9.050  30.929  61.850  1.00  0.00     0.039 A 
HETATM   16  C   UNL     1       8.965  30.472  60.527  1.00  0.00     0.032 A 
BRANCH  14  17
HETATM   17  O   UNL     1       8.294  32.583  63.508  1.00  0.00    -0.352 OA
BRANCH  17  18
HETATM   18  C   UNL     1       7.026  32.847  64.105  1.00  0.00     0.171 C 
HETATM   19  C   UNL     1       7.228  33.899  65.182  1.00  0.00     0.034 C 
ENDBRANCH  17  18
ENDBRANCH  14  17
ENDBRANCH   8  11
ENDBRANCH   6   7
ENDBRANCH   1   6
BRANCH   5  20
HETATM   20  N   UNL     1       7.635  27.496  54.356  1.00  0.00    -0.382 N 
HETATM   21  H   UNL     1       7.736  26.698  53.720  1.00  0.00     0.157 HD
HETATM   22  H   UNL     1       6.966  28.179  54.004  1.00  0.00     0.157 HD
ENDBRANCH   5  20
BRANCH   4  23
HETATM   23  C   UNL     1       7.246  24.812  56.059  1.00  0.00     0.280 C 
HETATM   24  N   UNL     1       8.308  24.056  55.597  1.00  0.00    -0.320 N 
HETATM   25  H   UNL     1       9.219  24.393  55.889  1.00  0.00     0.169 HD
HETATM   26  O   UNL     1       6.088  24.427  56.183  1.00  0.00    -0.265 OA
BRANCH  24  27
HETATM   27  C   UNL     1       8.246  22.776  55.003  1.00  0.00     0.057 A 
HETATM   28  C   UNL     1       8.344  21.546  55.678  1.00  0.00     0.060 A 
HETATM   29 CL   UNL     1       8.323  21.390  57.402  1.00  0.00    -0.082 Cl
HETATM   30  C   UNL     1       8.280  20.344  54.959  1.00  0.00     0.026 A 
HETATM   31  C   UNL     1       8.088  20.350  53.579  1.00  0.00     0.002 A 
HETATM   32  C   UNL     1       7.935  21.560  52.911  1.00  0.00     0.002 A 
HETATM   33  C   UNL     1       8.002  22.762  53.619  1.00  0.00     0.031 A 
ENDBRANCH  24  27
ENDBRANCH   4  23
TORSDOF 8
ENDMDL
MODEL 2
REMARK VINA RESULT:      -9.6      1.133      1.693
REMARK  8 active torsions:
REMARK  status: ('A' for Active; 'I' for Inactive)
REMARK    1  A    between atoms: C_2  and  O_3 
REMARK    2  A    between atoms: O_3  and  C_4 
REMARK    3  A    between atoms: C_7  and  N_8 
REMARK       I    between atoms: N_8  and  C_9 
REMARK    4  A    between atoms: C_9  and  C_10 
REMARK    5  A    between atoms: C_10  and  N_11 
REMARK    6  A    between atoms: C_14  and  C_15 
REMARK       I    between atoms: C_15  and  N_16 
REMARK    7  A    between atoms: N_16  and  C_17 
REMARK    8  A    between atoms: C_25  and  N_26 
ROOT
HETATM    1  N   UNL     1       8.170  28.425  56.757  1.00  0.00    -0.248 N 
HETATM    2  N   UNL     1       8.196  27.852  57.981  1.00  0.00     0.007 NA
HETATM    3  N   UNL     1       7.787  26.600  57.841  1.00  0.00    -0.150 NA
HETATM    4  C   UNL     1       7.470  26.392  56.514  1.00  0.00     0.187 A 
HETATM    5  C   UNL     1       7.660  27.571  55.813  1.00  0.00     0.151 A 
ENDROOT
BRANCH   1   6
HETATM    6  C   UNL     1       8.777  29.720  56.574  1.00  0.00     0.251 C 
BRANCH   6   7
HETATM    7  C   UNL     1       9.144  30.370  57.886  1.00  0.00     0.241 C 
HETATM    8  N   UNL     1       8.051  30.789  58.628  1.00  0.00    -0.326 N 
HETATM    9  H   UNL     1       7.162  30.857  58.136  1.00  0.00     0.169 HD
HETATM   10  O   UNL     1      10.322  30.432  58.233  1.00  0.00    -0.271 OA
BRANCH   8  11
HETATM   11  C   UNL     1       8.045  31.201  59.976  1.00  0.00     0.034 A 
HETATM   12  C   UNL     1       8.713  30.527  60.996  1.00  0.00     0.032 A 
HETATM   13  C   UNL     1       8.612  30.971  62.320  1.00  0.00     0.039 A 
HETATM   14  C   UNL     1       7.852  32.095  62.645  1.00  0.00     0.068 A 
HETATM   15  C   UNL     1       7.188  32.776  61.628  1.00  0.00     0.039 A 
HETATM   16  C   UNL     1       7.280  32.328  60.303  1.00  0.00     0.032 A 
BRANCH  14  17
HETATM   17  O   UNL     1       7.833  32.407  63.974  1.00  0.00    -0.352 OA
BRANCH  17  18
HETATM   18  C   UNL     1       7.476  33.742  64.326  1.00  0.00     0.171 C 
HETATM   19  C   UNL     1       6.927  33.720  65.742  1.00  0.00     0.034 C 
ENDBRANCH  17  18
ENDBRANCH  14  17
ENDBRANCH   8  11
ENDBRANCH   6   7
ENDBRANCH   1   6
BRANCH   5  20
HETATM   20  N   UNL     1       7.486  27.902  54.511  1.00  0.00    -0.382 N 
HETATM   21  H   UNL     1       6.698  27.477  54.013  1.00  0.00     0.157 HD
HETATM   22  H   UNL     1       7.711  28.826  54.145  1.00  0.00     0.157 HD
ENDBRANCH   5  20
BRANCH   4  23
HETATM   23  C   UNL     1       7.026  25.103  55.996  1.00  0.00     0.280 C 
HETATM   24  N   UNL     1       8.087  24.258  55.721  1.00  0.00    -0.320 N 
HETATM   25  H   UNL     1       8.952  24.508  56.188  1.00  0.00     0.169 HD
HETATM   26  O   UNL     1       5.837  24.822  55.889  1.00  0.00    -0.265 OA
BRANCH  24  27
HETATM   27  C   UNL     1       8.027  22.994  55.093  1.00  0.00     0.057 A 
HETATM   28  C   UNL     1       7.876  22.765  53.713  1.00  0.00     0.060 A 
HETATM   29 CL   UNL     1       7.973  24.008  52.514  1.00  0.00    -0.082 Cl
HETATM   30  C   UNL     1       7.817  21.452  53.223  1.00  0.00     0.026 A 
HETATM   31  C   UNL     1       7.938  20.364  54.086  1.00  0.00     0.002 A 
HETATM   32  C   UNL     1       8.142  20.583  55.444  1.00  0.00     0.002 A 
HETATM   33  C   UNL     1       8.197  21.887  55.941  1.00  0.00     0.031 A 
ENDBRANCH  24  27
ENDBRANCH   4  23
TORSDOF 8
ENDMDL
MODEL 3
REMARK VINA RESULT:      -9.5      3.146     10.684
REMARK  8 active torsions:
REMARK  status: ('A' for Active; 'I' for Inactive)
REMARK    1  A    between atoms: C_2  and  O_3 
REMARK    2  A    between atoms: O_3  and  C_4 
REMARK    3  A    between atoms: C_7  and  N_8 
REMARK       I    between atoms: N_8  and  C_9 
REMARK    4  A    between atoms: C_9  and  C_10 
REMARK    5  A    between atoms: C_10  and  N_11 
REMARK    6  A    between atoms: C_14  and  C_15 
REMARK       I    between atoms: C_15  and  N_16 
REMARK    7  A    between atoms: N_16  and  C_17 
REMARK    8  A    between atoms: C_25  and  N_26 
ROOT
HETATM    1  N   UNL     1       6.988  29.412  57.517  1.00  0.00    -0.248 N 
HETATM    2  N   UNL     1       8.007  28.771  58.133  1.00  0.00     0.007 NA
HETATM    3  N   UNL     1       8.452  29.566  59.095  1.00  0.00    -0.150 NA
HETATM    4  C   UNL     1       7.722  30.738  59.063  1.00  0.00     0.187 A 
HETATM    5  C   UNL     1       6.813  30.676  58.020  1.00  0.00     0.151 A 
ENDROOT
BRANCH   1   6
HETATM    6  C   UNL     1       6.170  28.689  56.576  1.00  0.00     0.251 C 
BRANCH   6   7
HETATM    7  C   UNL     1       6.939  27.603  55.864  1.00  0.00     0.241 C 
HETATM    8  N   UNL     1       7.054  26.429  56.592  1.00  0.00    -0.326 N 
HETATM    9  H   UNL     1       6.850  26.485  57.588  1.00  0.00     0.169 HD
HETATM   10  O   UNL     1       7.344  27.788  54.719  1.00  0.00    -0.271 OA
BRANCH   8  11
HETATM   11  C   UNL     1       7.491  25.174  56.120  1.00  0.00     0.034 A 
HETATM   12  C   UNL     1       6.924  24.516  55.029  1.00  0.00     0.032 A 
HETATM   13  C   UNL     1       7.380  23.245  54.658  1.00  0.00     0.039 A 
HETATM   14  C   UNL     1       8.410  22.618  55.359  1.00  0.00     0.068 A 
HETATM   15  C   UNL     1       8.984  23.275  56.444  1.00  0.00     0.039 A 
HETATM   16  C   UNL     1       8.522  24.543  56.825  1.00  0.00     0.032 A 
BRANCH  14  17
HETATM   17  O   UNL     1       8.745  21.379  54.894  1.00  0.00    -0.352 OA
BRANCH  17  18
HETATM   18  C   UNL     1       7.791  20.710  54.071  1.00  0.00     0.171 C 
HETATM   19  C   UNL     1       8.472  20.357  52.760  1.00  0.00     0.034 C 
ENDBRANCH  17  18
ENDBRANCH  14  17
ENDBRANCH   8  11
ENDBRANCH   6   7
ENDBRANCH   1   6
BRANCH   5  20
HETATM   20  N   UNL     1       5.887  31.550  57.558  1.00  0.00    -0.382 N 
HETATM   21  H   UNL     1       5.096  31.170  57.027  1.00  0.00     0.157 HD
HETATM   22  H   UNL     1       5.631  32.396  58.064  1.00  0.00     0.157 HD
ENDBRANCH   5  20
BRANCH   4  23
HETATM   23  C   UNL     1       7.919  31.823  60.017  1.00  0.00     0.280 C 
HETATM   24  N   UNL     1       7.109  31.691  61.131  1.00  0.00    -0.320 N 
HETATM   25  H   UNL     1       6.747  30.754  61.277  1.00  0.00     0.169 HD
HETATM   26  O   UNL     1       8.761  32.697  59.840  1.00  0.00    -0.265 OA
BRANCH  24  27
HETATM   27  C   UNL     1       6.948  32.622  62.181  1.00  0.00     0.057 A 
HETATM   28  C   UNL     1       6.074  33.724  62.182  1.00  0.00     0.060 A 
HETATM   29 CL   UNL     1       4.863  33.992  60.975  1.00  0.00    -0.082 Cl
HETATM   30  C   UNL     1       6.025  34.580  63.291  1.00  0.00     0.026 A 
HETATM   31  C   UNL     1       6.815  34.336  64.413  1.00  0.00     0.002 A 
HETATM   32  C   UNL     1       7.642  33.219  64.443  1.00  0.00     0.002 A 
HETATM   33  C   UNL     1       7.699  32.363  63.340  1.00  0.00     0.031 A 
ENDBRANCH  24  27
ENDBRANCH   4  23
TORSDOF 8
ENDMDL
MODEL 4
REMARK VINA RESULT:      -9.3      2.112      2.667
REMARK  8 active torsions:
REMARK  status: ('A' for Active; 'I' for Inactive)
REMARK    1  A    between atoms: C_2  and  O_3 
REMARK    2  A    between atoms: O_3  and  C_4 
REMARK    3  A    between atoms: C_7  and  N_8 
REMARK       I    between atoms: N_8  and  C_9 
REMARK    4  A    between atoms: C_9  and  C_10 
REMARK    5  A    between atoms: C_10  and  N_11 
REMARK    6  A    between atoms: C_14  and  C_15 
REMARK       I    between atoms: C_15  and  N_16 
REMARK    7  A    between atoms: N_16  and  C_17 
REMARK    8  A    between atoms: C_25  and  N_26 
ROOT
HETATM    1  N   UNL     1       7.634  29.537  57.655  1.00  0.00    -0.248 N 
HETATM    2  N   UNL     1       8.010  28.619  58.573  1.00  0.00     0.007 NA
HETATM    3  N   UNL     1       7.732  27.423  58.075  1.00  0.00    -0.150 NA
HETATM    4  C   UNL     1       7.145  27.594  56.837  1.00  0.00     0.187 A 
HETATM    5  C   UNL     1       7.026  28.949  56.576  1.00  0.00     0.151 A 
ENDROOT
BRANCH   1   6
HETATM    6  C   UNL     1       8.023  30.913  57.837  1.00  0.00     0.251 C 
BRANCH   6   7
HETATM    7  C   UNL     1       7.286  31.570  58.978  1.00  0.00     0.241 C 
HETATM    8  N   UNL     1       7.628  31.072  60.226  1.00  0.00    -0.326 N 
HETATM    9  H   UNL     1       8.119  30.181  60.244  1.00  0.00     0.169 HD
HETATM   10  O   UNL     1       6.515  32.502  58.757  1.00  0.00    -0.271 OA
BRANCH   8  11
HETATM   11  C   UNL     1       7.308  31.628  61.481  1.00  0.00     0.034 A 
HETATM   12  C   UNL     1       6.006  31.765  61.960  1.00  0.00     0.032 A 
HETATM   13  C   UNL     1       5.769  32.379  63.196  1.00  0.00     0.039 A 
HETATM   14  C   UNL     1       6.823  32.855  63.975  1.00  0.00     0.068 A 
HETATM   15  C   UNL     1       8.126  32.714  63.505  1.00  0.00     0.039 A 
HETATM   16  C   UNL     1       8.365  32.109  62.263  1.00  0.00     0.032 A 
BRANCH  14  17
HETATM   17  O   UNL     1       6.446  33.440  65.150  1.00  0.00    -0.352 OA
BRANCH  17  18
HETATM   18  C   UNL     1       5.402  34.410  65.090  1.00  0.00     0.171 C 
HETATM   19  C   UNL     1       4.359  34.037  66.130  1.00  0.00     0.034 C 
ENDBRANCH  17  18
ENDBRANCH  14  17
ENDBRANCH   8  11
ENDBRANCH   6   7
ENDBRANCH   1   6
BRANCH   5  20
HETATM   20  N   UNL     1       6.518  29.639  55.527  1.00  0.00    -0.382 N 
HETATM   21  H   UNL     1       5.665  29.278  55.088  1.00  0.00     0.157 HD
HETATM   22  H   UNL     1       6.581  30.653  55.455  1.00  0.00     0.157 HD
ENDBRANCH   5  20
BRANCH   4  23
HETATM   23  C   UNL     1       6.752  26.478  55.985  1.00  0.00     0.280 C 
HETATM   24  N   UNL     1       7.750  25.527  55.876  1.00  0.00    -0.320 N 
HETATM   25  H   UNL     1       8.450  25.569  56.609  1.00  0.00     0.169 HD
HETATM   26  O   UNL     1       5.631  26.404  55.491  1.00  0.00    -0.265 OA
BRANCH  24  27
HETATM   27  C   UNL     1       7.756  24.393  55.034  1.00  0.00     0.057 A 
HETATM   28  C   UNL     1       7.774  24.408  53.628  1.00  0.00     0.060 A 
HETATM   29 CL   UNL     1       8.030  25.836  52.683  1.00  0.00    -0.082 Cl
HETATM   30  C   UNL     1       7.764  23.201  52.913  1.00  0.00     0.026 A 
HETATM   31  C   UNL     1       7.768  21.978  53.582  1.00  0.00     0.002 A 
HETATM   32  C   UNL     1       7.805  21.954  54.971  1.00  0.00     0.002 A 
HETATM   33  C   UNL     1       7.811  23.152  55.691  1.00  0.00     0.031 A 
ENDBRANCH  24  27
ENDBRANCH   4  23
TORSDOF 8
ENDMDL
MODEL 5
REMARK VINA RESULT:      -9.2      2.741     10.177
REMARK  8 active torsions:
REMARK  status: ('A' for Active; 'I' for Inactive)
REMARK    1  A    between atoms: C_2  and  O_3 
REMARK    2  A    between atoms: O_3  and  C_4 
REMARK    3  A    between atoms: C_7  and  N_8 
REMARK       I    between atoms: N_8  and  C_9 
REMARK    4  A    between atoms: C_9  and  C_10 
REMARK    5  A    between atoms: C_10  and  N_11 
REMARK    6  A    between atoms: C_14  and  C_15 
REMARK       I    between atoms: C_15  and  N_16 
REMARK    7  A    between atoms: N_16  and  C_17 
REMARK    8  A    between atoms: C_25  and  N_26 
ROOT
HETATM    1  N   UNL     1       5.926  29.097  56.615  1.00  0.00    -0.248 N 
HETATM    2  N   UNL     1       7.212  28.930  56.235  1.00  0.00     0.007 NA
HETATM    3  N   UNL     1       7.961  29.682  57.027  1.00  0.00    -0.150 NA
HETATM    4  C   UNL     1       7.129  30.356  57.899  1.00  0.00     0.187 A 
HETATM    5  C   UNL     1       5.814  30.032  57.613  1.00  0.00     0.151 A 
ENDROOT
BRANCH   1   6
HETATM    6  C   UNL     1       4.913  28.227  56.071  1.00  0.00     0.251 C 
BRANCH   6   7
HETATM    7  C   UNL     1       5.321  26.775  56.117  1.00  0.00     0.241 C 
HETATM    8  N   UNL     1       6.204  26.410  55.114  1.00  0.00    -0.326 N 
HETATM    9  H   UNL     1       6.290  27.047  54.324  1.00  0.00     0.169 HD
HETATM   10  O   UNL     1       4.920  26.053  57.028  1.00  0.00    -0.271 OA
BRANCH   8  11
HETATM   11  C   UNL     1       6.949  25.215  55.029  1.00  0.00     0.034 A 
HETATM   12  C   UNL     1       7.949  24.858  55.931  1.00  0.00     0.032 A 
HETATM   13  C   UNL     1       8.681  23.679  55.745  1.00  0.00     0.039 A 
HETATM   14  C   UNL     1       8.420  22.836  54.665  1.00  0.00     0.068 A 
HETATM   15  C   UNL     1       7.417  23.184  53.763  1.00  0.00     0.039 A 
HETATM   16  C   UNL     1       6.690  24.370  53.943  1.00  0.00     0.032 A 
BRANCH  14  17
HETATM   17  O   UNL     1       9.216  21.728  54.600  1.00  0.00    -0.352 OA
BRANCH  17  18
HETATM   18  C   UNL     1       8.568  20.458  54.604  1.00  0.00     0.171 C 
HETATM   19  C   UNL     1       8.140  20.157  56.030  1.00  0.00     0.034 C 
ENDBRANCH  17  18
ENDBRANCH  14  17
ENDBRANCH   8  11
ENDBRANCH   6   7
ENDBRANCH   1   6
BRANCH   5  20
HETATM   20  N   UNL     1       4.635  30.421  58.154  1.00  0.00    -0.382 N 
HETATM   21  H   UNL     1       4.660  30.881  59.070  1.00  0.00     0.157 HD
HETATM   22  H   UNL     1       3.853  30.747  57.588  1.00  0.00     0.157 HD
ENDBRANCH   5  20
BRANCH   4  23
HETATM   23  C   UNL     1       7.627  31.243  58.946  1.00  0.00     0.280 C 
HETATM   24  N   UNL     1       6.968  31.052  60.147  1.00  0.00    -0.320 N 
HETATM   25  H   UNL     1       6.486  30.163  60.224  1.00  0.00     0.169 HD
HETATM   26  O   UNL     1       8.564  32.010  58.753  1.00  0.00    -0.265 OA
BRANCH  24  27
HETATM   27  C   UNL     1       7.105  31.822  61.324  1.00  0.00     0.057 A 
HETATM   28  C   UNL     1       7.988  31.557  62.386  1.00  0.00     0.060 A 
HETATM   29 CL   UNL     1       9.236  30.360  62.325  1.00  0.00    -0.082 Cl
HETATM   30  C   UNL     1       8.011  32.401  63.506  1.00  0.00     0.026 A 
HETATM   31  C   UNL     1       7.186  33.523  63.568  1.00  0.00     0.002 A 
HETATM   32  C   UNL     1       6.350  33.822  62.499  1.00  0.00     0.002 A 
HETATM   33  C   UNL     1       6.318  32.985  61.381  1.00  0.00     0.031 A 
ENDBRANCH  24  27
ENDBRANCH   4  23
TORSDOF 8
ENDMDL
MODEL 6
REMARK VINA RESULT:      -9.2      2.173      3.136
REMARK  8 active torsions:
REMARK  status: ('A' for Active; 'I' for Inactive)
REMARK    1  A    between atoms: C_2  and  O_3 
REMARK    2  A    between atoms: O_3  and  C_4 
REMARK    3  A    between atoms: C_7  and  N_8 
REMARK       I    between atoms: N_8  and  C_9 
REMARK    4  A    between atoms: C_9  and  C_10 
REMARK    5  A    between atoms: C_10  and  N_11 
REMARK    6  A    between atoms: C_14  and  C_15 
REMARK       I    between atoms: C_15  and  N_16 
REMARK    7  A    between atoms: N_16  and  C_17 
REMARK    8  A    between atoms: C_25  and  N_26 
ROOT
HETATM    1  N   UNL     1       8.686  29.879  58.205  1.00  0.00    -0.248 N 
HETATM    2  N   UNL     1       7.415  29.517  58.488  1.00  0.00     0.007 NA
HETATM    3  N   UNL     1       6.994  28.741  57.499  1.00  0.00    -0.150 NA
HETATM    4  C   UNL     1       8.006  28.639  56.566  1.00  0.00     0.187 A 
HETATM    5  C   UNL     1       9.082  29.408  56.979  1.00  0.00     0.151 A 
ENDROOT
BRANCH   1   6
HETATM    6  C   UNL     1       9.469  30.542  59.217  1.00  0.00     0.251 C 
BRANCH   6   7
HETATM    7  C   UNL     1       8.652  31.523  60.022  1.00  0.00     0.241 C 
HETATM    8  N   UNL     1       7.985  30.949  61.093  1.00  0.00    -0.326 N 
HETATM    9  H   UNL     1       7.897  29.935  61.088  1.00  0.00     0.169 HD
HETATM   10  O   UNL     1       8.673  32.719  59.738  1.00  0.00    -0.271 OA
BRANCH   8  11
HETATM   11  C   UNL     1       7.350  31.620  62.158  1.00  0.00     0.034 A 
HETATM   12  C   UNL     1       5.967  31.675  62.325  1.00  0.00     0.032 A 
HETATM   13  C   UNL     1       5.413  32.409  63.381  1.00  0.00     0.039 A 
HETATM   14  C   UNL     1       6.226  33.089  64.287  1.00  0.00     0.068 A 
HETATM   15  C   UNL     1       7.608  33.032  64.129  1.00  0.00     0.039 A 
HETATM   16  C   UNL     1       8.165  32.306  63.067  1.00  0.00     0.032 A 
BRANCH  14  17
HETATM   17  O   UNL     1       5.551  33.773  65.259  1.00  0.00    -0.352 OA
BRANCH  17  18
HETATM   18  C   UNL     1       4.228  34.207  64.951  1.00  0.00     0.171 C 
HETATM   19  C   UNL     1       3.762  35.115  66.076  1.00  0.00     0.034 C 
ENDBRANCH  17  18
ENDBRANCH  14  17
ENDBRANCH   8  11
ENDBRANCH   6   7
ENDBRANCH   1   6
BRANCH   5  20
HETATM   20  N   UNL     1      10.295  29.656  56.431  1.00  0.00    -0.382 N 
HETATM   21  H   UNL     1      11.088  29.090  56.753  1.00  0.00     0.157 HD
HETATM   22  H   UNL     1      10.410  29.952  55.463  1.00  0.00     0.157 HD
ENDBRANCH   5  20
BRANCH   4  23
HETATM   23  C   UNL     1       7.899  27.819  55.365  1.00  0.00     0.280 C 
HETATM   24  N   UNL     1       7.422  26.550  55.640  1.00  0.00    -0.320 N 
HETATM   25  H   UNL     1       6.938  26.469  56.528  1.00  0.00     0.169 HD
HETATM   26  O   UNL     1       8.156  28.265  54.251  1.00  0.00    -0.265 OA
BRANCH  24  27
HETATM   27  C   UNL     1       7.319  25.466  54.740  1.00  0.00     0.057 A 
HETATM   28  C   UNL     1       8.054  24.268  54.802  1.00  0.00     0.060 A 
HETATM   29 CL   UNL     1       9.052  23.819  56.142  1.00  0.00    -0.082 Cl
HETATM   30  C   UNL     1       7.861  23.276  53.829  1.00  0.00     0.026 A 
HETATM   31  C   UNL     1       6.922  23.449  52.813  1.00  0.00     0.002 A 
HETATM   32  C   UNL     1       6.154  24.606  52.776  1.00  0.00     0.002 A 
HETATM   33  C   UNL     1       6.343  25.602  53.739  1.00  0.00     0.031 A 
ENDBRANCH  24  27
ENDBRANCH   4  23
TORSDOF 8
ENDMDL
MODEL 7
REMARK VINA RESULT:      -8.9      2.058      2.574
REMARK  8 active torsions:
REMARK  status: ('A' for Active; 'I' for Inactive)
REMARK    1  A    between atoms: C_2  and  O_3 
REMARK    2  A    between atoms: O_3  and  C_4 
REMARK    3  A    between atoms: C_7  and  N_8 
REMARK       I    between atoms: N_8  and  C_9 
REMARK    4  A    between atoms: C_9  and  C_10 
REMARK    5  A    between atoms: C_10  and  N_11 
REMARK    6  A    between atoms: C_14  and  C_15 
REMARK       I    between atoms: C_15  and  N_16 
REMARK    7  A    between atoms: N_16  and  C_17 
REMARK    8  A    between atoms: C_25  and  N_26 
ROOT
HETATM    1  N   UNL     1       5.664  28.141  54.510  1.00  0.00    -0.248 N 
HETATM    2  N   UNL     1       4.611  27.338  54.237  1.00  0.00     0.007 NA
HETATM    3  N   UNL     1       5.095  26.165  53.855  1.00  0.00    -0.150 NA
HETATM    4  C   UNL     1       6.473  26.242  53.858  1.00  0.00     0.187 A 
HETATM    5  C   UNL     1       6.854  27.522  54.226  1.00  0.00     0.151 A 
ENDROOT
BRANCH   1   6
HETATM    6  C   UNL     1       5.432  29.406  55.161  1.00  0.00     0.251 C 
BRANCH   6   7
HETATM    7  C   UNL     1       5.860  29.392  56.608  1.00  0.00     0.241 C 
HETATM    8  N   UNL     1       6.784  30.375  56.928  1.00  0.00    -0.326 N 
HETATM    9  H   UNL     1       7.263  30.824  56.150  1.00  0.00     0.169 HD
HETATM   10  O   UNL     1       5.348  28.596  57.392  1.00  0.00    -0.271 OA
BRANCH   8  11
HETATM   11  C   UNL     1       7.188  30.775  58.217  1.00  0.00     0.034 A 
HETATM   12  C   UNL     1       6.620  31.842  58.912  1.00  0.00     0.032 A 
HETATM   13  C   UNL     1       7.117  32.211  60.168  1.00  0.00     0.039 A 
HETATM   14  C   UNL     1       8.177  31.518  60.752  1.00  0.00     0.068 A 
HETATM   15  C   UNL     1       8.744  30.447  60.066  1.00  0.00     0.039 A 
HETATM   16  C   UNL     1       8.255  30.083  58.803  1.00  0.00     0.032 A 
BRANCH  14  17
HETATM   17  O   UNL     1       8.566  31.993  61.973  1.00  0.00    -0.352 OA
BRANCH  17  18
HETATM   18  C   UNL     1       7.655  31.828  63.057  1.00  0.00     0.171 C 
HETATM   19  C   UNL     1       7.827  33.011  63.995  1.00  0.00     0.034 C 
ENDBRANCH  17  18
ENDBRANCH  14  17
ENDBRANCH   8  11
ENDBRANCH   6   7
ENDBRANCH   1   6
BRANCH   5  20
HETATM   20  N   UNL     1       8.065  28.112  54.370  1.00  0.00    -0.382 N 
HETATM   21  H   UNL     1       8.621  28.270  53.523  1.00  0.00     0.157 HD
HETATM   22  H   UNL     1       8.250  28.817  55.081  1.00  0.00     0.157 HD
ENDBRANCH   5  20
BRANCH   4  23
HETATM   23  C   UNL     1       7.333  25.110  53.532  1.00  0.00     0.280 C 
HETATM   24  N   UNL     1       6.972  23.965  54.220  1.00  0.00    -0.320 N 
HETATM   25  H   UNL     1       6.026  23.979  54.588  1.00  0.00     0.169 HD
HETATM   26  O   UNL     1       8.223  25.193  52.692  1.00  0.00    -0.265 OA
BRANCH  24  27
HETATM   27  C   UNL     1       7.661  22.733  54.243  1.00  0.00     0.057 A 
HETATM   28  C   UNL     1       8.367  22.201  55.337  1.00  0.00     0.060 A 
HETATM   29 CL   UNL     1       8.312  22.867  56.934  1.00  0.00    -0.082 Cl
HETATM   30  C   UNL     1       9.022  20.966  55.217  1.00  0.00     0.026 A 
HETATM   31  C   UNL     1       8.957  20.240  54.029  1.00  0.00     0.002 A 
HETATM   32  C   UNL     1       8.217  20.733  52.961  1.00  0.00     0.002 A 
HETATM   33  C   UNL     1       7.565  21.964  53.071  1.00  0.00     0.031 A 
ENDBRANCH  24  27
ENDBRANCH   4  23
TORSDOF 8
ENDMDL
MODEL 8
REMARK VINA RESULT:      -8.7      2.268      2.562
REMARK  8 active torsions:
REMARK  status: ('A' for Active; 'I' for Inactive)
REMARK    1  A    between atoms: C_2  and  O_3 
REMARK    2  A    between atoms: O_3  and  C_4 
REMARK    3  A    between atoms: C_7  and  N_8 
REMARK       I    between atoms: N_8  and  C_9 
REMARK    4  A    between atoms: C_9  and  C_10 
REMARK    5  A    between atoms: C_10  and  N_11 
REMARK    6  A    between atoms: C_14  and  C_15 
REMARK       I    between atoms: C_15  and  N_16 
REMARK    7  A    between atoms: N_16  and  C_17 
REMARK    8  A    between atoms: C_25  and  N_26 
ROOT
HETATM    1  N   UNL     1       6.259  28.725  56.198  1.00  0.00    -0.248 N 
HETATM    2  N   UNL     1       7.408  28.259  56.735  1.00  0.00     0.007 NA
HETATM    3  N   UNL     1       7.530  26.990  56.372  1.00  0.00    -0.150 NA
HETATM    4  C   UNL     1       6.424  26.646  55.620  1.00  0.00     0.187 A 
HETATM    5  C   UNL     1       5.572  27.735  55.543  1.00  0.00     0.151 A 
ENDROOT
BRANCH   1   6
HETATM    6  C   UNL     1       5.984  30.140  56.245  1.00  0.00     0.251 C 
BRANCH   6   7
HETATM    7  C   UNL     1       5.610  30.604  57.632  1.00  0.00     0.241 C 
HETATM    8  N   UNL     1       6.647  31.220  58.314  1.00  0.00    -0.326 N 
HETATM    9  H   UNL     1       7.586  31.078  57.946  1.00  0.00     0.169 HD
HETATM   10  O   UNL     1       4.455  30.475  58.032  1.00  0.00    -0.271 OA
BRANCH   8  11
HETATM   11  C   UNL     1       6.557  31.966  59.507  1.00  0.00     0.034 A 
HETATM   12  C   UNL     1       5.477  32.786  59.829  1.00  0.00     0.032 A 
HETATM   13  C   UNL     1       5.489  33.538  61.010  1.00  0.00     0.039 A 
HETATM   14  C   UNL     1       6.570  33.477  61.889  1.00  0.00     0.068 A 
HETATM   15  C   UNL     1       7.648  32.654  61.576  1.00  0.00     0.039 A 
HETATM   16  C   UNL     1       7.643  31.907  60.389  1.00  0.00     0.032 A 
BRANCH  14  17
HETATM   17  O   UNL     1       6.452  34.270  62.995  1.00  0.00    -0.352 OA
BRANCH  17  18
HETATM   18  C   UNL     1       5.975  33.657  64.190  1.00  0.00     0.171 C 
HETATM   19  C   UNL     1       7.149  33.519  65.144  1.00  0.00     0.034 C 
ENDBRANCH  17  18
ENDBRANCH  14  17
ENDBRANCH   8  11
ENDBRANCH   6   7
ENDBRANCH   1   6
BRANCH   5  20
HETATM   20  N   UNL     1       4.370  27.918  54.946  1.00  0.00    -0.382 N 
HETATM   21  H   UNL     1       4.056  27.204  54.281  1.00  0.00     0.157 HD
HETATM   22  H   UNL     1       3.586  28.368  55.417  1.00  0.00     0.157 HD
ENDBRANCH   5  20
BRANCH   4  23
HETATM   23  C   UNL     1       6.253  25.329  55.016  1.00  0.00     0.280 C 
HETATM   24  N   UNL     1       7.329  24.497  55.267  1.00  0.00    -0.320 N 
HETATM   25  H   UNL     1       7.905  24.782  56.053  1.00  0.00     0.169 HD
HETATM   26  O   UNL     1       5.230  25.020  54.415  1.00  0.00    -0.265 OA
BRANCH  24  27
HETATM   27  C   UNL     1       7.552  23.209  54.730  1.00  0.00     0.057 A 
HETATM   28  C   UNL     1       7.747  22.904  53.371  1.00  0.00     0.060 A 
HETATM   29 CL   UNL     1       7.982  24.098  52.140  1.00  0.00    -0.082 Cl
HETATM   30  C   UNL     1       7.945  21.574  52.972  1.00  0.00     0.026 A 
HETATM   31  C   UNL     1       7.981  20.547  53.914  1.00  0.00     0.002 A 
HETATM   32  C   UNL     1       7.844  20.847  55.264  1.00  0.00     0.002 A 
HETATM   33  C   UNL     1       7.643  22.169  55.670  1.00  0.00     0.031 A 
ENDBRANCH  24  27
ENDBRANCH   4  23
TORSDOF 8
ENDMDL
MODEL 9
REMARK VINA RESULT:      -8.1      7.084     10.808
REMARK  8 active torsions:
REMARK  status: ('A' for Active; 'I' for Inactive)
REMARK    1  A    between atoms: C_2  and  O_3 
REMARK    2  A    between atoms: O_3  and  C_4 
REMARK    3  A    between atoms: C_7  and  N_8 
REMARK       I    between atoms: N_8  and  C_9 
REMARK    4  A    between atoms: C_9  and  C_10 
REMARK    5  A    between atoms: C_10  and  N_11 
REMARK    6  A    between atoms: C_14  and  C_15 
REMARK       I    between atoms: C_15  and  N_16 
REMARK    7  A    between atoms: N_16  and  C_17 
REMARK    8  A    between atoms: C_25  and  N_26 
ROOT
HETATM    1  N   UNL     1       5.458  27.605  51.831  1.00  0.00    -0.248 N 
HETATM    2  N   UNL     1       5.750  26.746  50.829  1.00  0.00     0.007 NA
HETATM    3  N   UNL     1       6.135  25.606  51.384  1.00  0.00    -0.150 NA
HETATM    4  C   UNL     1       6.114  25.762  52.755  1.00  0.00     0.187 A 
HETATM    5  C   UNL     1       5.732  27.058  53.058  1.00  0.00     0.151 A 
ENDROOT
BRANCH   1   6
HETATM    6  C   UNL     1       4.800  28.850  51.519  1.00  0.00     0.251 C 
BRANCH   6   7
HETATM    7  C   UNL     1       4.256  28.873  50.112  1.00  0.00     0.241 C 
HETATM    8  N   UNL     1       3.261  27.936  49.881  1.00  0.00    -0.326 N 
HETATM    9  H   UNL     1       3.173  27.183  50.561  1.00  0.00     0.169 HD
HETATM   10  O   UNL     1       4.657  29.715  49.312  1.00  0.00    -0.271 OA
BRANCH   8  11
HETATM   11  C   UNL     1       2.397  27.868  48.769  1.00  0.00     0.034 A 
HETATM   12  C   UNL     1       1.426  28.825  48.481  1.00  0.00     0.032 A 
HETATM   13  C   UNL     1       0.570  28.655  47.386  1.00  0.00     0.039 A 
HETATM   14  C   UNL     1       0.676  27.538  46.559  1.00  0.00     0.068 A 
HETATM   15  C   UNL     1       1.650  26.582  46.837  1.00  0.00     0.039 A 
HETATM   16  C   UNL     1       2.501  26.745  47.940  1.00  0.00     0.032 A 
BRANCH  14  17
HETATM   17  O   UNL     1      -0.229  27.496  45.536  1.00  0.00    -0.352 OA
BRANCH  17  18
HETATM   18  C   UNL     1      -0.766  28.739  45.089  1.00  0.00     0.171 C 
HETATM   19  C   UNL     1      -1.319  28.532  43.690  1.00  0.00     0.034 C 
ENDBRANCH  17  18
ENDBRANCH  14  17
ENDBRANCH   8  11
ENDBRANCH   6   7
ENDBRANCH   1   6
BRANCH   5  20
HETATM   20  N   UNL     1       5.570  27.716  54.231  1.00  0.00    -0.382 N 
HETATM   21  H   UNL     1       5.874  27.243  55.088  1.00  0.00     0.157 HD
HETATM   22  H   UNL     1       5.651  28.728  54.308  1.00  0.00     0.157 HD
ENDBRANCH   5  20
BRANCH   4  23
HETATM   23  C   UNL     1       6.439  24.683  53.682  1.00  0.00     0.280 C 
HETATM   24  N   UNL     1       7.532  23.947  53.263  1.00  0.00    -0.320 N 
HETATM   25  H   UNL     1       8.120  24.419  52.584  1.00  0.00     0.169 HD
HETATM   26  O   UNL     1       5.824  24.523  54.731  1.00  0.00    -0.265 OA
BRANCH  24  27
HETATM   27  C   UNL     1       8.034  22.762  53.847  1.00  0.00     0.057 A 
HETATM   28  C   UNL     1       8.707  22.670  55.079  1.00  0.00     0.060 A 
HETATM   29 CL   UNL     1       8.828  23.973  56.210  1.00  0.00    -0.082 Cl
HETATM   30  C   UNL     1       9.167  21.426  55.535  1.00  0.00     0.026 A 
HETATM   31  C   UNL     1       8.939  20.267  54.793  1.00  0.00     0.002 A 
HETATM   32  C   UNL     1       8.228  20.343  53.601  1.00  0.00     0.002 A 
HETATM   33  C   UNL     1       7.769  21.579  53.138  1.00  0.00     0.031 A 
ENDBRANCH  24  27
ENDBRANCH   4  23
TORSDOF 8
ENDMDL
MODEL 10
REMARK VINA RESULT:      -8.1      3.655     10.550
REMARK  8 active torsions:
REMARK  status: ('A' for Active; 'I' for Inactive)
REMARK    1  A    between atoms: C_2  and  O_3 
REMARK    2  A    between atoms: O_3  and  C_4 
REMARK    3  A    between atoms: C_7  and  N_8 
REMARK       I    between atoms: N_8  and  C_9 
REMARK    4  A    between atoms: C_9  and  C_10 
REMARK    5  A    between atoms: C_10  and  N_11 
REMARK    6  A    between atoms: C_14  and  C_15 
REMARK       I    between atoms: C_15  and  N_16 
REMARK    7  A    between atoms: N_16  and  C_17 
REMARK    8  A    between atoms: C_25  and  N_26 
ROOT
HETATM    1  N   UNL     1       4.407  31.744  57.288  1.00  0.00    -0.248 N 
HETATM    2  N   UNL     1       3.236  32.391  57.480  1.00  0.00     0.007 NA
HETATM    3  N   UNL     1       3.138  32.658  58.774  1.00  0.00    -0.150 NA
HETATM    4  C   UNL     1       4.252  32.145  59.409  1.00  0.00     0.187 A 
HETATM    5  C   UNL     1       5.052  31.507  58.475  1.00  0.00     0.151 A 
ENDROOT
BRANCH   1   6
HETATM    6  C   UNL     1       4.878  31.528  55.943  1.00  0.00     0.251 C 
BRANCH   6   7
HETATM    7  C   UNL     1       4.930  30.063  55.583  1.00  0.00     0.241 C 
HETATM    8  N   UNL     1       6.194  29.619  55.229  1.00  0.00    -0.326 N 
HETATM    9  H   UNL     1       6.884  30.332  55.001  1.00  0.00     0.169 HD
HETATM   10  O   UNL     1       3.919  29.371  55.679  1.00  0.00    -0.271 OA
BRANCH   8  11
HETATM   11  C   UNL     1       6.616  28.281  55.080  1.00  0.00     0.034 A 
HETATM   12  C   UNL     1       6.814  27.407  56.148  1.00  0.00     0.032 A 
HETATM   13  C   UNL     1       7.287  26.110  55.919  1.00  0.00     0.039 A 
HETATM   14  C   UNL     1       7.560  25.662  54.627  1.00  0.00     0.068 A 
HETATM   15  C   UNL     1       7.356  26.529  53.556  1.00  0.00     0.039 A 
HETATM   16  C   UNL     1       6.893  27.832  53.783  1.00  0.00     0.032 A 
BRANCH  14  17
HETATM   17  O   UNL     1       8.025  24.380  54.552  1.00  0.00    -0.352 OA
BRANCH  17  18
HETATM   18  C   UNL     1       7.141  23.394  54.024  1.00  0.00     0.171 C 
HETATM   19  C   UNL     1       7.898  22.604  52.971  1.00  0.00     0.034 C 
ENDBRANCH  17  18
ENDBRANCH  14  17
ENDBRANCH   8  11
ENDBRANCH   6   7
ENDBRANCH   1   6
BRANCH   5  20
HETATM   20  N   UNL     1       6.227  30.842  58.577  1.00  0.00    -0.382 N 
HETATM   21  H   UNL     1       6.747  30.926  59.457  1.00  0.00     0.157 HD
HETATM   22  H   UNL     1       6.390  29.944  58.125  1.00  0.00     0.157 HD
ENDBRANCH   5  20
BRANCH   4  23
HETATM   23  C   UNL     1       4.492  32.301  60.839  1.00  0.00     0.280 C 
HETATM   24  N   UNL     1       5.609  33.075  61.099  1.00  0.00    -0.320 N 
HETATM   25  H   UNL     1       5.903  33.658  60.323  1.00  0.00     0.169 HD
HETATM   26  O   UNL     1       3.731  31.832  61.679  1.00  0.00    -0.265 OA
BRANCH  24  27
HETATM   27  C   UNL     1       6.201  33.318  62.358  1.00  0.00     0.057 A 
HETATM   28  C   UNL     1       7.235  32.566  62.944  1.00  0.00     0.060 A 
HETATM   29 CL   UNL     1       8.126  31.340  62.108  1.00  0.00    -0.082 Cl
HETATM   30  C   UNL     1       7.723  32.912  64.213  1.00  0.00     0.026 A 
HETATM   31  C   UNL     1       7.214  34.017  64.893  1.00  0.00     0.002 A 
HETATM   32  C   UNL     1       6.230  34.798  64.298  1.00  0.00     0.002 A 
HETATM   33  C   UNL     1       5.736  34.458  63.035  1.00  0.00     0.031 A 
ENDBRANCH  24  27
ENDBRANCH   4  23
TORSDOF 8
ENDMDL
