MODEL 1
REMARK VINA RESULT:     -10.3      0.000      0.000
REMARK  4 active torsions:
REMARK  status: ('A' for Active; 'I' for Inactive)
REMARK    1  A    between atoms: O_2  and  C_3 
REMARK    2  A    between atoms: C_3  and  C_4 
REMARK    3  A    between atoms: N_11  and  C_13 
REMARK    4  A    between atoms: C_13  and  C_14 
ROOT
HETATM    1  C   UNL     1       6.094  26.182  52.674  1.00  0.00     0.290 C 
HETATM    2  N   UNL     1       5.598  26.609  54.109  1.00  0.00    -0.047 N 
HETATM    3  H   UNL     1       4.737  26.052  54.236  1.00  0.00     0.279 HD
HETATM    4  H   UNL     1       5.254  27.577  54.008  1.00  0.00     0.279 HD
HETATM    5  C   UNL     1       6.543  26.306  55.253  1.00  0.00     0.172 C 
HETATM    6  C   UNL     1       7.721  27.296  55.266  1.00  0.00     0.073 C 
HETATM    7  C   UNL     1       7.332  28.720  55.642  1.00  0.00     0.238 C 
HETATM    8  N   UNL     1       6.583  28.729  56.950  1.00  0.00    -0.067 N 
HETATM    9  H   UNL     1       7.235  28.431  57.693  1.00  0.00     0.280 HD
HETATM   10  C   UNL     1       5.376  27.833  56.960  1.00  0.00     0.238 C 
HETATM   11  C   UNL     1       5.763  26.411  56.580  1.00  0.00     0.073 C 
HETATM   12  C   UNL     1       7.026  24.898  55.018  1.00  0.00     0.053 A 
HETATM   13  C   UNL     1       6.887  24.152  53.855  1.00  0.00    -0.018 A 
HETATM   14  C   UNL     1       6.210  24.656  52.623  1.00  0.00     0.085 C 
HETATM   15  N   UNL     1       7.706  24.112  55.922  1.00  0.00    -0.356 N 
HETATM   16  H   UNL     1       7.985  24.351  56.866  1.00  0.00     0.166 HD
HETATM   17  C   UNL     1       7.971  22.878  55.372  1.00  0.00     0.043 A 
HETATM   18  C   UNL     1       7.471  22.877  54.072  1.00  0.00    -0.001 A 
HETATM   19  C   UNL     1       8.616  21.768  55.932  1.00  0.00     0.030 A 
HETATM   20  C   UNL     1       8.752  20.628  55.136  1.00  0.00     0.002 A 
HETATM   21  C   UNL     1       8.264  20.600  53.833  1.00  0.00     0.001 A 
HETATM   22  C   UNL     1       7.622  21.718  53.286  1.00  0.00     0.014 A 
ENDROOT
BRANCH   1  23
HETATM   23  C   UNL     1       5.110  26.741  51.656  1.00  0.00     0.289 C 
HETATM   24  O   UNL     1       4.586  27.833  51.860  1.00  0.00    -0.263 OA
BRANCH  23  25
HETATM   25  O   UNL     1       4.969  25.955  50.572  1.00  0.00    -0.325 OA
HETATM   26  C   UNL     1       4.605  26.645  49.368  1.00  0.00     0.213 C 
ENDBRANCH  23  25
ENDBRANCH   1  23
BRANCH   8  27
HETATM   27  C   UNL     1       6.189  30.153  57.388  1.00  0.00     0.273 C 
BRANCH  27  28
HETATM   28  C   UNL     1       7.007  30.673  58.534  1.00  0.00    -0.033 A 
HETATM   29  C   UNL     1       6.624  31.850  59.199  1.00  0.00     0.009 A 
HETATM   30  C   UNL     1       7.395  32.349  60.250  1.00  0.00     0.001 A 
HETATM   31  C   UNL     1       8.551  31.682  60.647  1.00  0.00     0.000 A 
HETATM   32  C   UNL     1       8.934  30.508  60.002  1.00  0.00     0.001 A 
HETATM   33  C   UNL     1       8.167  30.002  58.951  1.00  0.00     0.009 A 
ENDBRANCH  27  28
ENDBRANCH   8  27
TORSDOF 4
ENDMDL
MODEL 2
REMARK VINA RESULT:     -10.2      2.751      7.214
REMARK  4 active torsions:
REMARK  status: ('A' for Active; 'I' for Inactive)
REMARK    1  A    between atoms: O_2  and  C_3 
REMARK    2  A    between atoms: C_3  and  C_4 
REMARK    3  A    between atoms: N_11  and  C_13 
REMARK    4  A    between atoms: C_13  and  C_14 
ROOT
HETATM    1  C   UNL     1       6.218  25.854  56.131  1.00  0.00     0.290 C 
HETATM    2  N   UNL     1       6.549  26.309  54.657  1.00  0.00    -0.047 N 
HETATM    3  H   UNL     1       7.553  26.550  54.705  1.00  0.00     0.279 HD
HETATM    4  H   UNL     1       6.081  27.220  54.536  1.00  0.00     0.279 HD
HETATM    5  C   UNL     1       6.355  25.259  53.582  1.00  0.00     0.172 C 
HETATM    6  C   UNL     1       4.860  25.056  53.281  1.00  0.00     0.073 C 
HETATM    7  C   UNL     1       4.198  26.240  52.588  1.00  0.00     0.238 C 
HETATM    8  N   UNL     1       4.970  26.619  51.349  1.00  0.00    -0.067 N 
HETATM    9  H   UNL     1       4.889  25.843  50.673  1.00  0.00     0.280 HD
HETATM   10  C   UNL     1       6.423  26.903  51.607  1.00  0.00     0.238 C 
HETATM   11  C   UNL     1       7.084  25.722  52.304  1.00  0.00     0.073 C 
HETATM   12  C   UNL     1       6.970  23.998  54.130  1.00  0.00     0.053 A 
HETATM   13  C   UNL     1       7.351  23.759  55.445  1.00  0.00    -0.018 A 
HETATM   14  C   UNL     1       7.204  24.757  56.545  1.00  0.00     0.085 C 
HETATM   15  N   UNL     1       7.247  22.853  53.416  1.00  0.00    -0.356 N 
HETATM   16  H   UNL     1       7.083  22.682  52.432  1.00  0.00     0.166 HD
HETATM   17  C   UNL     1       7.823  21.909  54.236  1.00  0.00     0.043 A 
HETATM   18  C   UNL     1       7.896  22.451  55.518  1.00  0.00    -0.001 A 
HETATM   19  C   UNL     1       8.281  20.622  53.935  1.00  0.00     0.030 A 
HETATM   20  C   UNL     1       8.828  19.868  54.977  1.00  0.00     0.002 A 
HETATM   21  C   UNL     1       8.912  20.382  56.267  1.00  0.00     0.001 A 
HETATM   22  C   UNL     1       8.449  21.672  56.554  1.00  0.00     0.014 A 
ENDROOT
BRANCH   1  23
HETATM   23  C   UNL     1       6.285  27.085  57.024  1.00  0.00     0.289 C 
HETATM   24  O   UNL     1       5.319  27.842  57.081  1.00  0.00    -0.263 OA
BRANCH  23  25
HETATM   25  O   UNL     1       7.432  27.168  57.723  1.00  0.00    -0.325 OA
HETATM   26  C   UNL     1       8.288  28.257  57.351  1.00  0.00     0.213 C 
ENDBRANCH  23  25
ENDBRANCH   1  23
BRANCH   8  27
HETATM   27  C   UNL     1       4.324  27.799  50.597  1.00  0.00     0.273 C 
BRANCH  27  28
HETATM   28  C   UNL     1       3.568  27.382  49.369  1.00  0.00    -0.033 A 
HETATM   29  C   UNL     1       2.400  28.065  48.992  1.00  0.00     0.009 A 
HETATM   30  C   UNL     1       1.681  27.665  47.865  1.00  0.00     0.001 A 
HETATM   31  C   UNL     1       2.119  26.583  47.105  1.00  0.00     0.000 A 
HETATM   32  C   UNL     1       3.281  25.905  47.463  1.00  0.00     0.001 A 
HETATM   33  C   UNL     1       4.006  26.300  48.588  1.00  0.00     0.009 A 
ENDBRANCH  27  28
ENDBRANCH   8  27
TORSDOF 4
ENDMDL
MODEL 3
REMARK VINA RESULT:     -10.2      2.396      8.317
REMARK  4 active torsions:
REMARK  status: ('A' for Active; 'I' for Inactive)
REMARK    1  A    between atoms: O_2  and  C_3 
REMARK    2  A    between atoms: C_3  and  C_4 
REMARK    3  A    between atoms: N_11  and  C_13 
REMARK    4  A    between atoms: C_13  and  C_14 
ROOT
HETATM    1  C   UNL     1       4.960  31.064  56.771  1.00  0.00     0.290 C 
HETATM    2  N   UNL     1       6.088  30.351  55.929  1.00  0.00    -0.047 N 
HETATM    3  H   UNL     1       6.672  31.140  55.602  1.00  0.00     0.279 HD
HETATM    4  H   UNL     1       5.624  30.016  55.071  1.00  0.00     0.279 HD
HETATM    5  C   UNL     1       6.968  29.380  56.689  1.00  0.00     0.172 C 
HETATM    6  C   UNL     1       6.218  28.066  56.967  1.00  0.00     0.073 C 
HETATM    7  C   UNL     1       5.949  27.229  55.723  1.00  0.00     0.238 C 
HETATM    8  N   UNL     1       7.231  26.990  54.967  1.00  0.00    -0.067 N 
HETATM    9  H   UNL     1       7.841  26.398  55.552  1.00  0.00     0.280 HD
HETATM   10  C   UNL     1       7.962  28.252  54.604  1.00  0.00     0.238 C 
HETATM   11  C   UNL     1       8.227  29.091  55.846  1.00  0.00     0.073 C 
HETATM   12  C   UNL     1       7.325  30.078  57.975  1.00  0.00     0.053 A 
HETATM   13  C   UNL     1       6.734  31.223  58.495  1.00  0.00    -0.018 A 
HETATM   14  C   UNL     1       5.619  31.957  57.826  1.00  0.00     0.085 C 
HETATM   15  N   UNL     1       8.297  29.686  58.869  1.00  0.00    -0.356 N 
HETATM   16  H   UNL     1       8.911  28.883  58.804  1.00  0.00     0.166 HD
HETATM   17  C   UNL     1       8.359  30.570  59.922  1.00  0.00     0.043 A 
HETATM   18  C   UNL     1       7.384  31.544  59.715  1.00  0.00    -0.001 A 
HETATM   19  C   UNL     1       9.205  30.576  61.038  1.00  0.00     0.030 A 
HETATM   20  C   UNL     1       9.045  31.608  61.967  1.00  0.00     0.002 A 
HETATM   21  C   UNL     1       8.078  32.592  61.786  1.00  0.00     0.001 A 
HETATM   22  C   UNL     1       7.239  32.573  60.666  1.00  0.00     0.014 A 
ENDROOT
BRANCH   1  23
HETATM   23  C   UNL     1       4.074  31.836  55.803  1.00  0.00     0.289 C 
HETATM   24  O   UNL     1       4.569  32.318  54.787  1.00  0.00    -0.263 OA
BRANCH  23  25
HETATM   25  O   UNL     1       2.780  31.849  56.170  1.00  0.00    -0.325 OA
HETATM   26  C   UNL     1       1.874  32.337  55.170  1.00  0.00     0.213 C 
ENDBRANCH  23  25
ENDBRANCH   1  23
BRANCH   8  27
HETATM   27  C   UNL     1       7.016  26.123  53.710  1.00  0.00     0.273 C 
BRANCH  27  28
HETATM   28  C   UNL     1       7.532  24.721  53.856  1.00  0.00    -0.033 A 
HETATM   29  C   UNL     1       7.540  23.852  52.752  1.00  0.00     0.009 A 
HETATM   30  C   UNL     1       7.996  22.541  52.890  1.00  0.00     0.001 A 
HETATM   31  C   UNL     1       8.448  22.084  54.125  1.00  0.00     0.000 A 
HETATM   32  C   UNL     1       8.454  22.940  55.225  1.00  0.00     0.001 A 
HETATM   33  C   UNL     1       8.001  24.254  55.094  1.00  0.00     0.009 A 
ENDBRANCH  27  28
ENDBRANCH   8  27
TORSDOF 4
ENDMDL
MODEL 4
REMARK VINA RESULT:      -9.4      2.901      7.727
REMARK  4 active torsions:
REMARK  status: ('A' for Active; 'I' for Inactive)
REMARK    1  A    between atoms: O_2  and  C_3 
REMARK    2  A    between atoms: C_3  and  C_4 
REMARK    3  A    between atoms: N_11  and  C_13 
REMARK    4  A    between atoms: C_13  and  C_14 
ROOT
HETATM    1  C   UNL     1       4.433  28.155  51.044  1.00  0.00     0.290 C 
HETATM    2  N   UNL     1       5.756  27.537  51.642  1.00  0.00    -0.047 N 
HETATM    3  H   UNL     1       6.433  28.315  51.569  1.00  0.00     0.279 HD
HETATM    4  H   UNL     1       6.085  26.856  50.941  1.00  0.00     0.279 HD
HETATM    5  C   UNL     1       5.684  27.092  53.088  1.00  0.00     0.172 C 
HETATM    6  C   UNL     1       4.901  25.774  53.216  1.00  0.00     0.073 C 
HETATM    7  C   UNL     1       5.618  24.566  52.626  1.00  0.00     0.238 C 
HETATM    8  N   UNL     1       7.005  24.449  53.201  1.00  0.00    -0.067 N 
HETATM    9  H   UNL     1       6.917  24.233  54.207  1.00  0.00     0.280 HD
HETATM   10  C   UNL     1       7.837  25.689  53.031  1.00  0.00     0.238 C 
HETATM   11  C   UNL     1       7.119  26.898  53.617  1.00  0.00     0.073 C 
HETATM   12  C   UNL     1       4.983  28.207  53.820  1.00  0.00     0.053 A 
HETATM   13  C   UNL     1       4.281  29.264  53.255  1.00  0.00    -0.018 A 
HETATM   14  C   UNL     1       4.116  29.458  51.784  1.00  0.00     0.085 C 
HETATM   15  N   UNL     1       4.907  28.359  55.188  1.00  0.00    -0.356 N 
HETATM   16  H   UNL     1       5.301  27.757  55.901  1.00  0.00     0.166 HD
HETATM   17  C   UNL     1       4.205  29.501  55.501  1.00  0.00     0.043 A 
HETATM   18  C   UNL     1       3.796  30.087  54.305  1.00  0.00    -0.001 A 
HETATM   19  C   UNL     1       3.905  30.052  56.752  1.00  0.00     0.030 A 
HETATM   20  C   UNL     1       3.164  31.236  56.778  1.00  0.00     0.002 A 
HETATM   21  C   UNL     1       2.740  31.843  55.599  1.00  0.00     0.001 A 
HETATM   22  C   UNL     1       3.047  31.279  54.355  1.00  0.00     0.014 A 
ENDROOT
BRANCH   1  23
HETATM   23  C   UNL     1       4.646  28.354  49.550  1.00  0.00     0.289 C 
HETATM   24  O   UNL     1       4.591  29.487  49.078  1.00  0.00    -0.263 OA
BRANCH  23  25
HETATM   25  O   UNL     1       4.940  27.211  48.903  1.00  0.00    -0.325 OA
HETATM   26  C   UNL     1       3.839  26.304  48.749  1.00  0.00     0.213 C 
ENDBRANCH  23  25
ENDBRANCH   1  23
BRANCH   8  27
HETATM   27  C   UNL     1       7.764  23.224  52.653  1.00  0.00     0.273 C 
BRANCH  27  28
HETATM   28  C   UNL     1       7.988  22.152  53.680  1.00  0.00    -0.033 A 
HETATM   29  C   UNL     1       7.660  22.383  55.026  1.00  0.00     0.009 A 
HETATM   30  C   UNL     1       7.890  21.398  55.988  1.00  0.00     0.001 A 
HETATM   31  C   UNL     1       8.446  20.177  55.617  1.00  0.00     0.000 A 
HETATM   32  C   UNL     1       8.766  19.932  54.283  1.00  0.00     0.001 A 
HETATM   33  C   UNL     1       8.537  20.913  53.316  1.00  0.00     0.009 A 
ENDBRANCH  27  28
ENDBRANCH   8  27
TORSDOF 4
ENDMDL
MODEL 5
REMARK VINA RESULT:      -9.3      3.466      8.041
REMARK  4 active torsions:
REMARK  status: ('A' for Active; 'I' for Inactive)
REMARK    1  A    between atoms: O_2  and  C_3 
REMARK    2  A    between atoms: C_3  and  C_4 
REMARK    3  A    between atoms: N_11  and  C_13 
REMARK    4  A    between atoms: C_13  and  C_14 
ROOT
HETATM    1  C   UNL     1       4.431  29.101  53.854  1.00  0.00     0.290 C 
HETATM    2  N   UNL     1       4.551  27.536  54.010  1.00  0.00    -0.047 N 
HETATM    3  H   UNL     1       3.568  27.233  54.111  1.00  0.00     0.279 HD
HETATM    4  H   UNL     1       4.955  27.380  54.946  1.00  0.00     0.279 HD
HETATM    5  C   UNL     1       5.166  26.800  52.837  1.00  0.00     0.172 C 
HETATM    6  C   UNL     1       6.690  27.005  52.801  1.00  0.00     0.073 C 
HETATM    7  C   UNL     1       7.437  26.318  53.938  1.00  0.00     0.238 C 
HETATM    8  N   UNL     1       7.072  24.857  53.995  1.00  0.00    -0.067 N 
HETATM    9  H   UNL     1       7.430  24.405  53.138  1.00  0.00     0.280 HD
HETATM   10  C   UNL     1       5.594  24.607  54.108  1.00  0.00     0.238 C 
HETATM   11  C   UNL     1       4.847  25.297  52.975  1.00  0.00     0.073 C 
HETATM   12  C   UNL     1       4.516  27.381  51.608  1.00  0.00     0.053 A 
HETATM   13  C   UNL     1       3.756  28.541  51.536  1.00  0.00    -0.018 A 
HETATM   14  C   UNL     1       3.460  29.413  52.711  1.00  0.00     0.085 C 
HETATM   15  N   UNL     1       4.578  26.860  50.334  1.00  0.00    -0.356 N 
HETATM   16  H   UNL     1       5.062  26.025  50.028  1.00  0.00     0.166 HD
HETATM   17  C   UNL     1       3.852  27.643  49.465  1.00  0.00     0.043 A 
HETATM   18  C   UNL     1       3.327  28.709  50.193  1.00  0.00    -0.001 A 
HETATM   19  C   UNL     1       3.623  27.483  48.094  1.00  0.00     0.030 A 
HETATM   20  C   UNL     1       2.837  28.443  47.451  1.00  0.00     0.002 A 
HETATM   21  C   UNL     1       2.303  29.519  48.153  1.00  0.00     0.001 A 
HETATM   22  C   UNL     1       2.540  29.667  49.524  1.00  0.00     0.014 A 
ENDROOT
BRANCH   1  23
HETATM   23  C   UNL     1       3.979  29.669  55.193  1.00  0.00     0.289 C 
HETATM   24  O   UNL     1       3.694  28.900  56.108  1.00  0.00    -0.263 OA
BRANCH  23  25
HETATM   25  O   UNL     1       4.003  31.014  55.230  1.00  0.00    -0.325 OA
HETATM   26  C   UNL     1       3.025  31.611  56.093  1.00  0.00     0.213 C 
ENDBRANCH  23  25
ENDBRANCH   1  23
BRANCH   8  27
HETATM   27  C   UNL     1       7.823  24.111  55.115  1.00  0.00     0.273 C 
BRANCH  27  28
HETATM   28  C   UNL     1       8.099  22.671  54.792  1.00  0.00    -0.033 A 
HETATM   29  C   UNL     1       8.117  21.708  55.815  1.00  0.00     0.009 A 
HETATM   30  C   UNL     1       8.398  20.373  55.522  1.00  0.00     0.001 A 
HETATM   31  C   UNL     1       8.663  19.986  54.211  1.00  0.00     0.000 A 
HETATM   32  C   UNL     1       8.637  20.931  53.187  1.00  0.00     0.001 A 
HETATM   33  C   UNL     1       8.356  22.268  53.473  1.00  0.00     0.009 A 
ENDBRANCH  27  28
ENDBRANCH   8  27
TORSDOF 4
ENDMDL
MODEL 6
REMARK VINA RESULT:      -8.8      2.233      7.493
REMARK  4 active torsions:
REMARK  status: ('A' for Active; 'I' for Inactive)
REMARK    1  A    between atoms: O_2  and  C_3 
REMARK    2  A    between atoms: C_3  and  C_4 
REMARK    3  A    between atoms: N_11  and  C_13 
REMARK    4  A    between atoms: C_13  and  C_14 
ROOT
HETATM    1  C   UNL     1       5.380  27.051  53.742  1.00  0.00     0.290 C 
HETATM    2  N   UNL     1       6.611  26.747  54.682  1.00  0.00    -0.047 N 
HETATM    3  H   UNL     1       7.297  27.472  54.413  1.00  0.00     0.279 HD
HETATM    4  H   UNL     1       7.023  25.871  54.324  1.00  0.00     0.279 HD
HETATM    5  C   UNL     1       6.349  26.855  56.170  1.00  0.00     0.172 C 
HETATM    6  C   UNL     1       5.548  25.643  56.674  1.00  0.00     0.073 C 
HETATM    7  C   UNL     1       6.325  24.333  56.658  1.00  0.00     0.238 C 
HETATM    8  N   UNL     1       7.627  24.489  57.403  1.00  0.00    -0.067 N 
HETATM    9  H   UNL     1       7.407  24.650  58.398  1.00  0.00     0.280 HD
HETATM   10  C   UNL     1       8.482  25.616  56.894  1.00  0.00     0.238 C 
HETATM   11  C   UNL     1       7.704  26.924  56.905  1.00  0.00     0.073 C 
HETATM   12  C   UNL     1       5.569  28.131  56.352  1.00  0.00     0.053 A 
HETATM   13  C   UNL     1       4.953  28.881  55.359  1.00  0.00    -0.018 A 
HETATM   14  C   UNL     1       4.980  28.520  53.910  1.00  0.00     0.085 C 
HETATM   15  N   UNL     1       5.318  28.766  57.549  1.00  0.00    -0.356 N 
HETATM   16  H   UNL     1       5.613  28.481  58.475  1.00  0.00     0.166 HD
HETATM   17  C   UNL     1       4.590  29.914  57.335  1.00  0.00     0.043 A 
HETATM   18  C   UNL     1       4.342  30.009  55.967  1.00  0.00    -0.001 A 
HETATM   19  C   UNL     1       4.135  30.869  58.251  1.00  0.00     0.030 A 
HETATM   20  C   UNL     1       3.405  31.951  57.751  1.00  0.00     0.002 A 
HETATM   21  C   UNL     1       3.141  32.070  56.390  1.00  0.00     0.001 A 
HETATM   22  C   UNL     1       3.602  31.106  55.485  1.00  0.00     0.014 A 
ENDROOT
BRANCH   1  23
HETATM   23  C   UNL     1       5.785  26.702  52.317  1.00  0.00     0.289 C 
HETATM   24  O   UNL     1       4.968  26.832  51.409  1.00  0.00    -0.263 OA
BRANCH  23  25
HETATM   25  O   UNL     1       7.074  26.327  52.212  1.00  0.00    -0.325 OA
HETATM   26  C   UNL     1       7.276  24.951  51.862  1.00  0.00     0.213 C 
ENDBRANCH  23  25
ENDBRANCH   1  23
BRANCH   8  27
HETATM   27  C   UNL     1       8.441  23.181  57.437  1.00  0.00     0.273 C 
BRANCH  27  28
HETATM   28  C   UNL     1       8.385  22.409  56.151  1.00  0.00    -0.033 A 
HETATM   29  C   UNL     1       7.829  21.119  56.124  1.00  0.00     0.009 A 
HETATM   30  C   UNL     1       7.798  20.389  54.935  1.00  0.00     0.001 A 
HETATM   31  C   UNL     1       8.318  20.937  53.765  1.00  0.00     0.000 A 
HETATM   32  C   UNL     1       8.862  22.219  53.777  1.00  0.00     0.001 A 
HETATM   33  C   UNL     1       8.895  22.956  54.963  1.00  0.00     0.009 A 
ENDBRANCH  27  28
ENDBRANCH   8  27
TORSDOF 4
ENDMDL
MODEL 7
REMARK VINA RESULT:      -8.7      2.721      7.517
REMARK  4 active torsions:
REMARK  status: ('A' for Active; 'I' for Inactive)
REMARK    1  A    between atoms: O_2  and  C_3 
REMARK    2  A    between atoms: C_3  and  C_4 
REMARK    3  A    between atoms: N_11  and  C_13 
REMARK    4  A    between atoms: C_13  and  C_14 
ROOT
HETATM    1  C   UNL     1       6.257  28.240  55.500  1.00  0.00     0.290 C 
HETATM    2  N   UNL     1       6.214  28.407  53.932  1.00  0.00    -0.047 N 
HETATM    3  H   UNL     1       7.203  28.577  53.686  1.00  0.00     0.279 HD
HETATM    4  H   UNL     1       5.756  29.315  53.762  1.00  0.00     0.279 HD
HETATM    5  C   UNL     1       5.721  27.205  53.152  1.00  0.00     0.172 C 
HETATM    6  C   UNL     1       4.194  27.065  53.271  1.00  0.00     0.073 C 
HETATM    7  C   UNL     1       3.411  28.158  52.554  1.00  0.00     0.238 C 
HETATM    8  N   UNL     1       3.852  28.258  51.116  1.00  0.00    -0.067 N 
HETATM    9  H   UNL     1       3.578  27.385  50.637  1.00  0.00     0.280 HD
HETATM   10  C   UNL     1       5.330  28.473  50.951  1.00  0.00     0.238 C 
HETATM   11  C   UNL     1       6.112  27.383  51.671  1.00  0.00     0.073 C 
HETATM   12  C   UNL     1       6.419  26.015  53.757  1.00  0.00     0.053 A 
HETATM   13  C   UNL     1       7.116  25.979  54.958  1.00  0.00    -0.018 A 
HETATM   14  C   UNL     1       7.283  27.160  55.856  1.00  0.00     0.085 C 
HETATM   15  N   UNL     1       6.471  24.746  53.223  1.00  0.00    -0.356 N 
HETATM   16  H   UNL     1       6.056  24.420  52.359  1.00  0.00     0.166 HD
HETATM   17  C   UNL     1       7.210  23.918  54.038  1.00  0.00     0.043 A 
HETATM   18  C   UNL     1       7.624  24.666  55.138  1.00  0.00    -0.001 A 
HETATM   19  C   UNL     1       7.539  22.567  53.878  1.00  0.00     0.030 A 
HETATM   20  C   UNL     1       8.312  21.965  54.875  1.00  0.00     0.002 A 
HETATM   21  C   UNL     1       8.737  22.688  55.986  1.00  0.00     0.001 A 
HETATM   22  C   UNL     1       8.400  24.039  56.132  1.00  0.00     0.014 A 
ENDROOT
BRANCH   1  23
HETATM   23  C   UNL     1       6.585  29.598  56.104  1.00  0.00     0.289 C 
HETATM   24  O   UNL     1       5.779  30.518  55.993  1.00  0.00    -0.263 OA
BRANCH  23  25
HETATM   25  O   UNL     1       7.754  29.610  56.770  1.00  0.00    -0.325 OA
HETATM   26  C   UNL     1       7.656  29.956  58.159  1.00  0.00     0.213 C 
ENDBRANCH  23  25
ENDBRANCH   1  23
BRANCH   8  27
HETATM   27  C   UNL     1       3.070  29.335  50.339  1.00  0.00     0.273 C 
BRANCH  27  28
HETATM   28  C   UNL     1       2.330  28.794  49.150  1.00  0.00    -0.033 A 
HETATM   29  C   UNL     1       2.483  27.449  48.774  1.00  0.00     0.009 A 
HETATM   30  C   UNL     1       1.816  26.949  47.655  1.00  0.00     0.001 A 
HETATM   31  C   UNL     1       0.992  27.782  46.902  1.00  0.00     0.000 A 
HETATM   32  C   UNL     1       0.825  29.115  47.272  1.00  0.00     0.001 A 
HETATM   33  C   UNL     1       1.488  29.622  48.390  1.00  0.00     0.009 A 
ENDBRANCH  27  28
ENDBRANCH   8  27
TORSDOF 4
ENDMDL
MODEL 8
REMARK VINA RESULT:      -8.6      2.873      5.368
REMARK  4 active torsions:
REMARK  status: ('A' for Active; 'I' for Inactive)
REMARK    1  A    between atoms: O_2  and  C_3 
REMARK    2  A    between atoms: C_3  and  C_4 
REMARK    3  A    between atoms: N_11  and  C_13 
REMARK    4  A    between atoms: C_13  and  C_14 
ROOT
HETATM    1  C   UNL     1       6.626  26.008  56.217  1.00  0.00     0.290 C 
HETATM    2  N   UNL     1       6.765  26.485  54.720  1.00  0.00    -0.047 N 
HETATM    3  H   UNL     1       7.775  26.688  54.630  1.00  0.00     0.279 HD
HETATM    4  H   UNL     1       6.322  27.416  54.683  1.00  0.00     0.279 HD
HETATM    5  C   UNL     1       6.379  25.471  53.663  1.00  0.00     0.172 C 
HETATM    6  C   UNL     1       4.850  25.331  53.573  1.00  0.00     0.073 C 
HETATM    7  C   UNL     1       4.146  26.556  53.003  1.00  0.00     0.238 C 
HETATM    8  N   UNL     1       4.750  26.935  51.675  1.00  0.00    -0.067 N 
HETATM    9  H   UNL     1       4.543  26.179  51.003  1.00  0.00     0.280 HD
HETATM   10  C   UNL     1       6.236  27.158  51.730  1.00  0.00     0.238 C 
HETATM   11  C   UNL     1       6.939  25.936  52.304  1.00  0.00     0.073 C 
HETATM   12  C   UNL     1       7.013  24.174  54.096  1.00  0.00     0.053 A 
HETATM   13  C   UNL     1       7.565  23.889  55.338  1.00  0.00    -0.018 A 
HETATM   14  C   UNL     1       7.615  24.865  56.466  1.00  0.00     0.085 C 
HETATM   15  N   UNL     1       7.140  23.037  53.328  1.00  0.00    -0.356 N 
HETATM   16  H   UNL     1       6.832  22.896  52.374  1.00  0.00     0.166 HD
HETATM   17  C   UNL     1       7.787  22.053  54.041  1.00  0.00     0.043 A 
HETATM   18  C   UNL     1       8.062  22.560  55.309  1.00  0.00    -0.001 A 
HETATM   19  C   UNL     1       8.145  20.756  53.654  1.00  0.00     0.030 A 
HETATM   20  C   UNL     1       8.802  19.957  54.594  1.00  0.00     0.002 A 
HETATM   21  C   UNL     1       9.087  20.437  55.868  1.00  0.00     0.001 A 
HETATM   22  C   UNL     1       8.722  21.736  56.241  1.00  0.00     0.014 A 
ENDROOT
BRANCH   1  23
HETATM   23  C   UNL     1       6.868  27.214  57.114  1.00  0.00     0.289 C 
HETATM   24  O   UNL     1       5.944  27.990  57.343  1.00  0.00    -0.263 OA
BRANCH  23  25
HETATM   25  O   UNL     1       8.115  27.253  57.620  1.00  0.00    -0.325 OA
HETATM   26  C   UNL     1       8.903  28.375  57.197  1.00  0.00     0.213 C 
ENDBRANCH  23  25
ENDBRANCH   1  23
BRANCH   8  27
HETATM   27  C   UNL     1       4.054  28.156  51.043  1.00  0.00     0.273 C 
BRANCH  27  28
HETATM   28  C   UNL     1       4.028  29.359  51.942  1.00  0.00    -0.033 A 
HETATM   29  C   UNL     1       3.597  29.236  53.274  1.00  0.00     0.009 A 
HETATM   30  C   UNL     1       3.548  30.356  54.105  1.00  0.00     0.001 A 
HETATM   31  C   UNL     1       3.926  31.605  53.618  1.00  0.00     0.000 A 
HETATM   32  C   UNL     1       4.365  31.736  52.302  1.00  0.00     0.001 A 
HETATM   33  C   UNL     1       4.418  30.620  51.466  1.00  0.00     0.009 A 
ENDBRANCH  27  28
ENDBRANCH   8  27
TORSDOF 4
ENDMDL
MODEL 9
REMARK VINA RESULT:      -8.6      2.707      6.223
REMARK  4 active torsions:
REMARK  status: ('A' for Active; 'I' for Inactive)
REMARK    1  A    between atoms: O_2  and  C_3 
REMARK    2  A    between atoms: C_3  and  C_4 
REMARK    3  A    between atoms: N_11  and  C_13 
REMARK    4  A    between atoms: C_13  and  C_14 
ROOT
HETATM    1  C   UNL     1       6.864  26.213  56.056  1.00  0.00     0.290 C 
HETATM    2  N   UNL     1       6.772  26.803  54.595  1.00  0.00    -0.047 N 
HETATM    3  H   UNL     1       7.756  27.018  54.366  1.00  0.00     0.279 HD
HETATM    4  H   UNL     1       6.333  27.730  54.698  1.00  0.00     0.279 HD
HETATM    5  C   UNL     1       6.222  25.868  53.538  1.00  0.00     0.172 C 
HETATM    6  C   UNL     1       4.697  25.725  53.675  1.00  0.00     0.073 C 
HETATM    7  C   UNL     1       3.919  26.984  53.314  1.00  0.00     0.238 C 
HETATM    8  N   UNL     1       4.312  27.466  51.942  1.00  0.00    -0.067 N 
HETATM    9  H   UNL     1       4.000  26.762  51.254  1.00  0.00     0.280 HD
HETATM   10  C   UNL     1       5.789  27.695  51.782  1.00  0.00     0.238 C 
HETATM   11  C   UNL     1       6.567  26.438  52.147  1.00  0.00     0.073 C 
HETATM   12  C   UNL     1       6.909  24.547  53.767  1.00  0.00     0.053 A 
HETATM   13  C   UNL     1       7.645  24.173  54.884  1.00  0.00    -0.018 A 
HETATM   14  C   UNL     1       7.874  25.061  56.062  1.00  0.00     0.085 C 
HETATM   15  N   UNL     1       6.910  23.471  52.906  1.00  0.00    -0.356 N 
HETATM   16  H   UNL     1       6.458  23.401  52.002  1.00  0.00     0.166 HD
HETATM   17  C   UNL     1       7.655  22.441  53.433  1.00  0.00     0.043 A 
HETATM   18  C   UNL     1       8.125  22.853  54.679  1.00  0.00    -0.001 A 
HETATM   19  C   UNL     1       7.943  21.180  52.899  1.00  0.00     0.030 A 
HETATM   20  C   UNL     1       8.734  20.317  53.662  1.00  0.00     0.002 A 
HETATM   21  C   UNL     1       9.215  20.701  54.910  1.00  0.00     0.001 A 
HETATM   22  C   UNL     1       8.919  21.966  55.432  1.00  0.00     0.014 A 
ENDROOT
BRANCH   1  23
HETATM   23  C   UNL     1       7.248  27.349  56.993  1.00  0.00     0.289 C 
HETATM   24  O   UNL     1       7.855  27.096  58.031  1.00  0.00    -0.263 OA
BRANCH  23  25
HETATM   25  O   UNL     1       6.907  28.561  56.519  1.00  0.00    -0.325 OA
HETATM   26  C   UNL     1       6.005  29.304  57.352  1.00  0.00     0.213 C 
ENDBRANCH  23  25
ENDBRANCH   1  23
BRANCH   8  27
HETATM   27  C   UNL     1       3.532  28.727  51.519  1.00  0.00     0.273 C 
BRANCH  27  28
HETATM   28  C   UNL     1       4.239  29.544  50.476  1.00  0.00    -0.033 A 
HETATM   29  C   UNL     1       4.135  29.199  49.119  1.00  0.00     0.009 A 
HETATM   30  C   UNL     1       4.810  29.941  48.148  1.00  0.00     0.001 A 
HETATM   31  C   UNL     1       5.591  31.031  48.521  1.00  0.00     0.000 A 
HETATM   32  C   UNL     1       5.693  31.389  49.864  1.00  0.00     0.001 A 
HETATM   33  C   UNL     1       5.020  30.652  50.839  1.00  0.00     0.009 A 
ENDBRANCH  27  28
ENDBRANCH   8  27
TORSDOF 4
ENDMDL
MODEL 10
REMARK VINA RESULT:      -8.4      1.499      1.941
REMARK  4 active torsions:
REMARK  status: ('A' for Active; 'I' for Inactive)
REMARK    1  A    between atoms: O_2  and  C_3 
REMARK    2  A    between atoms: C_3  and  C_4 
REMARK    3  A    between atoms: N_11  and  C_13 
REMARK    4  A    between atoms: C_13  and  C_14 
ROOT
HETATM    1  C   UNL     1       5.921  26.564  52.110  1.00  0.00     0.290 C 
HETATM    2  N   UNL     1       5.105  27.010  53.385  1.00  0.00    -0.047 N 
HETATM    3  H   UNL     1       4.325  26.332  53.415  1.00  0.00     0.279 HD
HETATM    4  H   UNL     1       4.651  27.899  53.127  1.00  0.00     0.279 HD
HETATM    5  C   UNL     1       5.851  26.947  54.702  1.00  0.00     0.172 C 
HETATM    6  C   UNL     1       6.849  28.112  54.821  1.00  0.00     0.073 C 
HETATM    7  C   UNL     1       6.195  29.479  54.976  1.00  0.00     0.238 C 
HETATM    8  N   UNL     1       5.218  29.463  56.124  1.00  0.00    -0.067 N 
HETATM    9  H   UNL     1       5.753  29.329  56.997  1.00  0.00     0.280 HD
HETATM   10  C   UNL     1       4.174  28.388  56.013  1.00  0.00     0.238 C 
HETATM   11  C   UNL     1       4.827  27.022  55.853  1.00  0.00     0.073 C 
HETATM   12  C   UNL     1       6.567  25.622  54.700  1.00  0.00     0.053 A 
HETATM   13  C   UNL     1       6.761  24.780  53.612  1.00  0.00    -0.018 A 
HETATM   14  C   UNL     1       6.263  25.077  52.236  1.00  0.00     0.085 C 
HETATM   15  N   UNL     1       7.172  25.024  55.784  1.00  0.00    -0.356 N 
HETATM   16  H   UNL     1       7.228  25.373  56.733  1.00  0.00     0.166 HD
HETATM   17  C   UNL     1       7.711  23.811  55.418  1.00  0.00     0.043 A 
HETATM   18  C   UNL     1       7.471  23.635  54.056  1.00  0.00    -0.001 A 
HETATM   19  C   UNL     1       8.391  22.864  56.192  1.00  0.00     0.030 A 
HETATM   20  C   UNL     1       8.839  21.705  55.552  1.00  0.00     0.002 A 
HETATM   21  C   UNL     1       8.616  21.504  54.194  1.00  0.00     0.001 A 
HETATM   22  C   UNL     1       7.934  22.461  53.432  1.00  0.00     0.014 A 
ENDROOT
BRANCH   1  23
HETATM   23  C   UNL     1       5.076  26.881  50.883  1.00  0.00     0.289 C 
HETATM   24  O   UNL     1       4.931  28.051  50.537  1.00  0.00    -0.263 OA
BRANCH  23  25
HETATM   25  O   UNL     1       4.615  25.780  50.262  1.00  0.00    -0.325 OA
HETATM   26  C   UNL     1       3.913  26.027  49.036  1.00  0.00     0.213 C 
ENDBRANCH  23  25
ENDBRANCH   1  23
BRANCH   8  27
HETATM   27  C   UNL     1       4.547  30.834  56.339  1.00  0.00     0.273 C 
BRANCH  27  28
HETATM   28  C   UNL     1       4.617  31.317  57.758  1.00  0.00    -0.033 A 
HETATM   29  C   UNL     1       5.801  31.891  58.252  1.00  0.00     0.009 A 
HETATM   30  C   UNL     1       5.878  32.318  59.578  1.00  0.00     0.001 A 
HETATM   31  C   UNL     1       4.780  32.179  60.422  1.00  0.00     0.000 A 
HETATM   32  C   UNL     1       3.597  31.621  59.941  1.00  0.00     0.001 A 
HETATM   33  C   UNL     1       3.512  31.192  58.615  1.00  0.00     0.009 A 
ENDBRANCH  27  28
ENDBRANCH   8  27
TORSDOF 4
ENDMDL
