MODEL 1
REMARK VINA RESULT:      -8.2      0.000      0.000
REMARK  4 active torsions:
REMARK  status: ('A' for Active; 'I' for Inactive)
REMARK    1  A    between atoms: C_3  and  N_4 
REMARK       I    between atoms: N_4  and  C_5 
REMARK    2  A    between atoms: C_5  and  C_6 
REMARK    3  A    between atoms: C_7  and  C_8 
REMARK    4  A    between atoms: C_16  and  C_17 
ROOT
HETATM    1  C   UNL     1       7.618  24.933  52.184  1.00  0.00     0.003 A 
HETATM    2  C   UNL     1       7.050  25.755  53.159  1.00  0.00     0.029 A 
HETATM    3  C   UNL     1       6.885  25.291  54.464  1.00  0.00     0.035 A 
HETATM    4  C   UNL     1       7.292  23.986  54.777  1.00  0.00     0.042 A 
HETATM    5  C   UNL     1       7.865  23.147  53.807  1.00  0.00    -0.021 A 
HETATM    6  C   UNL     1       8.023  23.638  52.505  1.00  0.00     0.012 A 
ENDROOT
BRANCH   3   7
HETATM    7  N   UNL     1       6.299  26.051  55.497  1.00  0.00    -0.327 N 
HETATM    8  C   UNL     1       6.844  27.122  56.168  1.00  0.00     0.227 C 
HETATM    9  O   UNL     1       7.989  27.540  56.053  1.00  0.00    -0.273 OA
HETATM   10  H   UNL     1       5.415  25.707  55.858  1.00  0.00     0.169 HD
BRANCH   8  11
HETATM   11  C   UNL     1       5.943  27.865  57.099  1.00  0.00     0.089 A 
HETATM   12  C   UNL     1       4.660  28.567  56.706  1.00  0.00     0.057 A 
HETATM   13  C   UNL     1       5.856  29.352  57.214  1.00  0.00     0.027 A 
BRANCH  12  14
HETATM   14  C   UNL     1       4.243  28.832  55.272  1.00  0.00     0.057 A 
HETATM   15  O   UNL     1       4.240  27.911  54.267  1.00  0.00    -0.327 OA
HETATM   16  C   UNL     1       3.831  28.551  53.141  1.00  0.00     0.142 A 
HETATM   17  C   UNL     1       3.582  29.877  53.405  1.00  0.00     0.027 A 
HETATM   18  C   UNL     1       3.853  30.060  54.782  1.00  0.00     0.035 A 
ENDBRANCH  12  14
ENDBRANCH   8  11
ENDBRANCH   3   7
BRANCH   5  19
HETATM   19  C   UNL     1       8.290  21.802  54.160  1.00  0.00     0.010 A 
HETATM   20  C   UNL     1       8.454  20.644  53.363  1.00  0.00     0.152 A 
HETATM   21  N   UNL     1       8.878  19.588  54.061  1.00  0.00    -0.187 NA
HETATM   22  N   UNL     1       8.987  20.063  55.312  1.00  0.00    -0.289 N 
HETATM   23  H   UNL     1       9.301  19.432  56.041  1.00  0.00     0.188 HD
HETATM   24  C   UNL     1       8.650  21.381  55.423  1.00  0.00     0.123 A 
ENDBRANCH   5  19
TORSDOF 4
ENDMDL
MODEL 2
REMARK VINA RESULT:      -8.1      1.792      3.204
REMARK  4 active torsions:
REMARK  status: ('A' for Active; 'I' for Inactive)
REMARK    1  A    between atoms: C_3  and  N_4 
REMARK       I    between atoms: N_4  and  C_5 
REMARK    2  A    between atoms: C_5  and  C_6 
REMARK    3  A    between atoms: C_7  and  C_8 
REMARK    4  A    between atoms: C_16  and  C_17 
ROOT
HETATM    1  C   UNL     1       7.834  24.672  52.142  1.00  0.00     0.003 A 
HETATM    2  C   UNL     1       7.453  25.758  52.932  1.00  0.00     0.029 A 
HETATM    3  C   UNL     1       7.336  25.619  54.315  1.00  0.00     0.035 A 
HETATM    4  C   UNL     1       7.603  24.370  54.896  1.00  0.00     0.042 A 
HETATM    5  C   UNL     1       7.988  23.268  54.115  1.00  0.00    -0.021 A 
HETATM    6  C   UNL     1       8.101  23.435  52.730  1.00  0.00     0.012 A 
ENDROOT
BRANCH   3   7
HETATM    7  N   UNL     1       6.933  26.660  55.176  1.00  0.00    -0.327 N 
HETATM    8  C   UNL     1       6.201  27.780  54.856  1.00  0.00     0.227 C 
HETATM    9  O   UNL     1       5.859  28.124  53.732  1.00  0.00    -0.273 OA
HETATM   10  H   UNL     1       7.310  26.632  56.117  1.00  0.00     0.169 HD
BRANCH   8  11
HETATM   11  C   UNL     1       5.754  28.641  55.991  1.00  0.00     0.089 A 
HETATM   12  C   UNL     1       6.633  29.601  56.765  1.00  0.00     0.057 A 
HETATM   13  C   UNL     1       6.031  28.379  57.436  1.00  0.00     0.027 A 
BRANCH  12  14
HETATM   14  C   UNL     1       8.147  29.634  56.665  1.00  0.00     0.057 A 
HETATM   15  O   UNL     1       8.871  29.353  55.544  1.00  0.00    -0.327 OA
HETATM   16  C   UNL     1      10.182  29.467  55.879  1.00  0.00     0.142 A 
HETATM   17  C   UNL     1      10.313  29.805  57.204  1.00  0.00     0.027 A 
HETATM   18  C   UNL     1       8.997  29.909  57.715  1.00  0.00     0.035 A 
ENDBRANCH  12  14
ENDBRANCH   8  11
ENDBRANCH   3   7
BRANCH   5  19
HETATM   19  C   UNL     1       8.271  21.988  54.744  1.00  0.00     0.010 A 
HETATM   20  C   UNL     1       8.269  21.606  56.107  1.00  0.00     0.152 A 
HETATM   21  N   UNL     1       8.573  20.318  56.287  1.00  0.00    -0.187 NA
HETATM   22  N   UNL     1       8.773  19.867  55.038  1.00  0.00    -0.289 N 
HETATM   23  H   UNL     1       9.021  18.892  54.912  1.00  0.00     0.188 HD
HETATM   24  C   UNL     1       8.601  20.825  54.081  1.00  0.00     0.123 A 
ENDBRANCH   5  19
TORSDOF 4
ENDMDL
MODEL 3
REMARK VINA RESULT:      -8.1      3.070      7.039
REMARK  4 active torsions:
REMARK  status: ('A' for Active; 'I' for Inactive)
REMARK    1  A    between atoms: C_3  and  N_4 
REMARK       I    between atoms: N_4  and  C_5 
REMARK    2  A    between atoms: C_5  and  C_6 
REMARK    3  A    between atoms: C_7  and  C_8 
REMARK    4  A    between atoms: C_16  and  C_17 
ROOT
HETATM    1  C   UNL     1       5.625  28.136  57.241  1.00  0.00     0.003 A 
HETATM    2  C   UNL     1       6.022  26.899  56.730  1.00  0.00     0.029 A 
HETATM    3  C   UNL     1       7.374  26.621  56.527  1.00  0.00     0.035 A 
HETATM    4  C   UNL     1       8.324  27.606  56.838  1.00  0.00     0.042 A 
HETATM    5  C   UNL     1       7.939  28.854  57.353  1.00  0.00    -0.021 A 
HETATM    6  C   UNL     1       6.577  29.107  57.552  1.00  0.00     0.012 A 
ENDROOT
BRANCH   3   7
HETATM    7  N   UNL     1       7.852  25.407  55.992  1.00  0.00    -0.327 N 
HETATM    8  C   UNL     1       8.516  24.400  56.653  1.00  0.00     0.227 C 
HETATM    9  O   UNL     1       8.903  24.430  57.815  1.00  0.00    -0.273 OA
HETATM   10  H   UNL     1       7.791  25.309  54.984  1.00  0.00     0.169 HD
BRANCH   8  11
HETATM   11  C   UNL     1       8.757  23.137  55.893  1.00  0.00     0.089 A 
HETATM   12  C   UNL     1       8.417  22.912  54.435  1.00  0.00     0.057 A 
HETATM   13  C   UNL     1       7.711  22.133  55.531  1.00  0.00     0.027 A 
BRANCH  12  14
HETATM   14  C   UNL     1       7.551  23.846  53.611  1.00  0.00     0.057 A 
HETATM   15  O   UNL     1       6.241  24.132  53.858  1.00  0.00    -0.327 OA
HETATM   16  C   UNL     1       5.828  24.981  52.881  1.00  0.00     0.142 A 
HETATM   17  C   UNL     1       6.852  25.235  52.001  1.00  0.00     0.027 A 
HETATM   18  C   UNL     1       7.965  24.498  52.469  1.00  0.00     0.035 A 
ENDBRANCH  12  14
ENDBRANCH   8  11
ENDBRANCH   3   7
BRANCH   5  19
HETATM   19  C   UNL     1       8.945  29.853  57.679  1.00  0.00     0.010 A 
HETATM   20  C   UNL     1      10.246  30.059  57.162  1.00  0.00     0.152 A 
HETATM   21  N   UNL     1      10.867  31.104  57.715  1.00  0.00    -0.187 NA
HETATM   22  N   UNL     1       9.965  31.575  58.591  1.00  0.00    -0.289 N 
HETATM   23  H   UNL     1      10.211  32.388  59.145  1.00  0.00     0.188 HD
HETATM   24  C   UNL     1       8.799  30.864  58.605  1.00  0.00     0.123 A 
ENDBRANCH   5  19
TORSDOF 4
ENDMDL
MODEL 4
REMARK VINA RESULT:      -8.0      3.988      7.882
REMARK  4 active torsions:
REMARK  status: ('A' for Active; 'I' for Inactive)
REMARK    1  A    between atoms: C_3  and  N_4 
REMARK       I    between atoms: N_4  and  C_5 
REMARK    2  A    between atoms: C_5  and  C_6 
REMARK    3  A    between atoms: C_7  and  C_8 
REMARK    4  A    between atoms: C_16  and  C_17 
ROOT
HETATM    1  C   UNL     1      10.260  29.932  56.902  1.00  0.00     0.003 A 
HETATM    2  C   UNL     1       9.427  28.870  56.545  1.00  0.00     0.029 A 
HETATM    3  C   UNL     1       8.342  28.522  57.351  1.00  0.00     0.035 A 
HETATM    4  C   UNL     1       8.108  29.252  58.525  1.00  0.00     0.042 A 
HETATM    5  C   UNL     1       8.936  30.324  58.897  1.00  0.00    -0.021 A 
HETATM    6  C   UNL     1      10.016  30.655  58.070  1.00  0.00     0.012 A 
ENDROOT
BRANCH   3   7
HETATM    7  N   UNL     1       7.472  27.449  57.072  1.00  0.00    -0.327 N 
HETATM    8  C   UNL     1       7.632  26.125  57.412  1.00  0.00     0.227 C 
HETATM    9  O   UNL     1       8.623  25.627  57.932  1.00  0.00    -0.273 OA
HETATM   10  H   UNL     1       6.687  27.657  56.463  1.00  0.00     0.169 HD
BRANCH   8  11
HETATM   11  C   UNL     1       6.476  25.217  57.153  1.00  0.00     0.089 A 
HETATM   12  C   UNL     1       6.188  24.513  55.843  1.00  0.00     0.057 A 
HETATM   13  C   UNL     1       5.248  25.578  56.381  1.00  0.00     0.027 A 
BRANCH  12  14
HETATM   14  C   UNL     1       6.888  24.833  54.536  1.00  0.00     0.057 A 
HETATM   15  O   UNL     1       7.329  26.067  54.158  1.00  0.00    -0.327 OA
HETATM   16  C   UNL     1       7.869  25.933  52.919  1.00  0.00     0.142 A 
HETATM   17  C   UNL     1       7.769  24.632  52.488  1.00  0.00     0.027 A 
HETATM   18  C   UNL     1       7.131  23.921  53.532  1.00  0.00     0.035 A 
ENDBRANCH  12  14
ENDBRANCH   8  11
ENDBRANCH   3   7
BRANCH   5  19
HETATM   19  C   UNL     1       8.664  31.072  60.113  1.00  0.00     0.010 A 
HETATM   20  C   UNL     1       9.022  30.814  61.458  1.00  0.00     0.152 A 
HETATM   21  N   UNL     1       8.591  31.757  62.301  1.00  0.00    -0.187 NA
HETATM   22  N   UNL     1       7.953  32.624  61.501  1.00  0.00    -0.289 N 
HETATM   23  H   UNL     1       7.530  33.445  61.920  1.00  0.00     0.188 HD
HETATM   24  C   UNL     1       7.971  32.262  60.184  1.00  0.00     0.123 A 
ENDBRANCH   5  19
TORSDOF 4
ENDMDL
MODEL 5
REMARK VINA RESULT:      -8.0      1.839      3.014
REMARK  4 active torsions:
REMARK  status: ('A' for Active; 'I' for Inactive)
REMARK    1  A    between atoms: C_3  and  N_4 
REMARK       I    between atoms: N_4  and  C_5 
REMARK    2  A    between atoms: C_5  and  C_6 
REMARK    3  A    between atoms: C_7  and  C_8 
REMARK    4  A    between atoms: C_16  and  C_17 
ROOT
HETATM    1  C   UNL     1       8.712  24.487  57.414  1.00  0.00     0.003 A 
HETATM    2  C   UNL     1       7.702  25.429  57.212  1.00  0.00     0.029 A 
HETATM    3  C   UNL     1       6.812  25.292  56.147  1.00  0.00     0.035 A 
HETATM    4  C   UNL     1       6.951  24.197  55.282  1.00  0.00     0.042 A 
HETATM    5  C   UNL     1       7.962  23.240  55.473  1.00  0.00    -0.021 A 
HETATM    6  C   UNL     1       8.840  23.398  56.551  1.00  0.00     0.012 A 
ENDROOT
BRANCH   3   7
HETATM    7  N   UNL     1       5.783  26.214  55.862  1.00  0.00    -0.327 N 
HETATM    8  C   UNL     1       5.904  27.459  55.290  1.00  0.00     0.227 C 
HETATM    9  O   UNL     1       6.952  28.033  55.022  1.00  0.00    -0.273 OA
HETATM   10  H   UNL     1       4.861  25.975  56.210  1.00  0.00     0.169 HD
BRANCH   8  11
HETATM   11  C   UNL     1       4.637  28.164  54.932  1.00  0.00     0.089 A 
HETATM   12  C   UNL     1       3.906  28.039  53.611  1.00  0.00     0.057 A 
HETATM   13  C   UNL     1       4.535  29.355  54.034  1.00  0.00     0.027 A 
BRANCH  12  14
HETATM   14  C   UNL     1       4.492  27.382  52.376  1.00  0.00     0.057 A 
HETATM   15  O   UNL     1       4.516  27.928  51.127  1.00  0.00    -0.327 OA
HETATM   16  C   UNL     1       5.097  27.015  50.305  1.00  0.00     0.142 A 
HETATM   17  C   UNL     1       5.434  25.882  51.006  1.00  0.00     0.027 A 
HETATM   18  C   UNL     1       5.039  26.117  52.345  1.00  0.00     0.035 A 
ENDBRANCH  12  14
ENDBRANCH   8  11
ENDBRANCH   3   7
BRANCH   5  19
HETATM   19  C   UNL     1       8.077  22.107  54.569  1.00  0.00     0.010 A 
HETATM   20  C   UNL     1       8.481  20.771  54.806  1.00  0.00     0.152 A 
HETATM   21  N   UNL     1       8.443  20.013  53.708  1.00  0.00    -0.187 NA
HETATM   22  N   UNL     1       8.016  20.860  52.758  1.00  0.00    -0.289 N 
HETATM   23  H   UNL     1       7.905  20.508  51.813  1.00  0.00     0.188 HD
HETATM   24  C   UNL     1       7.781  22.122  53.223  1.00  0.00     0.123 A 
ENDBRANCH   5  19
TORSDOF 4
ENDMDL
MODEL 6
REMARK VINA RESULT:      -7.9      6.721     10.957
REMARK  4 active torsions:
REMARK  status: ('A' for Active; 'I' for Inactive)
REMARK    1  A    between atoms: C_3  and  N_4 
REMARK       I    between atoms: N_4  and  C_5 
REMARK    2  A    between atoms: C_5  and  C_6 
REMARK    3  A    between atoms: C_7  and  C_8 
REMARK    4  A    between atoms: C_16  and  C_17 
ROOT
HETATM    1  C   UNL     1       8.082  32.721  63.778  1.00  0.00     0.003 A 
HETATM    2  C   UNL     1       8.324  32.027  62.591  1.00  0.00     0.029 A 
HETATM    3  C   UNL     1       7.286  31.789  61.689  1.00  0.00     0.035 A 
HETATM    4  C   UNL     1       5.999  32.253  61.997  1.00  0.00     0.042 A 
HETATM    5  C   UNL     1       5.741  32.954  63.187  1.00  0.00    -0.021 A 
HETATM    6  C   UNL     1       6.799  33.183  64.074  1.00  0.00     0.012 A 
ENDROOT
BRANCH   3   7
HETATM    7  N   UNL     1       7.444  31.075  60.483  1.00  0.00    -0.327 N 
HETATM    8  C   UNL     1       8.189  31.435  59.384  1.00  0.00     0.227 C 
HETATM    9  O   UNL     1       8.767  32.502  59.220  1.00  0.00    -0.273 OA
HETATM   10  H   UNL     1       6.862  30.251  60.373  1.00  0.00     0.169 HD
BRANCH   8  11
HETATM   11  C   UNL     1       8.333  30.415  58.303  1.00  0.00     0.089 A 
HETATM   12  C   UNL     1       7.245  30.003  57.333  1.00  0.00     0.057 A 
HETATM   13  C   UNL     1       7.796  29.021  58.353  1.00  0.00     0.027 A 
BRANCH  12  14
HETATM   14  C   UNL     1       5.784  30.381  57.487  1.00  0.00     0.057 A 
HETATM   15  O   UNL     1       5.288  31.262  58.401  1.00  0.00    -0.327 OA
HETATM   16  C   UNL     1       3.941  31.298  58.229  1.00  0.00     0.142 A 
HETATM   17  C   UNL     1       3.562  30.439  57.226  1.00  0.00     0.027 A 
HETATM   18  C   UNL     1       4.752  29.842  56.748  1.00  0.00     0.035 A 
ENDBRANCH  12  14
ENDBRANCH   8  11
ENDBRANCH   3   7
BRANCH   5  19
HETATM   19  C   UNL     1       4.400  33.435  63.477  1.00  0.00     0.010 A 
HETATM   20  C   UNL     1       3.210  33.376  62.713  1.00  0.00     0.152 A 
HETATM   21  N   UNL     1       2.164  33.925  63.336  1.00  0.00    -0.187 NA
HETATM   22  N   UNL     1       2.678  34.341  64.504  1.00  0.00    -0.289 N 
HETATM   23  H   UNL     1       2.062  34.800  65.165  1.00  0.00     0.188 HD
HETATM   24  C   UNL     1       4.009  34.069  64.638  1.00  0.00     0.123 A 
ENDBRANCH   5  19
TORSDOF 4
ENDMDL
MODEL 7
REMARK VINA RESULT:      -7.8      1.877      3.357
REMARK  4 active torsions:
REMARK  status: ('A' for Active; 'I' for Inactive)
REMARK    1  A    between atoms: C_3  and  N_4 
REMARK       I    between atoms: N_4  and  C_5 
REMARK    2  A    between atoms: C_5  and  C_6 
REMARK    3  A    between atoms: C_7  and  C_8 
REMARK    4  A    between atoms: C_16  and  C_17 
ROOT
HETATM    1  C   UNL     1       8.834  24.361  57.328  1.00  0.00     0.003 A 
HETATM    2  C   UNL     1       8.070  25.464  56.941  1.00  0.00     0.029 A 
HETATM    3  C   UNL     1       7.368  25.449  55.735  1.00  0.00     0.035 A 
HETATM    4  C   UNL     1       7.449  24.312  54.918  1.00  0.00     0.042 A 
HETATM    5  C   UNL     1       8.213  23.195  55.293  1.00  0.00    -0.021 A 
HETATM    6  C   UNL     1       8.904  23.233  56.510  1.00  0.00     0.012 A 
ENDROOT
BRANCH   3   7
HETATM    7  N   UNL     1       6.597  26.531  55.264  1.00  0.00    -0.327 N 
HETATM    8  C   UNL     1       5.453  27.054  55.822  1.00  0.00     0.227 C 
HETATM    9  O   UNL     1       4.840  26.597  56.779  1.00  0.00    -0.273 OA
HETATM   10  H   UNL     1       6.856  26.902  54.357  1.00  0.00     0.169 HD
BRANCH   8  11
HETATM   11  C   UNL     1       4.927  28.317  55.224  1.00  0.00     0.089 A 
HETATM   12  C   UNL     1       5.402  29.714  55.564  1.00  0.00     0.057 A 
HETATM   13  C   UNL     1       3.989  29.267  55.896  1.00  0.00     0.027 A 
BRANCH  12  14
HETATM   14  C   UNL     1       6.297  30.042  56.745  1.00  0.00     0.057 A 
HETATM   15  O   UNL     1       6.037  30.983  57.696  1.00  0.00    -0.327 OA
HETATM   16  C   UNL     1       7.091  30.984  58.553  1.00  0.00     0.142 A 
HETATM   17  C   UNL     1       8.033  30.066  58.158  1.00  0.00     0.027 A 
HETATM   18  C   UNL     1       7.523  29.459  56.985  1.00  0.00     0.035 A 
ENDBRANCH  12  14
ENDBRANCH   8  11
ENDBRANCH   3   7
BRANCH   5  19
HETATM   19  C   UNL     1       8.269  22.024  54.433  1.00  0.00     0.010 A 
HETATM   20  C   UNL     1       8.699  20.701  54.697  1.00  0.00     0.152 A 
HETATM   21  N   UNL     1       8.585  19.896  53.638  1.00  0.00    -0.187 NA
HETATM   22  N   UNL     1       8.083  20.699  52.687  1.00  0.00    -0.289 N 
HETATM   23  H   UNL     1       7.905  20.306  51.769  1.00  0.00     0.188 HD
HETATM   24  C   UNL     1       7.874  21.979  53.113  1.00  0.00     0.123 A 
ENDBRANCH   5  19
TORSDOF 4
ENDMDL
MODEL 8
REMARK VINA RESULT:      -7.7      3.785      6.945
REMARK  4 active torsions:
REMARK  status: ('A' for Active; 'I' for Inactive)
REMARK    1  A    between atoms: C_3  and  N_4 
REMARK       I    between atoms: N_4  and  C_5 
REMARK    2  A    between atoms: C_5  and  C_6 
REMARK    3  A    between atoms: C_7  and  C_8 
REMARK    4  A    between atoms: C_16  and  C_17 
ROOT
HETATM    1  C   UNL     1       5.106  27.983  52.904  1.00  0.00     0.003 A 
HETATM    2  C   UNL     1       5.562  26.783  53.454  1.00  0.00     0.029 A 
HETATM    3  C   UNL     1       5.691  25.646  52.656  1.00  0.00     0.035 A 
HETATM    4  C   UNL     1       5.351  25.727  51.298  1.00  0.00     0.042 A 
HETATM    5  C   UNL     1       4.892  26.927  50.731  1.00  0.00    -0.021 A 
HETATM    6  C   UNL     1       4.774  28.055  51.551  1.00  0.00     0.012 A 
ENDROOT
BRANCH   3   7
HETATM    7  N   UNL     1       6.120  24.393  53.141  1.00  0.00    -0.327 N 
HETATM    8  C   UNL     1       7.344  23.793  52.956  1.00  0.00     0.227 C 
HETATM    9  O   UNL     1       8.249  24.202  52.239  1.00  0.00    -0.273 OA
HETATM   10  H   UNL     1       5.412  23.824  53.593  1.00  0.00     0.169 HD
BRANCH   8  11
HETATM   11  C   UNL     1       7.606  22.541  53.727  1.00  0.00     0.089 A 
HETATM   12  C   UNL     1       7.646  22.432  55.237  1.00  0.00     0.057 A 
HETATM   13  C   UNL     1       8.893  22.197  54.403  1.00  0.00     0.027 A 
BRANCH  12  14
HETATM   14  C   UNL     1       7.680  23.625  56.173  1.00  0.00     0.057 A 
HETATM   15  O   UNL     1       6.739  24.610  56.232  1.00  0.00    -0.327 OA
HETATM   16  C   UNL     1       7.152  25.499  57.173  1.00  0.00     0.142 A 
HETATM   17  C   UNL     1       8.354  25.106  57.710  1.00  0.00     0.027 A 
HETATM   18  C   UNL     1       8.699  23.897  57.061  1.00  0.00     0.035 A 
ENDBRANCH  12  14
ENDBRANCH   8  11
ENDBRANCH   3   7
BRANCH   5  19
HETATM   19  C   UNL     1       4.557  26.988  49.317  1.00  0.00     0.010 A 
HETATM   20  C   UNL     1       3.848  26.081  48.494  1.00  0.00     0.152 A 
HETATM   21  N   UNL     1       3.733  26.502  47.232  1.00  0.00    -0.187 NA
HETATM   22  N   UNL     1       4.371  27.684  47.239  1.00  0.00    -0.289 N 
HETATM   23  H   UNL     1       4.419  28.210  46.373  1.00  0.00     0.188 HD
HETATM   24  C   UNL     1       4.877  28.020  48.461  1.00  0.00     0.123 A 
ENDBRANCH   5  19
TORSDOF 4
ENDMDL
MODEL 9
REMARK VINA RESULT:      -7.7      9.504     13.082
REMARK  4 active torsions:
REMARK  status: ('A' for Active; 'I' for Inactive)
REMARK    1  A    between atoms: C_3  and  N_4 
REMARK       I    between atoms: N_4  and  C_5 
REMARK    2  A    between atoms: C_5  and  C_6 
REMARK    3  A    between atoms: C_7  and  C_8 
REMARK    4  A    between atoms: C_16  and  C_17 
ROOT
HETATM    1  C   UNL     1       8.447  32.063  63.033  1.00  0.00     0.003 A 
HETATM    2  C   UNL     1       7.718  32.972  63.803  1.00  0.00     0.029 A 
HETATM    3  C   UNL     1       6.592  33.602  63.271  1.00  0.00     0.035 A 
HETATM    4  C   UNL     1       6.210  33.311  61.953  1.00  0.00     0.042 A 
HETATM    5  C   UNL     1       6.934  32.399  61.168  1.00  0.00    -0.021 A 
HETATM    6  C   UNL     1       8.057  31.777  61.725  1.00  0.00     0.012 A 
ENDROOT
BRANCH   3   7
HETATM    7  N   UNL     1       5.819  34.549  63.974  1.00  0.00    -0.327 N 
HETATM    8  C   UNL     1       4.897  34.311  64.968  1.00  0.00     0.227 C 
HETATM    9  O   UNL     1       4.506  33.214  65.345  1.00  0.00    -0.273 OA
HETATM   10  H   UNL     1       5.874  35.505  63.641  1.00  0.00     0.169 HD
BRANCH   8  11
HETATM   11  C   UNL     1       4.344  35.505  65.675  1.00  0.00     0.089 A 
HETATM   12  C   UNL     1       4.654  35.900  67.104  1.00  0.00     0.057 A 
HETATM   13  C   UNL     1       3.254  35.475  66.697  1.00  0.00     0.027 A 
BRANCH  12  14
HETATM   14  C   UNL     1       5.366  35.001  68.097  1.00  0.00     0.057 A 
HETATM   15  O   UNL     1       4.830  33.895  68.688  1.00  0.00    -0.327 OA
HETATM   16  C   UNL     1       5.774  33.394  69.526  1.00  0.00     0.142 A 
HETATM   17  C   UNL     1       6.907  34.171  69.493  1.00  0.00     0.027 A 
HETATM   18  C   UNL     1       6.643  35.213  68.573  1.00  0.00     0.035 A 
ENDBRANCH  12  14
ENDBRANCH   8  11
ENDBRANCH   3   7
BRANCH   5  19
HETATM   19  C   UNL     1       6.509  32.105  59.808  1.00  0.00     0.010 A 
HETATM   20  C   UNL     1       7.078  31.263  58.823  1.00  0.00     0.152 A 
HETATM   21  N   UNL     1       6.379  31.248  57.685  1.00  0.00    -0.187 NA
HETATM   22  N   UNL     1       5.358  32.083  57.934  1.00  0.00    -0.289 N 
HETATM   23  H   UNL     1       4.673  32.239  57.203  1.00  0.00     0.188 HD
HETATM   24  C   UNL     1       5.389  32.619  59.190  1.00  0.00     0.123 A 
ENDBRANCH   5  19
TORSDOF 4
ENDMDL
MODEL 10
REMARK VINA RESULT:      -7.6      2.685      7.400
REMARK  4 active torsions:
REMARK  status: ('A' for Active; 'I' for Inactive)
REMARK    1  A    between atoms: C_3  and  N_4 
REMARK       I    between atoms: N_4  and  C_5 
REMARK    2  A    between atoms: C_5  and  C_6 
REMARK    3  A    between atoms: C_7  and  C_8 
REMARK    4  A    between atoms: C_16  and  C_17 
ROOT
HETATM    1  C   UNL     1       4.621  29.577  54.417  1.00  0.00     0.003 A 
HETATM    2  C   UNL     1       5.050  28.423  53.760  1.00  0.00     0.029 A 
HETATM    3  C   UNL     1       6.088  27.655  54.288  1.00  0.00     0.035 A 
HETATM    4  C   UNL     1       6.695  28.064  55.484  1.00  0.00     0.042 A 
HETATM    5  C   UNL     1       6.274  29.223  56.157  1.00  0.00    -0.021 A 
HETATM    6  C   UNL     1       5.228  29.974  55.609  1.00  0.00     0.012 A 
ENDROOT
BRANCH   3   7
HETATM    7  N   UNL     1       6.595  26.492  53.671  1.00  0.00    -0.327 N 
HETATM    8  C   UNL     1       5.986  25.263  53.564  1.00  0.00     0.227 C 
HETATM    9  O   UNL     1       4.927  24.933  54.085  1.00  0.00    -0.273 OA
HETATM   10  H   UNL     1       7.559  26.536  53.360  1.00  0.00     0.169 HD
BRANCH   8  11
HETATM   11  C   UNL     1       6.662  24.246  52.704  1.00  0.00     0.089 A 
HETATM   12  C   UNL     1       7.414  23.032  53.207  1.00  0.00     0.057 A 
HETATM   13  C   UNL     1       8.136  24.151  52.477  1.00  0.00     0.027 A 
BRANCH  12  14
HETATM   14  C   UNL     1       7.805  22.816  54.657  1.00  0.00     0.057 A 
HETATM   15  O   UNL     1       8.128  23.800  55.543  1.00  0.00    -0.327 OA
HETATM   16  C   UNL     1       8.442  23.192  56.717  1.00  0.00     0.142 A 
HETATM   17  C   UNL     1       8.338  21.828  56.594  1.00  0.00     0.027 A 
HETATM   18  C   UNL     1       7.931  21.583  55.261  1.00  0.00     0.035 A 
ENDBRANCH  12  14
ENDBRANCH   8  11
ENDBRANCH   3   7
BRANCH   5  19
HETATM   19  C   UNL     1       6.912  29.619  57.402  1.00  0.00     0.010 A 
HETATM   20  C   UNL     1       8.006  29.056  58.102  1.00  0.00     0.152 A 
HETATM   21  N   UNL     1       8.308  29.722  59.219  1.00  0.00    -0.187 NA
HETATM   22  N   UNL     1       7.408  30.717  59.243  1.00  0.00    -0.289 N 
HETATM   23  H   UNL     1       7.436  31.374  60.015  1.00  0.00     0.188 HD
HETATM   24  C   UNL     1       6.553  30.701  58.178  1.00  0.00     0.123 A 
ENDBRANCH   5  19
TORSDOF 4
ENDMDL
