MODEL 1
REMARK VINA RESULT:     -10.6      0.000      0.000
REMARK  7 active torsions:
REMARK  status: ('A' for Active; 'I' for Inactive)
REMARK    1  A    between atoms: O_2  and  C_3 
REMARK    2  A    between atoms: C_6  and  C_7 
REMARK    3  A    between atoms: C_11  and  C_12 
REMARK       I    between atoms: C_12  and  N_13 
REMARK    4  A    between atoms: N_13  and  N_14 
REMARK       I    between atoms: N_14  and  C_15 
REMARK    5  A    between atoms: C_15  and  C_16 
REMARK    6  A    between atoms: C_16  and  C_17 
REMARK    7  A    between atoms: C_17  and  C_18 
ROOT
HETATM    1  C   UNL     1       8.956  29.616  57.762  1.00  0.00     0.288 C 
HETATM    2  N   UNL     1       8.041  28.586  57.795  1.00  0.00    -0.262 N 
HETATM    3  O   UNL     1       9.822  29.683  56.890  1.00  0.00    -0.264 OA
HETATM    4  H   UNL     1       7.291  28.508  58.479  1.00  0.00     0.190 HD
ENDROOT
BRANCH   1   5
HETATM    5  C   UNL     1       8.820  30.603  58.796  1.00  0.00     0.121 A 
HETATM    6  N   UNL     1       9.555  31.753  58.791  1.00  0.00    -0.272 N 
HETATM    7  N   UNL     1       9.275  32.590  59.798  1.00  0.00    -0.174 NA
HETATM    8  H   UNL     1      10.257  32.025  58.108  1.00  0.00     0.189 HD
HETATM    9  C   UNL     1       8.330  31.960  60.512  1.00  0.00     0.089 A 
HETATM   10  C   UNL     1       8.024  30.702  59.921  1.00  0.00     0.071 A 
BRANCH   9  11
HETATM   11  C   UNL     1       7.726  32.570  61.700  1.00  0.00    -0.005 A 
HETATM   12  C   UNL     1       8.287  32.359  62.967  1.00  0.00     0.016 A 
HETATM   13  C   UNL     1       7.750  32.971  64.108  1.00  0.00     0.037 A 
HETATM   14  C   UNL     1       6.637  33.800  63.997  1.00  0.00     0.068 A 
HETATM   15  C   UNL     1       6.055  33.994  62.742  1.00  0.00     0.037 A 
HETATM   16  C   UNL     1       6.594  33.389  61.601  1.00  0.00     0.016 A 
BRANCH  14  17
HETATM   17  O   UNL     1       6.024  34.465  65.022  1.00  0.00    -0.356 OA
HETATM   18  C   UNL     1       4.914  33.814  65.629  1.00  0.00     0.210 C 
ENDBRANCH  14  17
ENDBRANCH   9  11
ENDBRANCH   1   5
BRANCH   2  19
HETATM   19  N   UNL     1       8.068  27.624  56.781  1.00  0.00    -0.267 N 
HETATM   20  C   UNL     1       7.921  26.302  57.134  1.00  0.00     0.236 C 
HETATM   21  O   UNL     1       7.861  25.928  58.304  1.00  0.00    -0.272 OA
HETATM   22  H   UNL     1       7.982  27.968  55.825  1.00  0.00     0.190 HD
BRANCH  20  23
HETATM   23  C   UNL     1       7.850  25.351  55.965  1.00  0.00     0.109 C 
BRANCH  23  24
HETATM   24  C   UNL     1       7.382  23.970  56.414  1.00  0.00     0.048 C 
BRANCH  24  25
HETATM   25  C   UNL     1       7.601  22.928  55.344  1.00  0.00    -0.058 A 
HETATM   26  C   UNL     1       7.614  23.290  53.988  1.00  0.00     0.010 A 
HETATM   27  C   UNL     1       7.807  22.322  53.002  1.00  0.00     0.043 A 
HETATM   28  C   UNL     1       7.983  20.993  53.370  1.00  0.00     0.116 A 
HETATM   29  F   UNL     1       8.166  20.065  52.422  1.00  0.00    -0.206 F 
HETATM   30  C   UNL     1       7.970  20.613  54.707  1.00  0.00     0.043 A 
HETATM   31  C   UNL     1       7.780  21.581  55.695  1.00  0.00     0.010 A 
ENDBRANCH  24  25
ENDBRANCH  23  24
ENDBRANCH  20  23
ENDBRANCH   2  19
TORSDOF 7
ENDMDL
MODEL 2
REMARK VINA RESULT:     -10.1      4.243     11.491
REMARK  7 active torsions:
REMARK  status: ('A' for Active; 'I' for Inactive)
REMARK    1  A    between atoms: O_2  and  C_3 
REMARK    2  A    between atoms: C_6  and  C_7 
REMARK    3  A    between atoms: C_11  and  C_12 
REMARK       I    between atoms: C_12  and  N_13 
REMARK    4  A    between atoms: N_13  and  N_14 
REMARK       I    between atoms: N_14  and  C_15 
REMARK    5  A    between atoms: C_15  and  C_16 
REMARK    6  A    between atoms: C_16  and  C_17 
REMARK    7  A    between atoms: C_17  and  C_18 
ROOT
HETATM    1  C   UNL     1       7.068  29.578  57.659  1.00  0.00     0.288 C 
HETATM    2  N   UNL     1       8.008  29.480  58.661  1.00  0.00    -0.262 N 
HETATM    3  O   UNL     1       6.199  30.449  57.670  1.00  0.00    -0.264 OA
HETATM    4  H   UNL     1       8.761  28.796  58.675  1.00  0.00     0.190 HD
ENDROOT
BRANCH   1   5
HETATM    5  C   UNL     1       7.181  28.611  56.603  1.00  0.00     0.121 A 
HETATM    6  N   UNL     1       7.396  28.986  55.307  1.00  0.00    -0.272 N 
HETATM    7  N   UNL     1       7.525  27.962  54.453  1.00  0.00    -0.174 NA
HETATM    8  H   UNL     1       7.479  29.934  54.952  1.00  0.00     0.189 HD
HETATM    9  C   UNL     1       7.369  26.865  55.209  1.00  0.00     0.089 A 
HETATM   10  C   UNL     1       7.139  27.231  56.565  1.00  0.00     0.071 A 
BRANCH   9  11
HETATM   11  C   UNL     1       7.472  25.517  54.643  1.00  0.00    -0.005 A 
HETATM   12  C   UNL     1       7.250  24.391  55.449  1.00  0.00     0.016 A 
HETATM   13  C   UNL     1       7.300  23.097  54.915  1.00  0.00     0.037 A 
HETATM   14  C   UNL     1       7.579  22.910  53.563  1.00  0.00     0.068 A 
HETATM   15  C   UNL     1       7.829  24.024  52.758  1.00  0.00     0.037 A 
HETATM   16  C   UNL     1       7.773  25.318  53.289  1.00  0.00     0.016 A 
BRANCH  14  17
HETATM   17  O   UNL     1       7.645  21.708  52.915  1.00  0.00    -0.356 OA
HETATM   18  C   UNL     1       8.706  20.839  53.292  1.00  0.00     0.210 C 
ENDBRANCH  14  17
ENDBRANCH   9  11
ENDBRANCH   1   5
BRANCH   2  19
HETATM   19  N   UNL     1       8.004  30.430  59.687  1.00  0.00    -0.267 N 
HETATM   20  C   UNL     1       8.752  31.572  59.518  1.00  0.00     0.236 C 
HETATM   21  O   UNL     1       9.490  31.749  58.550  1.00  0.00    -0.272 OA
HETATM   22  H   UNL     1       7.289  30.323  60.405  1.00  0.00     0.190 HD
BRANCH  20  23
HETATM   23  C   UNL     1       8.597  32.586  60.625  1.00  0.00     0.109 C 
BRANCH  23  24
HETATM   24  C   UNL     1       8.727  31.925  61.993  1.00  0.00     0.048 C 
BRANCH  24  25
HETATM   25  C   UNL     1       7.617  32.342  62.927  1.00  0.00    -0.058 A 
HETATM   26  C   UNL     1       6.282  32.020  62.636  1.00  0.00     0.010 A 
HETATM   27  C   UNL     1       5.258  32.417  63.498  1.00  0.00     0.043 A 
HETATM   28  C   UNL     1       5.567  33.138  64.645  1.00  0.00     0.116 A 
HETATM   29  F   UNL     1       4.583  33.518  65.470  1.00  0.00    -0.206 F 
HETATM   30  C   UNL     1       6.882  33.468  64.949  1.00  0.00     0.043 A 
HETATM   31  C   UNL     1       7.909  33.070  64.091  1.00  0.00     0.010 A 
ENDBRANCH  24  25
ENDBRANCH  23  24
ENDBRANCH  20  23
ENDBRANCH   2  19
TORSDOF 7
ENDMDL
MODEL 3
REMARK VINA RESULT:      -9.4      4.331     11.731
REMARK  7 active torsions:
REMARK  status: ('A' for Active; 'I' for Inactive)
REMARK    1  A    between atoms: O_2  and  C_3 
REMARK    2  A    between atoms: C_6  and  C_7 
REMARK    3  A    between atoms: C_11  and  C_12 
REMARK       I    between atoms: C_12  and  N_13 
REMARK    4  A    between atoms: N_13  and  N_14 
REMARK       I    between atoms: N_14  and  C_15 
REMARK    5  A    between atoms: C_15  and  C_16 
REMARK    6  A    between atoms: C_16  and  C_17 
REMARK    7  A    between atoms: C_17  and  C_18 
ROOT
HETATM    1  C   UNL     1       7.911  29.495  57.491  1.00  0.00     0.288 C 
HETATM    2  N   UNL     1       6.755  29.861  58.144  1.00  0.00    -0.262 N 
HETATM    3  O   UNL     1       9.000  29.992  57.777  1.00  0.00    -0.264 OA
HETATM    4  H   UNL     1       5.841  29.453  57.960  1.00  0.00     0.190 HD
ENDROOT
BRANCH   1   5
HETATM    5  C   UNL     1       7.762  28.493  56.473  1.00  0.00     0.121 A 
HETATM    6  N   UNL     1       7.538  28.824  55.168  1.00  0.00    -0.272 N 
HETATM    7  N   UNL     1       7.469  27.775  54.338  1.00  0.00    -0.174 NA
HETATM    8  H   UNL     1       7.439  29.760  54.784  1.00  0.00     0.189 HD
HETATM    9  C   UNL     1       7.634  26.703  55.129  1.00  0.00     0.089 A 
HETATM   10  C   UNL     1       7.809  27.112  56.481  1.00  0.00     0.071 A 
BRANCH   9  11
HETATM   11  C   UNL     1       7.653  25.341  54.587  1.00  0.00    -0.005 A 
HETATM   12  C   UNL     1       7.608  24.236  55.449  1.00  0.00     0.016 A 
HETATM   13  C   UNL     1       7.581  22.928  54.948  1.00  0.00     0.037 A 
HETATM   14  C   UNL     1       7.602  22.706  53.574  1.00  0.00     0.068 A 
HETATM   15  C   UNL     1       7.675  23.800  52.708  1.00  0.00     0.037 A 
HETATM   16  C   UNL     1       7.696  25.107  53.207  1.00  0.00     0.016 A 
BRANCH  14  17
HETATM   17  O   UNL     1       7.568  21.487  52.955  1.00  0.00    -0.356 OA
HETATM   18  C   UNL     1       8.687  20.635  53.164  1.00  0.00     0.210 C 
ENDBRANCH  14  17
ENDBRANCH   9  11
ENDBRANCH   1   5
BRANCH   2  19
HETATM   19  N   UNL     1       6.833  30.780  59.194  1.00  0.00    -0.267 N 
HETATM   20  C   UNL     1       6.353  32.052  58.980  1.00  0.00     0.236 C 
HETATM   21  O   UNL     1       5.946  32.437  57.885  1.00  0.00    -0.272 OA
HETATM   22  H   UNL     1       7.044  30.403  60.116  1.00  0.00     0.190 HD
BRANCH  20  23
HETATM   23  C   UNL     1       6.376  32.938  60.202  1.00  0.00     0.109 C 
BRANCH  23  24
HETATM   24  C   UNL     1       5.477  32.378  61.300  1.00  0.00     0.048 C 
BRANCH  24  25
HETATM   25  C   UNL     1       5.946  32.788  62.674  1.00  0.00    -0.058 A 
HETATM   26  C   UNL     1       5.019  33.131  63.671  1.00  0.00     0.010 A 
HETATM   27  C   UNL     1       5.458  33.519  64.937  1.00  0.00     0.043 A 
HETATM   28  C   UNL     1       6.820  33.568  65.207  1.00  0.00     0.116 A 
HETATM   29  F   UNL     1       7.239  33.941  66.423  1.00  0.00    -0.206 F 
HETATM   30  C   UNL     1       7.754  33.234  64.233  1.00  0.00     0.043 A 
HETATM   31  C   UNL     1       7.318  32.843  62.966  1.00  0.00     0.010 A 
ENDBRANCH  24  25
ENDBRANCH  23  24
ENDBRANCH  20  23
ENDBRANCH   2  19
TORSDOF 7
ENDMDL
MODEL 4
REMARK VINA RESULT:      -9.2      8.687     12.499
REMARK  7 active torsions:
REMARK  status: ('A' for Active; 'I' for Inactive)
REMARK    1  A    between atoms: O_2  and  C_3 
REMARK    2  A    between atoms: C_6  and  C_7 
REMARK    3  A    between atoms: C_11  and  C_12 
REMARK       I    between atoms: C_12  and  N_13 
REMARK    4  A    between atoms: N_13  and  N_14 
REMARK       I    between atoms: N_14  and  C_15 
REMARK    5  A    between atoms: C_15  and  C_16 
REMARK    6  A    between atoms: C_16  and  C_17 
REMARK    7  A    between atoms: C_17  and  C_18 
ROOT
HETATM    1  C   UNL     1       4.890  27.571  50.521  1.00  0.00     0.288 C 
HETATM    2  N   UNL     1       5.246  26.240  50.492  1.00  0.00    -0.262 N 
HETATM    3  O   UNL     1       5.600  28.417  51.062  1.00  0.00    -0.264 OA
HETATM    4  H   UNL     1       4.704  25.513  50.029  1.00  0.00     0.190 HD
ENDROOT
BRANCH   1   5
HETATM    5  C   UNL     1       3.652  27.899  49.871  1.00  0.00     0.121 A 
HETATM    6  N   UNL     1       2.681  28.624  50.501  1.00  0.00    -0.272 N 
HETATM    7  N   UNL     1       1.609  28.885  49.741  1.00  0.00    -0.174 NA
HETATM    8  H   UNL     1       2.707  28.981  51.452  1.00  0.00     0.189 HD
HETATM    9  C   UNL     1       1.871  28.291  48.566  1.00  0.00     0.089 A 
HETATM   10  C   UNL     1       3.141  27.650  48.612  1.00  0.00     0.071 A 
BRANCH   9  11
HETATM   11  C   UNL     1       0.940  28.372  47.437  1.00  0.00    -0.005 A 
HETATM   12  C   UNL     1       0.345  29.595  47.096  1.00  0.00     0.016 A 
HETATM   13  C   UNL     1      -0.512  29.700  45.993  1.00  0.00     0.037 A 
HETATM   14  C   UNL     1      -0.790  28.579  45.215  1.00  0.00     0.068 A 
HETATM   15  C   UNL     1      -0.223  27.351  45.564  1.00  0.00     0.037 A 
HETATM   16  C   UNL     1       0.638  27.245  46.662  1.00  0.00     0.016 A 
BRANCH  14  17
HETATM   17  O   UNL     1      -1.595  28.546  44.110  1.00  0.00    -0.356 OA
HETATM   18  C   UNL     1      -1.148  27.748  43.021  1.00  0.00     0.210 C 
ENDBRANCH  14  17
ENDBRANCH   9  11
ENDBRANCH   1   5
BRANCH   2  19
HETATM   19  N   UNL     1       6.471  25.855  51.043  1.00  0.00    -0.267 N 
HETATM   20  C   UNL     1       6.460  25.186  52.246  1.00  0.00     0.236 C 
HETATM   21  O   UNL     1       5.433  24.995  52.894  1.00  0.00    -0.272 OA
HETATM   22  H   UNL     1       7.282  25.903  50.429  1.00  0.00     0.190 HD
BRANCH  20  23
HETATM   23  C   UNL     1       7.818  24.713  52.706  1.00  0.00     0.109 C 
BRANCH  23  24
HETATM   24  C   UNL     1       7.913  23.191  52.651  1.00  0.00     0.048 C 
BRANCH  24  25
HETATM   25  C   UNL     1       8.022  22.586  54.029  1.00  0.00    -0.058 A 
HETATM   26  C   UNL     1       8.190  23.405  55.157  1.00  0.00     0.010 A 
HETATM   27  C   UNL     1       8.299  22.840  56.428  1.00  0.00     0.043 A 
HETATM   28  C   UNL     1       8.245  21.459  56.573  1.00  0.00     0.116 A 
HETATM   29  F   UNL     1       8.352  20.918  57.793  1.00  0.00    -0.206 F 
HETATM   30  C   UNL     1       8.082  20.630  55.469  1.00  0.00     0.043 A 
HETATM   31  C   UNL     1       7.969  21.193  54.196  1.00  0.00     0.010 A 
ENDBRANCH  24  25
ENDBRANCH  23  24
ENDBRANCH  20  23
ENDBRANCH   2  19
TORSDOF 7
ENDMDL
MODEL 5
REMARK VINA RESULT:      -8.9      2.523      3.421
REMARK  7 active torsions:
REMARK  status: ('A' for Active; 'I' for Inactive)
REMARK    1  A    between atoms: O_2  and  C_3 
REMARK    2  A    between atoms: C_6  and  C_7 
REMARK    3  A    between atoms: C_11  and  C_12 
REMARK       I    between atoms: C_12  and  N_13 
REMARK    4  A    between atoms: N_13  and  N_14 
REMARK       I    between atoms: N_14  and  C_15 
REMARK    5  A    between atoms: C_15  and  C_16 
REMARK    6  A    between atoms: C_16  and  C_17 
REMARK    7  A    between atoms: C_17  and  C_18 
ROOT
HETATM    1  C   UNL     1       6.171  31.782  58.898  1.00  0.00     0.288 C 
HETATM    2  N   UNL     1       6.700  30.520  58.736  1.00  0.00    -0.262 N 
HETATM    3  O   UNL     1       6.058  32.562  57.954  1.00  0.00    -0.264 OA
HETATM    4  H   UNL     1       6.782  29.834  59.483  1.00  0.00     0.190 HD
ENDROOT
BRANCH   1   5
HETATM    5  C   UNL     1       5.751  32.114  60.231  1.00  0.00     0.121 A 
HETATM    6  N   UNL     1       4.480  31.869  60.665  1.00  0.00    -0.272 N 
HETATM    7  N   UNL     1       4.263  32.193  61.946  1.00  0.00    -0.174 NA
HETATM    8  H   UNL     1       3.719  31.464  60.126  1.00  0.00     0.189 HD
HETATM    9  C   UNL     1       5.433  32.693  62.374  1.00  0.00     0.089 A 
HETATM   10  C   UNL     1       6.391  32.671  61.321  1.00  0.00     0.071 A 
BRANCH   9  11
HETATM   11  C   UNL     1       5.621  33.141  63.757  1.00  0.00    -0.005 A 
HETATM   12  C   UNL     1       6.911  33.287  64.285  1.00  0.00     0.016 A 
HETATM   13  C   UNL     1       7.111  33.757  65.589  1.00  0.00     0.037 A 
HETATM   14  C   UNL     1       6.018  34.085  66.388  1.00  0.00     0.068 A 
HETATM   15  C   UNL     1       4.728  33.917  65.880  1.00  0.00     0.037 A 
HETATM   16  C   UNL     1       4.527  33.453  64.575  1.00  0.00     0.016 A 
BRANCH  14  17
HETATM   17  O   UNL     1       6.072  34.564  67.668  1.00  0.00    -0.356 OA
HETATM   18  C   UNL     1       7.351  34.575  68.290  1.00  0.00     0.210 C 
ENDBRANCH  14  17
ENDBRANCH   9  11
ENDBRANCH   1   5
BRANCH   2  19
HETATM   19  N   UNL     1       7.066  30.100  57.454  1.00  0.00    -0.267 N 
HETATM   20  C   UNL     1       7.738  28.905  57.329  1.00  0.00     0.236 C 
HETATM   21  O   UNL     1       8.106  28.243  58.298  1.00  0.00    -0.272 OA
HETATM   22  H   UNL     1       6.635  30.592  56.673  1.00  0.00     0.190 HD
BRANCH  20  23
HETATM   23  C   UNL     1       7.991  28.481  55.903  1.00  0.00     0.109 C 
BRANCH  23  24
HETATM   24  C   UNL     1       6.798  27.714  55.342  1.00  0.00     0.048 C 
BRANCH  24  25
HETATM   25  C   UNL     1       7.224  26.450  54.637  1.00  0.00    -0.058 A 
HETATM   26  C   UNL     1       7.554  26.471  53.273  1.00  0.00     0.010 A 
HETATM   27  C   UNL     1       7.938  25.297  52.623  1.00  0.00     0.043 A 
HETATM   28  C   UNL     1       7.988  24.103  53.334  1.00  0.00     0.116 A 
HETATM   29  F   UNL     1       8.356  22.978  52.708  1.00  0.00    -0.206 F 
HETATM   30  C   UNL     1       7.662  24.062  54.684  1.00  0.00     0.043 A 
HETATM   31  C   UNL     1       7.281  25.235  55.337  1.00  0.00     0.010 A 
ENDBRANCH  24  25
ENDBRANCH  23  24
ENDBRANCH  20  23
ENDBRANCH   2  19
TORSDOF 7
ENDMDL
MODEL 6
REMARK VINA RESULT:      -8.8      2.825      3.699
REMARK  7 active torsions:
REMARK  status: ('A' for Active; 'I' for Inactive)
REMARK    1  A    between atoms: O_2  and  C_3 
REMARK    2  A    between atoms: C_6  and  C_7 
REMARK    3  A    between atoms: C_11  and  C_12 
REMARK       I    between atoms: C_12  and  N_13 
REMARK    4  A    between atoms: N_13  and  N_14 
REMARK       I    between atoms: N_14  and  C_15 
REMARK    5  A    between atoms: C_15  and  C_16 
REMARK    6  A    between atoms: C_16  and  C_17 
REMARK    7  A    between atoms: C_17  and  C_18 
ROOT
HETATM    1  C   UNL     1       5.229  28.605  55.125  1.00  0.00     0.288 C 
HETATM    2  N   UNL     1       6.024  27.495  55.308  1.00  0.00    -0.262 N 
HETATM    3  O   UNL     1       4.353  28.637  54.261  1.00  0.00    -0.264 OA
HETATM    4  H   UNL     1       6.738  27.416  56.029  1.00  0.00     0.190 HD
ENDROOT
BRANCH   1   5
HETATM    5  C   UNL     1       5.482  29.706  56.012  1.00  0.00     0.121 A 
HETATM    6  N   UNL     1       5.318  31.001  55.612  1.00  0.00    -0.272 N 
HETATM    7  N   UNL     1       5.549  31.907  56.572  1.00  0.00    -0.174 NA
HETATM    8  H   UNL     1       5.033  31.324  54.692  1.00  0.00     0.189 HD
HETATM    9  C   UNL     1       5.900  31.183  57.647  1.00  0.00     0.089 A 
HETATM   10  C   UNL     1       5.881  29.795  57.331  1.00  0.00     0.071 A 
BRANCH   9  11
HETATM   11  C   UNL     1       6.208  31.812  58.934  1.00  0.00    -0.005 A 
HETATM   12  C   UNL     1       5.229  32.552  59.612  1.00  0.00     0.016 A 
HETATM   13  C   UNL     1       5.492  33.123  60.864  1.00  0.00     0.037 A 
HETATM   14  C   UNL     1       6.743  32.966  61.455  1.00  0.00     0.068 A 
HETATM   15  C   UNL     1       7.733  32.253  60.774  1.00  0.00     0.037 A 
HETATM   16  C   UNL     1       7.470  31.677  59.526  1.00  0.00     0.016 A 
BRANCH  14  17
HETATM   17  O   UNL     1       7.126  33.458  62.672  1.00  0.00    -0.356 OA
HETATM   18  C   UNL     1       7.961  32.621  63.463  1.00  0.00     0.210 C 
ENDBRANCH  14  17
ENDBRANCH   9  11
ENDBRANCH   1   5
BRANCH   2  19
HETATM   19  N   UNL     1       5.790  26.359  54.528  1.00  0.00    -0.267 N 
HETATM   20  C   UNL     1       6.698  26.051  53.540  1.00  0.00     0.236 C 
HETATM   21  O   UNL     1       7.648  26.779  53.258  1.00  0.00    -0.272 OA
HETATM   22  H   UNL     1       5.082  25.711  54.868  1.00  0.00     0.190 HD
BRANCH  20  23
HETATM   23  C   UNL     1       6.422  24.749  52.828  1.00  0.00     0.109 C 
BRANCH  23  24
HETATM   24  C   UNL     1       7.713  23.968  52.601  1.00  0.00     0.048 C 
BRANCH  24  25
HETATM   25  C   UNL     1       7.824  22.786  53.533  1.00  0.00    -0.058 A 
HETATM   26  C   UNL     1       7.663  22.951  54.917  1.00  0.00     0.010 A 
HETATM   27  C   UNL     1       7.777  21.857  55.775  1.00  0.00     0.043 A 
HETATM   28  C   UNL     1       8.054  20.599  55.252  1.00  0.00     0.116 A 
HETATM   29  F   UNL     1       8.164  19.551  56.077  1.00  0.00    -0.206 F 
HETATM   30  C   UNL     1       8.219  20.415  53.884  1.00  0.00     0.043 A 
HETATM   31  C   UNL     1       8.103  21.508  53.023  1.00  0.00     0.010 A 
ENDBRANCH  24  25
ENDBRANCH  23  24
ENDBRANCH  20  23
ENDBRANCH   2  19
TORSDOF 7
ENDMDL
MODEL 7
REMARK VINA RESULT:      -8.8      4.494     11.451
REMARK  7 active torsions:
REMARK  status: ('A' for Active; 'I' for Inactive)
REMARK    1  A    between atoms: O_2  and  C_3 
REMARK    2  A    between atoms: C_6  and  C_7 
REMARK    3  A    between atoms: C_11  and  C_12 
REMARK       I    between atoms: C_12  and  N_13 
REMARK    4  A    between atoms: N_13  and  N_14 
REMARK       I    between atoms: N_14  and  C_15 
REMARK    5  A    between atoms: C_15  and  C_16 
REMARK    6  A    between atoms: C_16  and  C_17 
REMARK    7  A    between atoms: C_17  and  C_18 
ROOT
HETATM    1  C   UNL     1       5.186  29.378  56.896  1.00  0.00     0.288 C 
HETATM    2  N   UNL     1       4.694  29.663  58.151  1.00  0.00    -0.262 N 
HETATM    3  O   UNL     1       5.408  30.264  56.072  1.00  0.00    -0.264 OA
HETATM    4  H   UNL     1       4.526  28.965  58.872  1.00  0.00     0.190 HD
ENDROOT
BRANCH   1   5
HETATM    5  C   UNL     1       5.434  27.989  56.625  1.00  0.00     0.121 A 
HETATM    6  N   UNL     1       4.522  27.023  56.940  1.00  0.00    -0.272 N 
HETATM    7  N   UNL     1       4.884  25.785  56.579  1.00  0.00    -0.174 NA
HETATM    8  H   UNL     1       3.622  27.159  57.392  1.00  0.00     0.189 HD
HETATM    9  C   UNL     1       6.095  25.934  56.019  1.00  0.00     0.089 A 
HETATM   10  C   UNL     1       6.481  27.304  56.040  1.00  0.00     0.071 A 
BRANCH   9  11
HETATM   11  C   UNL     1       6.830  24.797  55.459  1.00  0.00    -0.005 A 
HETATM   12  C   UNL     1       7.721  24.067  56.258  1.00  0.00     0.016 A 
HETATM   13  C   UNL     1       8.399  22.950  55.752  1.00  0.00     0.037 A 
HETATM   14  C   UNL     1       8.197  22.549  54.434  1.00  0.00     0.068 A 
HETATM   15  C   UNL     1       7.332  23.287  53.622  1.00  0.00     0.037 A 
HETATM   16  C   UNL     1       6.650  24.399  54.128  1.00  0.00     0.016 A 
BRANCH  14  17
HETATM   17  O   UNL     1       8.783  21.476  53.821  1.00  0.00    -0.356 OA
HETATM   18  C   UNL     1       7.916  20.591  53.122  1.00  0.00     0.210 C 
ENDBRANCH  14  17
ENDBRANCH   9  11
ENDBRANCH   1   5
BRANCH   2  19
HETATM   19  N   UNL     1       4.494  30.999  58.511  1.00  0.00    -0.267 N 
HETATM   20  C   UNL     1       3.483  31.287  59.400  1.00  0.00     0.236 C 
HETATM   21  O   UNL     1       2.697  30.437  59.815  1.00  0.00    -0.272 OA
HETATM   22  H   UNL     1       5.234  31.654  58.263  1.00  0.00     0.190 HD
BRANCH  20  23
HETATM   23  C   UNL     1       3.416  32.737  59.815  1.00  0.00     0.109 C 
BRANCH  23  24
HETATM   24  C   UNL     1       4.768  33.419  59.634  1.00  0.00     0.048 C 
BRANCH  24  25
HETATM   25  C   UNL     1       5.605  33.351  60.888  1.00  0.00    -0.058 A 
HETATM   26  C   UNL     1       5.354  34.221  61.961  1.00  0.00     0.010 A 
HETATM   27  C   UNL     1       6.136  34.160  63.115  1.00  0.00     0.043 A 
HETATM   28  C   UNL     1       7.170  33.234  63.196  1.00  0.00     0.116 A 
HETATM   29  F   UNL     1       7.920  33.179  64.304  1.00  0.00    -0.206 F 
HETATM   30  C   UNL     1       7.436  32.366  62.144  1.00  0.00     0.043 A 
HETATM   31  C   UNL     1       6.653  32.423  60.990  1.00  0.00     0.010 A 
ENDBRANCH  24  25
ENDBRANCH  23  24
ENDBRANCH  20  23
ENDBRANCH   2  19
TORSDOF 7
ENDMDL
MODEL 8
REMARK VINA RESULT:      -8.7      8.541     12.351
REMARK  7 active torsions:
REMARK  status: ('A' for Active; 'I' for Inactive)
REMARK    1  A    between atoms: O_2  and  C_3 
REMARK    2  A    between atoms: C_6  and  C_7 
REMARK    3  A    between atoms: C_11  and  C_12 
REMARK       I    between atoms: C_12  and  N_13 
REMARK    4  A    between atoms: N_13  and  N_14 
REMARK       I    between atoms: N_14  and  C_15 
REMARK    5  A    between atoms: C_15  and  C_16 
REMARK    6  A    between atoms: C_16  and  C_17 
REMARK    7  A    between atoms: C_17  and  C_18 
ROOT
HETATM    1  C   UNL     1       5.117  27.530  50.418  1.00  0.00     0.288 C 
HETATM    2  N   UNL     1       5.725  26.301  50.550  1.00  0.00    -0.262 N 
HETATM    3  O   UNL     1       5.264  28.417  51.257  1.00  0.00    -0.264 OA
HETATM    4  H   UNL     1       5.655  25.551  49.866  1.00  0.00     0.190 HD
ENDROOT
BRANCH   1   5
HETATM    5  C   UNL     1       4.319  27.705  49.236  1.00  0.00     0.121 A 
HETATM    6  N   UNL     1       4.823  27.474  47.989  1.00  0.00    -0.272 N 
HETATM    7  N   UNL     1       3.937  27.637  46.998  1.00  0.00    -0.174 NA
HETATM    8  H   UNL     1       5.770  27.185  47.758  1.00  0.00     0.189 HD
HETATM    9  C   UNL     1       2.804  28.012  47.612  1.00  0.00     0.089 A 
HETATM   10  C   UNL     1       3.007  28.078  49.019  1.00  0.00     0.071 A 
BRANCH   9  11
HETATM   11  C   UNL     1       1.569  28.264  46.864  1.00  0.00    -0.005 A 
HETATM   12  C   UNL     1       0.763  27.195  46.447  1.00  0.00     0.016 A 
HETATM   13  C   UNL     1      -0.443  27.418  45.771  1.00  0.00     0.037 A 
HETATM   14  C   UNL     1      -0.860  28.718  45.497  1.00  0.00     0.068 A 
HETATM   15  C   UNL     1      -0.050  29.789  45.885  1.00  0.00     0.037 A 
HETATM   16  C   UNL     1       1.152  29.567  46.566  1.00  0.00     0.016 A 
BRANCH  14  17
HETATM   17  O   UNL     1      -2.015  29.075  44.859  1.00  0.00    -0.356 OA
HETATM   18  C   UNL     1      -2.792  30.096  45.472  1.00  0.00     0.210 C 
ENDBRANCH  14  17
ENDBRANCH   9  11
ENDBRANCH   1   5
BRANCH   2  19
HETATM   19  N   UNL     1       6.573  26.079  51.639  1.00  0.00    -0.267 N 
HETATM   20  C   UNL     1       6.104  25.315  52.683  1.00  0.00     0.236 C 
HETATM   21  O   UNL     1       4.948  24.900  52.739  1.00  0.00    -0.272 OA
HETATM   22  H   UNL     1       7.555  26.316  51.507  1.00  0.00     0.190 HD
BRANCH  20  23
HETATM   23  C   UNL     1       7.126  25.038  53.758  1.00  0.00     0.109 C 
BRANCH  23  24
HETATM   24  C   UNL     1       8.268  24.183  53.218  1.00  0.00     0.048 C 
BRANCH  24  25
HETATM   25  C   UNL     1       8.321  22.831  53.886  1.00  0.00    -0.058 A 
HETATM   26  C   UNL     1       7.837  21.690  53.226  1.00  0.00     0.010 A 
HETATM   27  C   UNL     1       7.880  20.443  53.852  1.00  0.00     0.043 A 
HETATM   28  C   UNL     1       8.401  20.337  55.136  1.00  0.00     0.116 A 
HETATM   29  F   UNL     1       8.440  19.140  55.735  1.00  0.00    -0.206 F 
HETATM   30  C   UNL     1       8.882  21.454  55.807  1.00  0.00     0.043 A 
HETATM   31  C   UNL     1       8.844  22.702  55.183  1.00  0.00     0.010 A 
ENDBRANCH  24  25
ENDBRANCH  23  24
ENDBRANCH  20  23
ENDBRANCH   2  19
TORSDOF 7
ENDMDL
MODEL 9
REMARK VINA RESULT:      -8.3      4.203     11.147
REMARK  7 active torsions:
REMARK  status: ('A' for Active; 'I' for Inactive)
REMARK    1  A    between atoms: O_2  and  C_3 
REMARK    2  A    between atoms: C_6  and  C_7 
REMARK    3  A    between atoms: C_11  and  C_12 
REMARK       I    between atoms: C_12  and  N_13 
REMARK    4  A    between atoms: N_13  and  N_14 
REMARK       I    between atoms: N_14  and  C_15 
REMARK    5  A    between atoms: C_15  and  C_16 
REMARK    6  A    between atoms: C_16  and  C_17 
REMARK    7  A    between atoms: C_17  and  C_18 
ROOT
HETATM    1  C   UNL     1       5.438  29.145  55.468  1.00  0.00     0.288 C 
HETATM    2  N   UNL     1       5.915  29.385  56.738  1.00  0.00    -0.262 N 
HETATM    3  O   UNL     1       4.955  30.043  54.779  1.00  0.00    -0.264 OA
HETATM    4  H   UNL     1       6.349  28.679  57.329  1.00  0.00     0.190 HD
ENDROOT
BRANCH   1   5
HETATM    5  C   UNL     1       5.557  27.791  55.004  1.00  0.00     0.121 A 
HETATM    6  N   UNL     1       4.681  27.264  54.098  1.00  0.00    -0.272 N 
HETATM    7  N   UNL     1       4.958  26.006  53.733  1.00  0.00    -0.174 NA
HETATM    8  H   UNL     1       3.879  27.730  53.683  1.00  0.00     0.189 HD
HETATM    9  C   UNL     1       6.050  25.678  54.440  1.00  0.00     0.089 A 
HETATM   10  C   UNL     1       6.451  26.770  55.260  1.00  0.00     0.071 A 
BRANCH   9  11
HETATM   11  C   UNL     1       6.696  24.370  54.299  1.00  0.00    -0.005 A 
HETATM   12  C   UNL     1       7.050  23.888  53.031  1.00  0.00     0.016 A 
HETATM   13  C   UNL     1       7.709  22.660  52.881  1.00  0.00     0.037 A 
HETATM   14  C   UNL     1       8.019  21.893  54.001  1.00  0.00     0.068 A 
HETATM   15  C   UNL     1       7.646  22.352  55.266  1.00  0.00     0.037 A 
HETATM   16  C   UNL     1       6.994  23.581  55.418  1.00  0.00     0.016 A 
BRANCH  14  17
HETATM   17  O   UNL     1       8.666  20.689  53.997  1.00  0.00    -0.356 OA
HETATM   18  C   UNL     1       8.947  20.112  55.267  1.00  0.00     0.210 C 
ENDBRANCH  14  17
ENDBRANCH   9  11
ENDBRANCH   1   5
BRANCH   2  19
HETATM   19  N   UNL     1       5.897  30.692  57.232  1.00  0.00    -0.267 N 
HETATM   20  C   UNL     1       4.842  31.070  58.031  1.00  0.00     0.236 C 
HETATM   21  O   UNL     1       3.877  30.340  58.251  1.00  0.00    -0.272 OA
HETATM   22  H   UNL     1       6.762  31.223  57.148  1.00  0.00     0.190 HD
BRANCH  20  23
HETATM   23  C   UNL     1       4.966  32.460  58.607  1.00  0.00     0.109 C 
BRANCH  23  24
HETATM   24  C   UNL     1       5.086  32.412  60.127  1.00  0.00     0.048 C 
BRANCH  24  25
HETATM   25  C   UNL     1       6.523  32.292  60.573  1.00  0.00    -0.058 A 
HETATM   26  C   UNL     1       7.567  32.362  59.639  1.00  0.00     0.010 A 
HETATM   27  C   UNL     1       8.894  32.241  60.055  1.00  0.00     0.043 A 
HETATM   28  C   UNL     1       9.176  32.048  61.402  1.00  0.00     0.116 A 
HETATM   29  F   UNL     1      10.450  31.931  61.799  1.00  0.00    -0.206 F 
HETATM   30  C   UNL     1       8.156  31.974  62.343  1.00  0.00     0.043 A 
HETATM   31  C   UNL     1       6.828  32.097  61.929  1.00  0.00     0.010 A 
ENDBRANCH  24  25
ENDBRANCH  23  24
ENDBRANCH  20  23
ENDBRANCH   2  19
TORSDOF 7
ENDMDL
MODEL 10
REMARK VINA RESULT:      -8.2      4.911      5.640
REMARK  7 active torsions:
REMARK  status: ('A' for Active; 'I' for Inactive)
REMARK    1  A    between atoms: O_2  and  C_3 
REMARK    2  A    between atoms: C_6  and  C_7 
REMARK    3  A    between atoms: C_11  and  C_12 
REMARK       I    between atoms: C_12  and  N_13 
REMARK    4  A    between atoms: N_13  and  N_14 
REMARK       I    between atoms: N_14  and  C_15 
REMARK    5  A    between atoms: C_15  and  C_16 
REMARK    6  A    between atoms: C_16  and  C_17 
REMARK    7  A    between atoms: C_17  and  C_18 
ROOT
HETATM    1  C   UNL     1       4.574  27.969  55.968  1.00  0.00     0.288 C 
HETATM    2  N   UNL     1       4.395  27.574  54.661  1.00  0.00    -0.262 N 
HETATM    3  O   UNL     1       4.972  27.188  56.831  1.00  0.00    -0.264 OA
HETATM    4  H   UNL     1       4.097  28.194  53.911  1.00  0.00     0.190 HD
ENDROOT
BRANCH   1   5
HETATM    5  C   UNL     1       4.280  29.347  56.248  1.00  0.00     0.121 A 
HETATM    6  N   UNL     1       3.180  29.714  56.969  1.00  0.00    -0.272 N 
HETATM    7  N   UNL     1       3.076  31.033  57.182  1.00  0.00    -0.174 NA
HETATM    8  H   UNL     1       2.471  29.098  57.355  1.00  0.00     0.189 HD
HETATM    9  C   UNL     1       4.141  31.563  56.560  1.00  0.00     0.089 A 
HETATM   10  C   UNL     1       4.916  30.537  55.950  1.00  0.00     0.071 A 
BRANCH   9  11
HETATM   11  C   UNL     1       4.409  33.004  56.585  1.00  0.00    -0.005 A 
HETATM   12  C   UNL     1       4.903  33.652  55.444  1.00  0.00     0.016 A 
HETATM   13  C   UNL     1       5.124  35.035  55.436  1.00  0.00     0.037 A 
HETATM   14  C   UNL     1       4.856  35.792  56.574  1.00  0.00     0.068 A 
HETATM   15  C   UNL     1       4.390  35.151  57.724  1.00  0.00     0.037 A 
HETATM   16  C   UNL     1       4.163  33.770  57.731  1.00  0.00     0.016 A 
BRANCH  14  17
HETATM   17  O   UNL     1       5.014  37.145  56.696  1.00  0.00    -0.356 OA
HETATM   18  C   UNL     1       3.846  37.898  56.996  1.00  0.00     0.210 C 
ENDBRANCH  14  17
ENDBRANCH   9  11
ENDBRANCH   1   5
BRANCH   2  19
HETATM   19  N   UNL     1       4.726  26.265  54.299  1.00  0.00    -0.267 N 
HETATM   20  C   UNL     1       5.131  26.033  53.004  1.00  0.00     0.236 C 
HETATM   21  O   UNL     1       5.126  26.904  52.136  1.00  0.00    -0.272 OA
HETATM   22  H   UNL     1       4.852  25.600  55.059  1.00  0.00     0.190 HD
BRANCH  20  23
HETATM   23  C   UNL     1       5.575  24.615  52.737  1.00  0.00     0.109 C 
BRANCH  23  24
HETATM   24  C   UNL     1       7.081  24.469  52.932  1.00  0.00     0.048 C 
BRANCH  24  25
HETATM   25  C   UNL     1       7.436  23.171  53.615  1.00  0.00    -0.058 A 
HETATM   26  C   UNL     1       7.347  23.052  55.011  1.00  0.00     0.010 A 
HETATM   27  C   UNL     1       7.686  21.853  55.639  1.00  0.00     0.043 A 
HETATM   28  C   UNL     1       8.116  20.775  54.874  1.00  0.00     0.116 A 
HETATM   29  F   UNL     1       8.441  19.625  55.479  1.00  0.00    -0.206 F 
HETATM   30  C   UNL     1       8.213  20.873  53.491  1.00  0.00     0.043 A 
HETATM   31  C   UNL     1       7.872  22.071  52.860  1.00  0.00     0.010 A 
ENDBRANCH  24  25
ENDBRANCH  23  24
ENDBRANCH  20  23
ENDBRANCH   2  19
TORSDOF 7
ENDMDL
