MODEL 1
REMARK VINA RESULT:      -9.6      0.000      0.000
REMARK  9 active torsions:
REMARK  status: ('A' for Active; 'I' for Inactive)
REMARK    1  A    between atoms: C_2  and  N_3 
REMARK    2  A    between atoms: C_4  and  S_5 
REMARK    3  A    between atoms: S_5  and  C_6 
REMARK    4  A    between atoms: C_6  and  C_7 
REMARK       I    between atoms: C_7  and  N_8 
REMARK    5  A    between atoms: N_8  and  C_9 
REMARK    6  A    between atoms: C_11  and  O_12 
REMARK    7  A    between atoms: C_19  and  C_20 
REMARK    8  A    between atoms: C_23  and  S_24 
REMARK    9  A    between atoms: S_24  and  N_25 
ROOT
HETATM    1  N   UNL     1       5.947  27.571  55.565  1.00  0.00    -0.308 N 
HETATM    2  C   UNL     1       6.157  27.189  54.266  1.00  0.00     0.192 A 
HETATM    3  N   UNL     1       7.241  27.749  53.797  1.00  0.00    -0.122 NA
HETATM    4  N   UNL     1       7.715  28.589  54.765  1.00  0.00    -0.128 NA
HETATM    5  C   UNL     1       6.930  28.510  55.827  1.00  0.00     0.164 A 
ENDROOT
BRANCH   5   6
HETATM    6  C   UNL     1       7.076  29.382  56.995  1.00  0.00     0.012 A 
HETATM    7  C   UNL     1       6.124  30.401  57.175  1.00  0.00     0.017 A 
HETATM    8  C   UNL     1       6.217  31.299  58.239  1.00  0.00     0.026 A 
HETATM    9  C   UNL     1       7.266  31.172  59.150  1.00  0.00     0.074 A 
HETATM   10  C   UNL     1       8.237  30.183  58.978  1.00  0.00     0.026 A 
HETATM   11  C   UNL     1       8.144  29.296  57.898  1.00  0.00     0.017 A 
BRANCH   9  12
HETATM   12  S   UNL     1       7.424  32.332  60.475  1.00  0.00     0.243 S 
HETATM   13  O   UNL     1       8.789  32.799  60.524  1.00  0.00    -0.206 OA
HETATM   14  O   UNL     1       6.317  33.264  60.435  1.00  0.00    -0.206 OA
BRANCH  12  15
HETATM   15  N   UNL     1       7.167  31.376  61.878  1.00  0.00    -0.203 NA
HETATM   16  C   UNL     1       5.794  31.418  62.474  1.00  0.00     0.135 C 
HETATM   17  C   UNL     1       5.534  32.692  63.305  1.00  0.00     0.250 C 
HETATM   18  N   UNL     1       6.641  32.921  64.331  1.00  0.00    -0.073 N 
HETATM   19  H   UNL     1       6.594  32.152  65.011  1.00  0.00     0.279 HD
HETATM   20  C   UNL     1       6.425  34.201  65.091  1.00  0.00     0.269 C 
HETATM   21  C   UNL     1       8.032  32.881  63.697  1.00  0.00     0.250 C 
HETATM   22  C   UNL     1       8.221  31.562  62.928  1.00  0.00     0.135 C 
ENDBRANCH  12  15
ENDBRANCH   9  12
ENDBRANCH   5   6
BRANCH   1  23
HETATM   23  C   UNL     1       4.874  27.137  56.432  1.00  0.00     0.128 C 
HETATM   24  C   UNL     1       5.140  25.772  57.048  1.00  0.00     0.027 C 
ENDBRANCH   1  23
BRANCH   2  25
HETATM   25  S   UNL     1       5.135  26.162  53.329  1.00  0.00    -0.081 SA
BRANCH  25  26
HETATM   26  C   UNL     1       6.338  25.347  52.243  1.00  0.00     0.185 C 
BRANCH  26  27
HETATM   27  C   UNL     1       7.335  24.411  52.913  1.00  0.00     0.231 C 
HETATM   28  N   UNL     1       6.819  23.616  53.914  1.00  0.00    -0.326 N 
HETATM   29  H   UNL     1       5.919  23.905  54.291  1.00  0.00     0.169 HD
HETATM   30  O   UNL     1       8.493  24.377  52.494  1.00  0.00    -0.272 OA
BRANCH  28  31
HETATM   31  C   UNL     1       7.490  22.621  54.656  1.00  0.00     0.037 A 
HETATM   32  C   UNL     1       7.924  21.408  54.117  1.00  0.00     0.066 A 
HETATM   33  C   UNL     1       8.580  20.485  54.931  1.00  0.00     0.067 A 
HETATM   34  C   UNL     1       8.811  20.747  56.275  1.00  0.00     0.036 A 
HETATM   35  C   UNL     1       8.374  21.950  56.821  1.00  0.00     0.005 A 
HETATM   36  C   UNL     1       7.713  22.881  56.015  1.00  0.00     0.029 A 
BRANCH  33  37
HETATM   37  O   UNL     1       9.019  19.290  54.435  1.00  0.00    -0.361 OA
HETATM   38  H   UNL     1       9.452  19.455  53.582  1.00  0.00     0.217 HD
ENDBRANCH  33  37
ENDBRANCH  28  31
ENDBRANCH  26  27
ENDBRANCH  25  26
ENDBRANCH   2  25
TORSDOF 9
ENDMDL
MODEL 2
REMARK VINA RESULT:      -9.5      5.046      9.681
REMARK  9 active torsions:
REMARK  status: ('A' for Active; 'I' for Inactive)
REMARK    1  A    between atoms: C_2  and  N_3 
REMARK    2  A    between atoms: C_4  and  S_5 
REMARK    3  A    between atoms: S_5  and  C_6 
REMARK    4  A    between atoms: C_6  and  C_7 
REMARK       I    between atoms: C_7  and  N_8 
REMARK    5  A    between atoms: N_8  and  C_9 
REMARK    6  A    between atoms: C_11  and  O_12 
REMARK    7  A    between atoms: C_19  and  C_20 
REMARK    8  A    between atoms: C_23  and  S_24 
REMARK    9  A    between atoms: S_24  and  N_25 
ROOT
HETATM    1  N   UNL     1       5.847  28.186  54.679  1.00  0.00    -0.308 N 
HETATM    2  C   UNL     1       6.844  28.131  55.617  1.00  0.00     0.192 A 
HETATM    3  N   UNL     1       8.011  28.049  55.034  1.00  0.00    -0.122 NA
HETATM    4  N   UNL     1       7.788  27.957  53.690  1.00  0.00    -0.128 NA
HETATM    5  C   UNL     1       6.485  28.014  53.464  1.00  0.00     0.164 A 
ENDROOT
BRANCH   5   6
HETATM    6  C   UNL     1       5.894  27.806  52.139  1.00  0.00     0.012 A 
HETATM    7  C   UNL     1       5.647  28.941  51.346  1.00  0.00     0.017 A 
HETATM    8  C   UNL     1       5.048  28.830  50.091  1.00  0.00     0.026 A 
HETATM    9  C   UNL     1       4.702  27.568  49.608  1.00  0.00     0.074 A 
HETATM   10  C   UNL     1       4.914  26.429  50.388  1.00  0.00     0.026 A 
HETATM   11  C   UNL     1       5.502  26.551  51.654  1.00  0.00     0.017 A 
BRANCH   9  12
HETATM   12  S   UNL     1       3.898  27.417  48.041  1.00  0.00     0.243 S 
HETATM   13  O   UNL     1       4.049  28.658  47.319  1.00  0.00    -0.206 OA
HETATM   14  O   UNL     1       4.258  26.153  47.434  1.00  0.00    -0.206 OA
BRANCH  12  15
HETATM   15  N   UNL     1       2.238  27.272  48.453  1.00  0.00    -0.203 NA
HETATM   16  C   UNL     1       1.289  27.009  47.324  1.00  0.00     0.135 C 
HETATM   17  C   UNL     1       0.965  28.273  46.500  1.00  0.00     0.250 C 
HETATM   18  N   UNL     1       0.524  29.425  47.400  1.00  0.00    -0.073 N 
HETATM   19  H   UNL     1      -0.372  29.156  47.827  1.00  0.00     0.279 HD
HETATM   20  C   UNL     1       0.278  30.677  46.603  1.00  0.00     0.269 C 
HETATM   21  C   UNL     1       1.512  29.677  48.539  1.00  0.00     0.250 C 
HETATM   22  C   UNL     1       1.742  28.380  49.333  1.00  0.00     0.135 C 
ENDBRANCH  12  15
ENDBRANCH   9  12
ENDBRANCH   5   6
BRANCH   1  23
HETATM   23  C   UNL     1       4.428  28.316  54.931  1.00  0.00     0.128 C 
HETATM   24  C   UNL     1       3.926  29.735  54.715  1.00  0.00     0.027 C 
ENDBRANCH   1  23
BRANCH   2  25
HETATM   25  S   UNL     1       6.632  28.115  57.329  1.00  0.00    -0.081 SA
BRANCH  25  26
HETATM   26  C   UNL     1       7.178  26.436  57.746  1.00  0.00     0.185 C 
BRANCH  26  27
HETATM   27  C   UNL     1       6.852  25.344  56.735  1.00  0.00     0.231 C 
HETATM   28  N   UNL     1       7.926  24.868  56.012  1.00  0.00    -0.326 N 
HETATM   29  H   UNL     1       8.759  25.452  56.019  1.00  0.00     0.169 HD
HETATM   30  O   UNL     1       5.697  24.921  56.668  1.00  0.00    -0.272 OA
BRANCH  28  31
HETATM   31  C   UNL     1       7.930  23.824  55.063  1.00  0.00     0.037 A 
HETATM   32  C   UNL     1       8.074  22.474  55.391  1.00  0.00     0.066 A 
HETATM   33  C   UNL     1       8.066  21.513  54.380  1.00  0.00     0.067 A 
HETATM   34  C   UNL     1       7.918  21.872  53.047  1.00  0.00     0.036 A 
HETATM   35  C   UNL     1       7.782  23.215  52.712  1.00  0.00     0.005 A 
HETATM   36  C   UNL     1       7.791  24.188  53.716  1.00  0.00     0.029 A 
BRANCH  33  37
HETATM   37  O   UNL     1       8.203  20.185  54.667  1.00  0.00    -0.361 OA
HETATM   38  H   UNL     1       9.125  19.929  54.492  1.00  0.00     0.217 HD
ENDBRANCH  33  37
ENDBRANCH  28  31
ENDBRANCH  26  27
ENDBRANCH  25  26
ENDBRANCH   2  25
TORSDOF 9
ENDMDL
MODEL 3
REMARK VINA RESULT:      -9.3      3.019     11.807
REMARK  9 active torsions:
REMARK  status: ('A' for Active; 'I' for Inactive)
REMARK    1  A    between atoms: C_2  and  N_3 
REMARK    2  A    between atoms: C_4  and  S_5 
REMARK    3  A    between atoms: S_5  and  C_6 
REMARK    4  A    between atoms: C_6  and  C_7 
REMARK       I    between atoms: C_7  and  N_8 
REMARK    5  A    between atoms: N_8  and  C_9 
REMARK    6  A    between atoms: C_11  and  O_12 
REMARK    7  A    between atoms: C_19  and  C_20 
REMARK    8  A    between atoms: C_23  and  S_24 
REMARK    9  A    between atoms: S_24  and  N_25 
ROOT
HETATM    1  N   UNL     1       7.036  30.909  58.560  1.00  0.00    -0.308 N 
HETATM    2  C   UNL     1       7.510  31.309  59.782  1.00  0.00     0.192 A 
HETATM    3  N   UNL     1       8.538  30.580  60.130  1.00  0.00    -0.122 NA
HETATM    4  N   UNL     1       8.699  29.620  59.171  1.00  0.00    -0.128 NA
HETATM    5  C   UNL     1       7.784  29.792  58.231  1.00  0.00     0.164 A 
ENDROOT
BRANCH   5   6
HETATM    6  C   UNL     1       7.588  28.853  57.124  1.00  0.00     0.012 A 
HETATM    7  C   UNL     1       6.969  27.623  57.409  1.00  0.00     0.017 A 
HETATM    8  C   UNL     1       6.783  26.658  56.419  1.00  0.00     0.026 A 
HETATM    9  C   UNL     1       7.208  26.925  55.117  1.00  0.00     0.074 A 
HETATM   10  C   UNL     1       7.848  28.130  54.814  1.00  0.00     0.026 A 
HETATM   11  C   UNL     1       8.043  29.086  55.820  1.00  0.00     0.017 A 
BRANCH   9  12
HETATM   12  S   UNL     1       7.024  25.693  53.862  1.00  0.00     0.243 S 
HETATM   13  O   UNL     1       7.685  26.149  52.663  1.00  0.00    -0.206 OA
HETATM   14  O   UNL     1       7.310  24.389  54.421  1.00  0.00    -0.206 OA
BRANCH  12  15
HETATM   15  N   UNL     1       5.337  25.696  53.541  1.00  0.00    -0.203 NA
HETATM   16  C   UNL     1       4.885  24.923  52.341  1.00  0.00     0.135 C 
HETATM   17  C   UNL     1       5.131  25.669  51.012  1.00  0.00     0.250 C 
HETATM   18  N   UNL     1       4.568  27.088  51.061  1.00  0.00    -0.073 N 
HETATM   19  H   UNL     1       3.545  27.011  51.131  1.00  0.00     0.279 HD
HETATM   20  C   UNL     1       4.871  27.839  49.793  1.00  0.00     0.269 C 
HETATM   21  C   UNL     1       5.051  27.858  52.290  1.00  0.00     0.250 C 
HETATM   22  C   UNL     1       4.727  27.065  53.568  1.00  0.00     0.135 C 
ENDBRANCH  12  15
ENDBRANCH   9  12
ENDBRANCH   5   6
BRANCH   1  23
HETATM   23  C   UNL     1       5.934  31.494  57.827  1.00  0.00     0.128 C 
HETATM   24  C   UNL     1       4.614  30.791  58.103  1.00  0.00     0.027 C 
ENDBRANCH   1  23
BRANCH   2  25
HETATM   25  S   UNL     1       6.846  32.552  60.776  1.00  0.00    -0.081 SA
BRANCH  25  26
HETATM   26  C   UNL     1       6.793  31.733  62.394  1.00  0.00     0.185 C 
BRANCH  26  27
HETATM   27  C   UNL     1       5.756  32.248  63.384  1.00  0.00     0.231 C 
HETATM   28  N   UNL     1       6.080  33.430  64.017  1.00  0.00    -0.326 N 
HETATM   29  H   UNL     1       7.059  33.701  63.976  1.00  0.00     0.169 HD
HETATM   30  O   UNL     1       4.699  31.630  63.513  1.00  0.00    -0.272 OA
BRANCH  28  31
HETATM   31  C   UNL     1       5.289  34.163  64.927  1.00  0.00     0.037 A 
HETATM   32  C   UNL     1       5.048  33.768  66.245  1.00  0.00     0.066 A 
HETATM   33  C   UNL     1       4.252  34.561  67.070  1.00  0.00     0.067 A 
HETATM   34  C   UNL     1       3.688  35.742  66.606  1.00  0.00     0.036 A 
HETATM   35  C   UNL     1       3.916  36.138  65.292  1.00  0.00     0.005 A 
HETATM   36  C   UNL     1       4.711  35.350  64.455  1.00  0.00     0.029 A 
BRANCH  33  37
HETATM   37  O   UNL     1       3.998  34.204  68.363  1.00  0.00    -0.361 OA
HETATM   38  H   UNL     1       3.040  34.071  68.460  1.00  0.00     0.217 HD
ENDBRANCH  33  37
ENDBRANCH  28  31
ENDBRANCH  26  27
ENDBRANCH  25  26
ENDBRANCH   2  25
TORSDOF 9
ENDMDL
MODEL 4
REMARK VINA RESULT:      -9.2      2.204      2.988
REMARK  9 active torsions:
REMARK  status: ('A' for Active; 'I' for Inactive)
REMARK    1  A    between atoms: C_2  and  N_3 
REMARK    2  A    between atoms: C_4  and  S_5 
REMARK    3  A    between atoms: S_5  and  C_6 
REMARK    4  A    between atoms: C_6  and  C_7 
REMARK       I    between atoms: C_7  and  N_8 
REMARK    5  A    between atoms: N_8  and  C_9 
REMARK    6  A    between atoms: C_11  and  O_12 
REMARK    7  A    between atoms: C_19  and  C_20 
REMARK    8  A    between atoms: C_23  and  S_24 
REMARK    9  A    between atoms: S_24  and  N_25 
ROOT
HETATM    1  N   UNL     1       6.911  29.351  56.877  1.00  0.00    -0.308 N 
HETATM    2  C   UNL     1       6.688  28.787  55.648  1.00  0.00     0.192 A 
HETATM    3  N   UNL     1       5.718  29.410  55.033  1.00  0.00    -0.122 NA
HETATM    4  N   UNL     1       5.223  30.345  55.897  1.00  0.00    -0.128 NA
HETATM    5  C   UNL     1       5.918  30.304  57.022  1.00  0.00     0.164 A 
ENDROOT
BRANCH   5   6
HETATM    6  C   UNL     1       5.562  31.083  58.210  1.00  0.00     0.012 A 
HETATM    7  C   UNL     1       4.203  31.164  58.559  1.00  0.00     0.017 A 
HETATM    8  C   UNL     1       3.778  31.920  59.653  1.00  0.00     0.026 A 
HETATM    9  C   UNL     1       4.725  32.597  60.422  1.00  0.00     0.074 A 
HETATM   10  C   UNL     1       6.079  32.552  60.081  1.00  0.00     0.026 A 
HETATM   11  C   UNL     1       6.493  31.803  58.972  1.00  0.00     0.017 A 
BRANCH   9  12
HETATM   12  S   UNL     1       4.198  33.598  61.781  1.00  0.00     0.243 S 
HETATM   13  O   UNL     1       3.668  34.839  61.267  1.00  0.00    -0.206 OA
HETATM   14  O   UNL     1       3.436  32.790  62.709  1.00  0.00    -0.206 OA
BRANCH  12  15
HETATM   15  N   UNL     1       5.663  33.974  62.594  1.00  0.00    -0.203 NA
HETATM   16  C   UNL     1       5.952  33.198  63.843  1.00  0.00     0.135 C 
HETATM   17  C   UNL     1       5.154  33.701  65.065  1.00  0.00     0.250 C 
HETATM   18  N   UNL     1       5.307  35.209  65.246  1.00  0.00    -0.073 N 
HETATM   19  H   UNL     1       6.290  35.393  65.483  1.00  0.00     0.279 HD
HETATM   20  C   UNL     1       4.472  35.709  66.393  1.00  0.00     0.269 C 
HETATM   21  C   UNL     1       5.000  35.978  63.960  1.00  0.00     0.250 C 
HETATM   22  C   UNL     1       5.868  35.444  62.808  1.00  0.00     0.135 C 
ENDBRANCH  12  15
ENDBRANCH   9  12
ENDBRANCH   5   6
BRANCH   1  23
HETATM   23  C   UNL     1       7.923  28.964  57.836  1.00  0.00     0.128 C 
HETATM   24  C   UNL     1       9.249  29.669  57.601  1.00  0.00     0.027 C 
ENDBRANCH   1  23
BRANCH   2  25
HETATM   25  S   UNL     1       7.509  27.419  54.992  1.00  0.00    -0.081 SA
BRANCH  25  26
HETATM   26  C   UNL     1       6.216  26.686  53.952  1.00  0.00     0.185 C 
BRANCH  26  27
HETATM   27  C   UNL     1       6.167  25.164  53.897  1.00  0.00     0.231 C 
HETATM   28  N   UNL     1       7.330  24.522  54.267  1.00  0.00    -0.326 N 
HETATM   29  H   UNL     1       8.169  25.097  54.281  1.00  0.00     0.169 HD
HETATM   30  O   UNL     1       5.108  24.614  53.592  1.00  0.00    -0.272 OA
BRANCH  28  31
HETATM   31  C   UNL     1       7.551  23.133  54.371  1.00  0.00     0.037 A 
HETATM   32  C   UNL     1       7.744  22.291  53.273  1.00  0.00     0.066 A 
HETATM   33  C   UNL     1       7.955  20.927  53.476  1.00  0.00     0.067 A 
HETATM   34  C   UNL     1       7.977  20.385  54.755  1.00  0.00     0.036 A 
HETATM   35  C   UNL     1       7.776  21.216  55.852  1.00  0.00     0.005 A 
HETATM   36  C   UNL     1       7.561  22.584  55.661  1.00  0.00     0.029 A 
BRANCH  33  37
HETATM   37  O   UNL     1       8.149  20.077  52.425  1.00  0.00    -0.361 OA
HETATM   38  H   UNL     1       8.850  20.444  51.862  1.00  0.00     0.217 HD
ENDBRANCH  33  37
ENDBRANCH  28  31
ENDBRANCH  26  27
ENDBRANCH  25  26
ENDBRANCH   2  25
TORSDOF 9
ENDMDL
MODEL 5
REMARK VINA RESULT:      -9.2      2.001      2.891
REMARK  9 active torsions:
REMARK  status: ('A' for Active; 'I' for Inactive)
REMARK    1  A    between atoms: C_2  and  N_3 
REMARK    2  A    between atoms: C_4  and  S_5 
REMARK    3  A    between atoms: S_5  and  C_6 
REMARK    4  A    between atoms: C_6  and  C_7 
REMARK       I    between atoms: C_7  and  N_8 
REMARK    5  A    between atoms: N_8  and  C_9 
REMARK    6  A    between atoms: C_11  and  O_12 
REMARK    7  A    between atoms: C_19  and  C_20 
REMARK    8  A    between atoms: C_23  and  S_24 
REMARK    9  A    between atoms: S_24  and  N_25 
ROOT
HETATM    1  N   UNL     1       7.023  28.995  57.072  1.00  0.00    -0.308 N 
HETATM    2  C   UNL     1       7.697  28.538  55.971  1.00  0.00     0.192 A 
HETATM    3  N   UNL     1       8.949  28.912  56.018  1.00  0.00    -0.122 NA
HETATM    4  N   UNL     1       9.095  29.706  57.120  1.00  0.00    -0.128 NA
HETATM    5  C   UNL     1       7.934  29.785  57.751  1.00  0.00     0.164 A 
ENDROOT
BRANCH   5   6
HETATM    6  C   UNL     1       7.706  30.668  58.898  1.00  0.00     0.012 A 
HETATM    7  C   UNL     1       8.370  30.366  60.100  1.00  0.00     0.017 A 
HETATM    8  C   UNL     1       8.174  31.134  61.249  1.00  0.00     0.026 A 
HETATM    9  C   UNL     1       7.313  32.231  61.197  1.00  0.00     0.074 A 
HETATM   10  C   UNL     1       6.624  32.536  60.021  1.00  0.00     0.026 A 
HETATM   11  C   UNL     1       6.816  31.750  58.877  1.00  0.00     0.017 A 
BRANCH   9  12
HETATM   12  S   UNL     1       7.017  33.184  62.657  1.00  0.00     0.243 S 
HETATM   13  O   UNL     1       8.182  33.111  63.505  1.00  0.00    -0.206 OA
HETATM   14  O   UNL     1       6.440  34.461  62.291  1.00  0.00    -0.206 OA
BRANCH  12  15
HETATM   15  N   UNL     1       5.760  32.324  63.450  1.00  0.00    -0.203 NA
HETATM   16  C   UNL     1       4.738  31.672  62.570  1.00  0.00     0.135 C 
HETATM   17  C   UNL     1       3.696  32.665  62.014  1.00  0.00     0.250 C 
HETATM   18  N   UNL     1       3.079  33.505  63.130  1.00  0.00    -0.073 N 
HETATM   19  H   UNL     1       2.539  32.870  63.731  1.00  0.00     0.279 HD
HETATM   20  C   UNL     1       2.117  34.522  62.580  1.00  0.00     0.269 C 
HETATM   21  C   UNL     1       4.142  34.165  64.008  1.00  0.00     0.250 C 
HETATM   22  C   UNL     1       5.109  33.101  64.554  1.00  0.00     0.135 C 
ENDBRANCH  12  15
ENDBRANCH   9  12
ENDBRANCH   5   6
BRANCH   1  23
HETATM   23  C   UNL     1       5.633  28.759  57.395  1.00  0.00     0.128 C 
HETATM   24  C   UNL     1       4.698  29.727  56.685  1.00  0.00     0.027 C 
ENDBRANCH   1  23
BRANCH   2  25
HETATM   25  S   UNL     1       7.020  27.642  54.661  1.00  0.00    -0.081 SA
BRANCH  25  26
HETATM   26  C   UNL     1       6.365  26.185  55.521  1.00  0.00     0.185 C 
BRANCH  26  27
HETATM   27  C   UNL     1       7.245  24.941  55.519  1.00  0.00     0.231 C 
HETATM   28  N   UNL     1       6.814  23.913  54.707  1.00  0.00    -0.326 N 
HETATM   29  H   UNL     1       5.844  23.964  54.404  1.00  0.00     0.169 HD
HETATM   30  O   UNL     1       8.287  24.949  56.176  1.00  0.00    -0.272 OA
BRANCH  28  31
HETATM   31  C   UNL     1       7.456  22.681  54.464  1.00  0.00     0.037 A 
HETATM   32  C   UNL     1       7.900  21.822  55.471  1.00  0.00     0.066 A 
HETATM   33  C   UNL     1       8.526  20.622  55.131  1.00  0.00     0.067 A 
HETATM   34  C   UNL     1       8.719  20.263  53.804  1.00  0.00     0.036 A 
HETATM   35  C   UNL     1       8.288  21.119  52.794  1.00  0.00     0.005 A 
HETATM   36  C   UNL     1       7.661  22.324  53.124  1.00  0.00     0.029 A 
BRANCH  33  37
HETATM   37  O   UNL     1       8.970  19.759  56.092  1.00  0.00    -0.361 OA
HETATM   38  H   UNL     1       9.814  19.381  55.794  1.00  0.00     0.217 HD
ENDBRANCH  33  37
ENDBRANCH  28  31
ENDBRANCH  26  27
ENDBRANCH  25  26
ENDBRANCH   2  25
TORSDOF 9
ENDMDL
MODEL 6
REMARK VINA RESULT:      -9.0      2.949      4.944
REMARK  9 active torsions:
REMARK  status: ('A' for Active; 'I' for Inactive)
REMARK    1  A    between atoms: C_2  and  N_3 
REMARK    2  A    between atoms: C_4  and  S_5 
REMARK    3  A    between atoms: S_5  and  C_6 
REMARK    4  A    between atoms: C_6  and  C_7 
REMARK       I    between atoms: C_7  and  N_8 
REMARK    5  A    between atoms: N_8  and  C_9 
REMARK    6  A    between atoms: C_11  and  O_12 
REMARK    7  A    between atoms: C_19  and  C_20 
REMARK    8  A    between atoms: C_23  and  S_24 
REMARK    9  A    between atoms: S_24  and  N_25 
ROOT
HETATM    1  N   UNL     1       7.251  26.957  55.758  1.00  0.00    -0.308 N 
HETATM    2  C   UNL     1       7.335  26.621  54.432  1.00  0.00     0.192 A 
HETATM    3  N   UNL     1       7.884  27.594  53.752  1.00  0.00    -0.122 NA
HETATM    4  N   UNL     1       8.088  28.630  54.618  1.00  0.00    -0.128 NA
HETATM    5  C   UNL     1       7.688  28.268  55.826  1.00  0.00     0.164 A 
ENDROOT
BRANCH   5   6
HETATM    6  C   UNL     1       7.641  29.191  56.963  1.00  0.00     0.012 A 
HETATM    7  C   UNL     1       6.465  29.939  57.151  1.00  0.00     0.017 A 
HETATM    8  C   UNL     1       6.356  30.870  58.186  1.00  0.00     0.026 A 
HETATM    9  C   UNL     1       7.430  31.050  59.057  1.00  0.00     0.074 A 
HETATM   10  C   UNL     1       8.618  30.337  58.875  1.00  0.00     0.026 A 
HETATM   11  C   UNL     1       8.723  29.416  57.824  1.00  0.00     0.017 A 
BRANCH   9  12
HETATM   12  S   UNL     1       7.326  32.260  60.342  1.00  0.00     0.243 S 
HETATM   13  O   UNL     1       8.608  32.909  60.475  1.00  0.00    -0.206 OA
HETATM   14  O   UNL     1       6.112  33.032  60.180  1.00  0.00    -0.206 OA
BRANCH  12  15
HETATM   15  N   UNL     1       7.086  31.321  61.760  1.00  0.00    -0.203 NA
HETATM   16  C   UNL     1       5.753  31.449  62.429  1.00  0.00     0.135 C 
HETATM   17  C   UNL     1       5.619  32.737  63.269  1.00  0.00     0.250 C 
HETATM   18  N   UNL     1       6.793  32.895  64.233  1.00  0.00    -0.073 N 
HETATM   19  H   UNL     1       6.734  32.130  64.917  1.00  0.00     0.279 HD
HETATM   20  C   UNL     1       6.699  34.185  65.000  1.00  0.00     0.269 C 
HETATM   21  C   UNL     1       8.141  32.767  63.525  1.00  0.00     0.250 C 
HETATM   22  C   UNL     1       8.205  31.440  62.750  1.00  0.00     0.135 C 
ENDBRANCH  12  15
ENDBRANCH   9  12
ENDBRANCH   5   6
BRANCH   1  23
HETATM   23  C   UNL     1       6.737  26.131  56.828  1.00  0.00     0.128 C 
HETATM   24  C   UNL     1       7.840  25.575  57.716  1.00  0.00     0.027 C 
ENDBRANCH   1  23
BRANCH   2  25
HETATM   25  S   UNL     1       6.764  25.161  53.713  1.00  0.00    -0.081 SA
BRANCH  25  26
HETATM   26  C   UNL     1       6.830  25.577  51.948  1.00  0.00     0.185 C 
BRANCH  26  27
HETATM   27  C   UNL     1       5.495  25.682  51.222  1.00  0.00     0.231 C 
HETATM   28  N   UNL     1       5.474  26.542  50.144  1.00  0.00    -0.326 N 
HETATM   29  H   UNL     1       6.239  27.210  50.095  1.00  0.00     0.169 HD
HETATM   30  O   UNL     1       4.560  24.970  51.592  1.00  0.00    -0.272 OA
BRANCH  28  31
HETATM   31  C   UNL     1       4.403  26.786  49.258  1.00  0.00     0.037 A 
HETATM   32  C   UNL     1       4.107  25.983  48.155  1.00  0.00     0.066 A 
HETATM   33  C   UNL     1       3.025  26.306  47.335  1.00  0.00     0.067 A 
HETATM   34  C   UNL     1       2.233  27.417  47.594  1.00  0.00     0.036 A 
HETATM   35  C   UNL     1       2.528  28.227  48.687  1.00  0.00     0.005 A 
HETATM   36  C   UNL     1       3.610  27.914  49.513  1.00  0.00     0.029 A 
BRANCH  33  37
HETATM   37  O   UNL     1       2.708  25.541  46.250  1.00  0.00    -0.361 OA
HETATM   38  H   UNL     1       3.521  25.379  45.743  1.00  0.00     0.217 HD
ENDBRANCH  33  37
ENDBRANCH  28  31
ENDBRANCH  26  27
ENDBRANCH  25  26
ENDBRANCH   2  25
TORSDOF 9
ENDMDL
MODEL 7
REMARK VINA RESULT:      -9.0      2.156      2.957
REMARK  9 active torsions:
REMARK  status: ('A' for Active; 'I' for Inactive)
REMARK    1  A    between atoms: C_2  and  N_3 
REMARK    2  A    between atoms: C_4  and  S_5 
REMARK    3  A    between atoms: S_5  and  C_6 
REMARK    4  A    between atoms: C_6  and  C_7 
REMARK       I    between atoms: C_7  and  N_8 
REMARK    5  A    between atoms: N_8  and  C_9 
REMARK    6  A    between atoms: C_11  and  O_12 
REMARK    7  A    between atoms: C_19  and  C_20 
REMARK    8  A    between atoms: C_23  and  S_24 
REMARK    9  A    between atoms: S_24  and  N_25 
ROOT
HETATM    1  N   UNL     1       6.833  29.327  56.982  1.00  0.00    -0.308 N 
HETATM    2  C   UNL     1       6.659  28.620  55.821  1.00  0.00     0.192 A 
HETATM    3  N   UNL     1       5.716  29.164  55.096  1.00  0.00    -0.122 NA
HETATM    4  N   UNL     1       5.190  30.195  55.821  1.00  0.00    -0.128 NA
HETATM    5  C   UNL     1       5.838  30.289  56.971  1.00  0.00     0.164 A 
ENDROOT
BRANCH   5   6
HETATM    6  C   UNL     1       5.437  31.203  58.043  1.00  0.00     0.012 A 
HETATM    7  C   UNL     1       4.061  31.363  58.288  1.00  0.00     0.017 A 
HETATM    8  C   UNL     1       3.597  32.247  59.263  1.00  0.00     0.026 A 
HETATM    9  C   UNL     1       4.516  32.974  60.019  1.00  0.00     0.074 A 
HETATM   10  C   UNL     1       5.887  32.851  59.777  1.00  0.00     0.026 A 
HETATM   11  C   UNL     1       6.343  31.972  58.785  1.00  0.00     0.017 A 
BRANCH   9  12
HETATM   12  S   UNL     1       3.942  34.133  61.224  1.00  0.00     0.243 S 
HETATM   13  O   UNL     1       5.077  34.837  61.771  1.00  0.00    -0.206 OA
HETATM   14  O   UNL     1       2.802  34.853  60.696  1.00  0.00    -0.206 OA
BRANCH  12  15
HETATM   15  N   UNL     1       3.317  33.136  62.474  1.00  0.00    -0.203 NA
HETATM   16  C   UNL     1       2.561  33.828  63.566  1.00  0.00     0.135 C 
HETATM   17  C   UNL     1       3.481  34.523  64.592  1.00  0.00     0.250 C 
HETATM   18  N   UNL     1       4.551  33.568  65.115  1.00  0.00    -0.073 N 
HETATM   19  H   UNL     1       4.072  32.833  65.650  1.00  0.00     0.279 HD
HETATM   20  C   UNL     1       5.491  34.265  66.059  1.00  0.00     0.269 C 
HETATM   21  C   UNL     1       5.313  32.880  63.981  1.00  0.00     0.250 C 
HETATM   22  C   UNL     1       4.325  32.178  63.034  1.00  0.00     0.135 C 
ENDBRANCH  12  15
ENDBRANCH   9  12
ENDBRANCH   5   6
BRANCH   1  23
HETATM   23  C   UNL     1       7.803  29.058  58.021  1.00  0.00     0.128 C 
HETATM   24  C   UNL     1       9.144  29.722  57.751  1.00  0.00     0.027 C 
ENDBRANCH   1  23
BRANCH   2  25
HETATM   25  S   UNL     1       7.501  27.185  55.366  1.00  0.00    -0.081 SA
BRANCH  25  26
HETATM   26  C   UNL     1       6.415  26.523  54.072  1.00  0.00     0.185 C 
BRANCH  26  27
HETATM   27  C   UNL     1       6.408  25.010  53.898  1.00  0.00     0.231 C 
HETATM   28  N   UNL     1       7.474  24.344  54.466  1.00  0.00    -0.326 N 
HETATM   29  H   UNL     1       8.279  24.918  54.704  1.00  0.00     0.169 HD
HETATM   30  O   UNL     1       5.451  24.481  53.331  1.00  0.00    -0.272 OA
BRANCH  28  31
HETATM   31  C   UNL     1       7.692  22.951  54.515  1.00  0.00     0.037 A 
HETATM   32  C   UNL     1       7.848  22.147  53.383  1.00  0.00     0.066 A 
HETATM   33  C   UNL     1       8.060  20.777  53.533  1.00  0.00     0.067 A 
HETATM   34  C   UNL     1       8.118  20.191  54.790  1.00  0.00     0.036 A 
HETATM   35  C   UNL     1       7.954  20.984  55.922  1.00  0.00     0.005 A 
HETATM   36  C   UNL     1       7.739  22.358  55.784  1.00  0.00     0.029 A 
BRANCH  33  37
HETATM   37  O   UNL     1       8.218  19.963  52.447  1.00  0.00    -0.361 OA
HETATM   38  H   UNL     1       7.715  19.147  52.603  1.00  0.00     0.217 HD
ENDBRANCH  33  37
ENDBRANCH  28  31
ENDBRANCH  26  27
ENDBRANCH  25  26
ENDBRANCH   2  25
TORSDOF 9
ENDMDL
MODEL 8
REMARK VINA RESULT:      -8.5      5.260      9.567
REMARK  9 active torsions:
REMARK  status: ('A' for Active; 'I' for Inactive)
REMARK    1  A    between atoms: C_2  and  N_3 
REMARK    2  A    between atoms: C_4  and  S_5 
REMARK    3  A    between atoms: S_5  and  C_6 
REMARK    4  A    between atoms: C_6  and  C_7 
REMARK       I    between atoms: C_7  and  N_8 
REMARK    5  A    between atoms: N_8  and  C_9 
REMARK    6  A    between atoms: C_11  and  O_12 
REMARK    7  A    between atoms: C_19  and  C_20 
REMARK    8  A    between atoms: C_23  and  S_24 
REMARK    9  A    between atoms: S_24  and  N_25 
ROOT
HETATM    1  N   UNL     1       6.330  28.328  54.881  1.00  0.00    -0.308 N 
HETATM    2  C   UNL     1       7.177  27.386  55.402  1.00  0.00     0.192 A 
HETATM    3  N   UNL     1       7.529  26.531  54.478  1.00  0.00    -0.122 NA
HETATM    4  N   UNL     1       6.837  26.851  53.344  1.00  0.00    -0.128 NA
HETATM    5  C   UNL     1       6.092  27.918  53.580  1.00  0.00     0.164 A 
ENDROOT
BRANCH   5   6
HETATM    6  C   UNL     1       5.122  28.445  52.616  1.00  0.00     0.012 A 
HETATM    7  C   UNL     1       5.619  29.127  51.492  1.00  0.00     0.017 A 
HETATM    8  C   UNL     1       4.760  29.694  50.550  1.00  0.00     0.026 A 
HETATM    9  C   UNL     1       3.381  29.568  50.721  1.00  0.00     0.074 A 
HETATM   10  C   UNL     1       2.863  28.916  51.843  1.00  0.00     0.026 A 
HETATM   11  C   UNL     1       3.734  28.364  52.791  1.00  0.00     0.017 A 
BRANCH   9  12
HETATM   12  S   UNL     1       2.280  30.322  49.562  1.00  0.00     0.243 S 
HETATM   13  O   UNL     1       0.941  30.283  50.099  1.00  0.00    -0.206 OA
HETATM   14  O   UNL     1       2.856  31.562  49.086  1.00  0.00    -0.206 OA
BRANCH  12  15
HETATM   15  N   UNL     1       2.316  29.253  48.218  1.00  0.00    -0.203 NA
HETATM   16  C   UNL     1       3.331  29.548  47.158  1.00  0.00     0.135 C 
HETATM   17  C   UNL     1       2.910  30.699  46.219  1.00  0.00     0.250 C 
HETATM   18  N   UNL     1       1.506  30.475  45.662  1.00  0.00    -0.073 N 
HETATM   19  H   UNL     1       1.544  29.646  45.056  1.00  0.00     0.279 HD
HETATM   20  C   UNL     1       1.067  31.631  44.806  1.00  0.00     0.269 C 
HETATM   21  C   UNL     1       0.488  30.184  46.765  1.00  0.00     0.250 C 
HETATM   22  C   UNL     1       0.965  28.999  47.622  1.00  0.00     0.135 C 
ENDBRANCH  12  15
ENDBRANCH   9  12
ENDBRANCH   5   6
BRANCH   1  23
HETATM   23  C   UNL     1       5.754  29.456  55.580  1.00  0.00     0.128 C 
HETATM   24  C   UNL     1       4.459  29.099  56.293  1.00  0.00     0.027 C 
ENDBRANCH   1  23
BRANCH   2  25
HETATM   25  S   UNL     1       7.688  27.275  57.046  1.00  0.00    -0.081 SA
BRANCH  25  26
HETATM   26  C   UNL     1       7.111  25.614  57.493  1.00  0.00     0.185 C 
BRANCH  26  27
HETATM   27  C   UNL     1       7.836  24.443  56.840  1.00  0.00     0.231 C 
HETATM   28  N   UNL     1       7.113  23.761  55.883  1.00  0.00    -0.326 N 
HETATM   29  H   UNL     1       6.108  23.918  55.890  1.00  0.00     0.169 HD
HETATM   30  O   UNL     1       9.006  24.219  57.152  1.00  0.00    -0.272 OA
BRANCH  28  31
HETATM   31  C   UNL     1       7.549  22.686  55.080  1.00  0.00     0.037 A 
HETATM   32  C   UNL     1       8.008  21.469  55.589  1.00  0.00     0.066 A 
HETATM   33  C   UNL     1       8.419  20.464  54.714  1.00  0.00     0.067 A 
HETATM   34  C   UNL     1       8.381  20.649  53.338  1.00  0.00     0.036 A 
HETATM   35  C   UNL     1       7.933  21.862  52.823  1.00  0.00     0.005 A 
HETATM   36  C   UNL     1       7.521  22.877  53.691  1.00  0.00     0.029 A 
BRANCH  33  37
HETATM   37  O   UNL     1       8.872  19.263  55.179  1.00  0.00    -0.361 OA
HETATM   38  H   UNL     1       9.826  19.209  55.005  1.00  0.00     0.217 HD
ENDBRANCH  33  37
ENDBRANCH  28  31
ENDBRANCH  26  27
ENDBRANCH  25  26
ENDBRANCH   2  25
TORSDOF 9
ENDMDL
MODEL 9
REMARK VINA RESULT:      -8.5      2.132     11.507
REMARK  9 active torsions:
REMARK  status: ('A' for Active; 'I' for Inactive)
REMARK    1  A    between atoms: C_2  and  N_3 
REMARK    2  A    between atoms: C_4  and  S_5 
REMARK    3  A    between atoms: S_5  and  C_6 
REMARK    4  A    between atoms: C_6  and  C_7 
REMARK       I    between atoms: C_7  and  N_8 
REMARK    5  A    between atoms: N_8  and  C_9 
REMARK    6  A    between atoms: C_11  and  O_12 
REMARK    7  A    between atoms: C_19  and  C_20 
REMARK    8  A    between atoms: C_23  and  S_24 
REMARK    9  A    between atoms: S_24  and  N_25 
ROOT
HETATM    1  N   UNL     1       7.527  30.472  58.706  1.00  0.00    -0.308 N 
HETATM    2  C   UNL     1       7.137  31.628  59.329  1.00  0.00     0.192 A 
HETATM    3  N   UNL     1       5.903  31.920  59.010  1.00  0.00    -0.122 NA
HETATM    4  N   UNL     1       5.491  30.998  58.091  1.00  0.00    -0.128 NA
HETATM    5  C   UNL     1       6.470  30.133  57.879  1.00  0.00     0.164 A 
ENDROOT
BRANCH   5   6
HETATM    6  C   UNL     1       6.409  29.093  56.849  1.00  0.00     0.012 A 
HETATM    7  C   UNL     1       5.520  28.022  57.050  1.00  0.00     0.017 A 
HETATM    8  C   UNL     1       5.433  26.972  56.135  1.00  0.00     0.026 A 
HETATM    9  C   UNL     1       6.234  26.993  54.993  1.00  0.00     0.074 A 
HETATM   10  C   UNL     1       7.143  28.033  54.785  1.00  0.00     0.026 A 
HETATM   11  C   UNL     1       7.234  29.076  55.717  1.00  0.00     0.017 A 
BRANCH   9  12
HETATM   12  S   UNL     1       6.170  25.645  53.851  1.00  0.00     0.243 S 
HETATM   13  O   UNL     1       5.371  24.588  54.423  1.00  0.00    -0.206 OA
HETATM   14  O   UNL     1       5.897  26.151  52.523  1.00  0.00    -0.206 OA
BRANCH  12  15
HETATM   15  N   UNL     1       7.792  25.082  53.803  1.00  0.00    -0.203 NA
HETATM   16  C   UNL     1       8.139  24.139  52.694  1.00  0.00     0.135 C 
HETATM   17  C   UNL     1       7.655  22.696  52.952  1.00  0.00     0.250 C 
HETATM   18  N   UNL     1       8.101  22.199  54.325  1.00  0.00    -0.073 N 
HETATM   19  H   UNL     1       9.126  22.131  54.310  1.00  0.00     0.279 HD
HETATM   20  C   UNL     1       7.568  20.821  54.606  1.00  0.00     0.269 C 
HETATM   21  C   UNL     1       7.728  23.176  55.441  1.00  0.00     0.250 C 
HETATM   22  C   UNL     1       8.286  24.573  55.124  1.00  0.00     0.135 C 
ENDBRANCH  12  15
ENDBRANCH   9  12
ENDBRANCH   5   6
BRANCH   1  23
HETATM   23  C   UNL     1       8.807  29.809  58.835  1.00  0.00     0.128 C 
HETATM   24  C   UNL     1       9.855  30.380  57.893  1.00  0.00     0.027 C 
ENDBRANCH   1  23
BRANCH   2  25
HETATM   25  S   UNL     1       8.116  32.614  60.351  1.00  0.00    -0.081 SA
BRANCH  25  26
HETATM   26  C   UNL     1       8.062  31.687  61.909  1.00  0.00     0.185 C 
BRANCH  26  27
HETATM   27  C   UNL     1       6.916  32.014  62.857  1.00  0.00     0.231 C 
HETATM   28  N   UNL     1       7.178  33.005  63.781  1.00  0.00    -0.326 N 
HETATM   29  H   UNL     1       8.160  33.230  63.923  1.00  0.00     0.169 HD
HETATM   30  O   UNL     1       5.839  31.436  62.710  1.00  0.00    -0.272 OA
BRANCH  28  31
HETATM   31  C   UNL     1       6.291  33.552  64.732  1.00  0.00     0.037 A 
HETATM   32  C   UNL     1       4.957  33.865  64.462  1.00  0.00     0.066 A 
HETATM   33  C   UNL     1       4.156  34.403  65.469  1.00  0.00     0.067 A 
HETATM   34  C   UNL     1       4.660  34.637  66.741  1.00  0.00     0.036 A 
HETATM   35  C   UNL     1       5.991  34.335  67.015  1.00  0.00     0.005 A 
HETATM   36  C   UNL     1       6.803  33.797  66.013  1.00  0.00     0.029 A 
BRANCH  33  37
HETATM   37  O   UNL     1       2.848  34.720  65.238  1.00  0.00    -0.361 OA
HETATM   38  H   UNL     1       2.293  34.138  65.784  1.00  0.00     0.217 HD
ENDBRANCH  33  37
ENDBRANCH  28  31
ENDBRANCH  26  27
ENDBRANCH  25  26
ENDBRANCH   2  25
TORSDOF 9
ENDMDL
MODEL 10
REMARK VINA RESULT:      -8.4      2.177      3.057
REMARK  9 active torsions:
REMARK  status: ('A' for Active; 'I' for Inactive)
REMARK    1  A    between atoms: C_2  and  N_3 
REMARK    2  A    between atoms: C_4  and  S_5 
REMARK    3  A    between atoms: S_5  and  C_6 
REMARK    4  A    between atoms: C_6  and  C_7 
REMARK       I    between atoms: C_7  and  N_8 
REMARK    5  A    between atoms: N_8  and  C_9 
REMARK    6  A    between atoms: C_11  and  O_12 
REMARK    7  A    between atoms: C_19  and  C_20 
REMARK    8  A    between atoms: C_23  and  S_24 
REMARK    9  A    between atoms: S_24  and  N_25 
ROOT
HETATM    1  N   UNL     1       5.744  29.377  56.094  1.00  0.00    -0.308 N 
HETATM    2  C   UNL     1       6.768  28.667  55.526  1.00  0.00     0.192 A 
HETATM    3  N   UNL     1       7.803  28.648  56.324  1.00  0.00    -0.122 NA
HETATM    4  N   UNL     1       7.501  29.431  57.401  1.00  0.00    -0.128 NA
HETATM    5  C   UNL     1       6.271  29.898  57.263  1.00  0.00     0.164 A 
ENDROOT
BRANCH   5   6
HETATM    6  C   UNL     1       5.682  30.881  58.176  1.00  0.00     0.012 A 
HETATM    7  C   UNL     1       6.555  31.729  58.879  1.00  0.00     0.017 A 
HETATM    8  C   UNL     1       6.075  32.664  59.797  1.00  0.00     0.026 A 
HETATM    9  C   UNL     1       4.701  32.768  60.009  1.00  0.00     0.074 A 
HETATM   10  C   UNL     1       3.814  31.919  59.341  1.00  0.00     0.026 A 
HETATM   11  C   UNL     1       4.307  30.973  58.433  1.00  0.00     0.017 A 
BRANCH   9  12
HETATM   12  S   UNL     1       4.081  33.913  61.205  1.00  0.00     0.243 S 
HETATM   13  O   UNL     1       3.754  35.151  60.538  1.00  0.00    -0.206 OA
HETATM   14  O   UNL     1       3.117  33.248  62.056  1.00  0.00    -0.206 OA
BRANCH  12  15
HETATM   15  N   UNL     1       5.441  34.223  62.207  1.00  0.00    -0.203 NA
HETATM   16  C   UNL     1       5.588  33.358  63.420  1.00  0.00     0.135 C 
HETATM   17  C   UNL     1       4.652  33.772  64.576  1.00  0.00     0.250 C 
HETATM   18  N   UNL     1       4.776  35.263  64.883  1.00  0.00    -0.073 N 
HETATM   19  H   UNL     1       5.724  35.425  65.244  1.00  0.00     0.279 HD
HETATM   20  C   UNL     1       3.812  35.680  65.959  1.00  0.00     0.269 C 
HETATM   21  C   UNL     1       4.614  36.124  63.630  1.00  0.00     0.250 C 
HETATM   22  C   UNL     1       5.611  35.673  62.549  1.00  0.00     0.135 C 
ENDBRANCH  12  15
ENDBRANCH   9  12
ENDBRANCH   5   6
BRANCH   1  23
HETATM   23  C   UNL     1       4.427  29.593  55.536  1.00  0.00     0.128 C 
HETATM   24  C   UNL     1       4.359  30.843  54.672  1.00  0.00     0.027 C 
ENDBRANCH   1  23
BRANCH   2  25
HETATM   25  S   UNL     1       6.756  27.934  53.964  1.00  0.00    -0.081 SA
BRANCH  25  26
HETATM   26  C   UNL     1       6.198  26.253  54.359  1.00  0.00     0.185 C 
BRANCH  26  27
HETATM   27  C   UNL     1       7.163  25.121  54.028  1.00  0.00     0.231 C 
HETATM   28  N   UNL     1       6.882  23.911  54.629  1.00  0.00    -0.326 N 
HETATM   29  H   UNL     1       6.244  23.947  55.421  1.00  0.00     0.169 HD
HETATM   30  O   UNL     1       8.072  25.329  53.224  1.00  0.00    -0.272 OA
BRANCH  28  31
HETATM   31  C   UNL     1       7.560  22.686  54.457  1.00  0.00     0.037 A 
HETATM   32  C   UNL     1       8.246  22.026  55.479  1.00  0.00     0.066 A 
HETATM   33  C   UNL     1       8.888  20.817  55.211  1.00  0.00     0.067 A 
HETATM   34  C   UNL     1       8.861  20.253  53.943  1.00  0.00     0.036 A 
HETATM   35  C   UNL     1       8.187  20.910  52.918  1.00  0.00     0.005 A 
HETATM   36  C   UNL     1       7.541  22.123  53.173  1.00  0.00     0.029 A 
BRANCH  33  37
HETATM   37  O   UNL     1       9.567  20.145  56.188  1.00  0.00    -0.361 OA
HETATM   38  H   UNL     1      10.129  20.782  56.661  1.00  0.00     0.217 HD
ENDBRANCH  33  37
ENDBRANCH  28  31
ENDBRANCH  26  27
ENDBRANCH  25  26
ENDBRANCH   2  25
TORSDOF 9
ENDMDL
