MODEL 1
REMARK VINA RESULT:     -10.2      0.000      0.000
REMARK  6 active torsions:
REMARK  status: ('A' for Active; 'I' for Inactive)
REMARK    1  A    between atoms: O_2  and  C_3 
REMARK    2  A    between atoms: C_6  and  C_7 
REMARK    3  A    between atoms: N_9  and  C_10 
REMARK    4  A    between atoms: C_17  and  C_18 
REMARK       I    between atoms: C_18  and  N_19 
REMARK    5  A    between atoms: N_19  and  N_20 
REMARK       I    between atoms: N_20  and  C_21 
REMARK    6  A    between atoms: C_21  and  C_22 
ROOT
HETATM    1  C   UNL     1       7.133  26.081  54.790  1.00  0.00     0.105 A 
HETATM    2  N   UNL     1       7.935  26.661  55.705  1.00  0.00    -0.166 NA
HETATM    3  N   UNL     1       7.515  27.933  55.844  1.00  0.00    -0.244 N 
HETATM    4  C   UNL     1       6.445  28.190  55.029  1.00  0.00     0.138 A 
HETATM    5  C   UNL     1       6.166  27.029  54.326  1.00  0.00     0.082 A 
ENDROOT
BRANCH   5   6
HETATM    6  C   UNL     1       5.103  26.922  53.344  1.00  0.00     0.274 C 
HETATM    7  N   UNL     1       5.490  26.276  52.187  1.00  0.00    -0.263 N 
HETATM    8  H   UNL     1       6.452  25.994  52.002  1.00  0.00     0.190 HD
HETATM    9  O   UNL     1       3.965  27.348  53.510  1.00  0.00    -0.266 OA
BRANCH   7  10
HETATM   10  N   UNL     1       4.591  26.155  51.123  1.00  0.00    -0.262 N 
HETATM   11  C   UNL     1       4.735  27.004  50.046  1.00  0.00     0.286 C 
HETATM   12  O   UNL     1       5.613  27.866  50.021  1.00  0.00    -0.264 OA
HETATM   13  H   UNL     1       3.913  25.399  51.166  1.00  0.00     0.190 HD
BRANCH  11  14
HETATM   14  C   UNL     1       3.801  26.812  48.961  1.00  0.00     0.102 A 
HETATM   15  N   UNL     1       2.519  27.321  49.023  1.00  0.00    -0.361 N 
HETATM   16  H   UNL     1       2.162  27.848  49.811  1.00  0.00     0.165 HD
HETATM   17  C   UNL     1       1.829  27.012  47.882  1.00  0.00     0.088 A 
HETATM   18  C   UNL     1       2.666  26.287  47.068  1.00  0.00     0.019 A 
HETATM   19  C   UNL     1       3.905  26.158  47.743  1.00  0.00     0.036 A 
ENDBRANCH  11  14
ENDBRANCH   7  10
ENDBRANCH   5   6
BRANCH   1  20
HETATM   20  C   UNL     1       7.339  24.648  54.484  1.00  0.00    -0.004 A 
HETATM   21  C   UNL     1       7.729  24.266  53.186  1.00  0.00     0.016 A 
HETATM   22  C   UNL     1       7.988  22.930  52.851  1.00  0.00     0.037 A 
HETATM   23  C   UNL     1       7.858  21.934  53.813  1.00  0.00     0.068 A 
HETATM   24  C   UNL     1       7.453  22.291  55.097  1.00  0.00     0.037 A 
HETATM   25  C   UNL     1       7.212  23.631  55.435  1.00  0.00     0.016 A 
BRANCH  23  26
HETATM   26  O   UNL     1       8.085  20.599  53.626  1.00  0.00    -0.356 OA
HETATM   27  C   UNL     1       8.752  19.917  54.679  1.00  0.00     0.210 C 
ENDBRANCH  23  26
ENDBRANCH   1  20
BRANCH   3  28
HETATM   28  C   UNL     1       8.151  28.819  56.758  1.00  0.00     0.058 A 
HETATM   29  C   UNL     1       9.417  29.337  56.448  1.00  0.00     0.031 A 
HETATM   30  C   UNL     1      10.064  30.199  57.337  1.00  0.00     0.002 A 
HETATM   31  C   UNL     1       9.452  30.551  58.539  1.00  0.00     0.000 A 
HETATM   32  C   UNL     1       8.194  30.042  58.854  1.00  0.00     0.002 A 
HETATM   33  C   UNL     1       7.540  29.179  57.969  1.00  0.00     0.031 A 
ENDBRANCH   3  28
TORSDOF 6
ENDMDL
MODEL 2
REMARK VINA RESULT:     -10.0      2.637      8.627
REMARK  6 active torsions:
REMARK  status: ('A' for Active; 'I' for Inactive)
REMARK    1  A    between atoms: O_2  and  C_3 
REMARK    2  A    between atoms: C_6  and  C_7 
REMARK    3  A    between atoms: N_9  and  C_10 
REMARK    4  A    between atoms: C_17  and  C_18 
REMARK       I    between atoms: C_18  and  N_19 
REMARK    5  A    between atoms: N_19  and  N_20 
REMARK       I    between atoms: N_20  and  C_21 
REMARK    6  A    between atoms: C_21  and  C_22 
ROOT
HETATM    1  C   UNL     1       6.179  25.691  54.133  1.00  0.00     0.105 A 
HETATM    2  N   UNL     1       6.548  24.500  53.623  1.00  0.00    -0.166 NA
HETATM    3  N   UNL     1       7.149  23.818  54.617  1.00  0.00    -0.244 N 
HETATM    4  C   UNL     1       7.175  24.552  55.772  1.00  0.00     0.138 A 
HETATM    5  C   UNL     1       6.567  25.769  55.508  1.00  0.00     0.082 A 
ENDROOT
BRANCH   5   6
HETATM    6  C   UNL     1       6.425  26.824  56.494  1.00  0.00     0.274 C 
HETATM    7  N   UNL     1       7.593  27.526  56.716  1.00  0.00    -0.263 N 
HETATM    8  H   UNL     1       8.487  27.263  56.304  1.00  0.00     0.190 HD
HETATM    9  O   UNL     1       5.378  27.087  57.078  1.00  0.00    -0.266 OA
BRANCH   7  10
HETATM   10  N   UNL     1       7.626  28.531  57.687  1.00  0.00    -0.262 N 
HETATM   11  C   UNL     1       8.779  29.278  57.814  1.00  0.00     0.286 C 
HETATM   12  O   UNL     1       9.767  29.059  57.113  1.00  0.00    -0.264 OA
HETATM   13  H   UNL     1       6.773  28.708  58.209  1.00  0.00     0.190 HD
BRANCH  11  14
HETATM   14  C   UNL     1       8.746  30.325  58.808  1.00  0.00     0.102 A 
HETATM   15  N   UNL     1       7.851  30.286  59.859  1.00  0.00    -0.361 N 
HETATM   16  H   UNL     1       7.179  29.540  59.996  1.00  0.00     0.165 HD
HETATM   17  C   UNL     1       8.014  31.381  60.664  1.00  0.00     0.088 A 
HETATM   18  C   UNL     1       9.021  32.149  60.130  1.00  0.00     0.019 A 
HETATM   19  C   UNL     1       9.483  31.490  58.964  1.00  0.00     0.036 A 
ENDBRANCH  11  14
ENDBRANCH   7  10
ENDBRANCH   5   6
BRANCH   1  20
HETATM   20  C   UNL     1       5.437  26.628  53.260  1.00  0.00    -0.004 A 
HETATM   21  C   UNL     1       5.677  26.620  51.872  1.00  0.00     0.016 A 
HETATM   22  C   UNL     1       4.969  27.448  50.991  1.00  0.00     0.037 A 
HETATM   23  C   UNL     1       3.999  28.317  51.480  1.00  0.00     0.068 A 
HETATM   24  C   UNL     1       3.762  28.353  52.853  1.00  0.00     0.037 A 
HETATM   25  C   UNL     1       4.460  27.510  53.731  1.00  0.00     0.016 A 
BRANCH  23  26
HETATM   26  O   UNL     1       3.232  29.169  50.737  1.00  0.00    -0.356 OA
HETATM   27  C   UNL     1       2.921  28.752  49.414  1.00  0.00     0.210 C 
ENDBRANCH  23  26
ENDBRANCH   1  20
BRANCH   3  28
HETATM   28  C   UNL     1       7.646  22.501  54.405  1.00  0.00     0.058 A 
HETATM   29  C   UNL     1       7.912  21.679  55.510  1.00  0.00     0.031 A 
HETATM   30  C   UNL     1       8.410  20.387  55.325  1.00  0.00     0.002 A 
HETATM   31  C   UNL     1       8.646  19.907  54.038  1.00  0.00     0.000 A 
HETATM   32  C   UNL     1       8.382  20.716  52.935  1.00  0.00     0.002 A 
HETATM   33  C   UNL     1       7.883  22.010  53.112  1.00  0.00     0.031 A 
ENDBRANCH   3  28
TORSDOF 6
ENDMDL
MODEL 3
REMARK VINA RESULT:     -10.0      2.015      6.003
REMARK  6 active torsions:
REMARK  status: ('A' for Active; 'I' for Inactive)
REMARK    1  A    between atoms: O_2  and  C_3 
REMARK    2  A    between atoms: C_6  and  C_7 
REMARK    3  A    between atoms: N_9  and  C_10 
REMARK    4  A    between atoms: C_17  and  C_18 
REMARK       I    between atoms: C_18  and  N_19 
REMARK    5  A    between atoms: N_19  and  N_20 
REMARK       I    between atoms: N_20  and  C_21 
REMARK    6  A    between atoms: C_21  and  C_22 
ROOT
HETATM    1  C   UNL     1       6.868  25.914  54.852  1.00  0.00     0.105 A 
HETATM    2  N   UNL     1       7.525  24.767  55.115  1.00  0.00    -0.166 NA
HETATM    3  N   UNL     1       7.080  23.850  54.236  1.00  0.00    -0.244 N 
HETATM    4  C   UNL     1       6.139  24.386  53.399  1.00  0.00     0.138 A 
HETATM    5  C   UNL     1       5.965  25.712  53.761  1.00  0.00     0.082 A 
ENDROOT
BRANCH   5   6
HETATM    6  C   UNL     1       5.025  26.605  53.107  1.00  0.00     0.274 C 
HETATM    7  N   UNL     1       4.901  26.369  51.752  1.00  0.00    -0.263 N 
HETATM    8  H   UNL     1       5.485  25.705  51.246  1.00  0.00     0.190 HD
HETATM    9  O   UNL     1       4.389  27.481  53.683  1.00  0.00    -0.266 OA
BRANCH   7  10
HETATM   10  N   UNL     1       4.080  27.193  50.975  1.00  0.00    -0.262 N 
HETATM   11  C   UNL     1       4.137  27.065  49.603  1.00  0.00     0.286 C 
HETATM   12  O   UNL     1       4.905  26.268  49.064  1.00  0.00    -0.264 OA
HETATM   13  H   UNL     1       3.430  27.801  51.464  1.00  0.00     0.190 HD
BRANCH  11  14
HETATM   14  C   UNL     1       3.244  27.915  48.852  1.00  0.00     0.102 A 
HETATM   15  N   UNL     1       1.911  28.031  49.194  1.00  0.00    -0.361 N 
HETATM   16  H   UNL     1       1.487  27.541  49.973  1.00  0.00     0.165 HD
HETATM   17  C   UNL     1       1.273  28.890  48.341  1.00  0.00     0.088 A 
HETATM   18  C   UNL     1       2.197  29.336  47.426  1.00  0.00     0.019 A 
HETATM   19  C   UNL     1       3.435  28.725  47.743  1.00  0.00     0.036 A 
ENDBRANCH  11  14
ENDBRANCH   7  10
ENDBRANCH   5   6
BRANCH   1  20
HETATM   20  C   UNL     1       7.211  27.117  55.643  1.00  0.00    -0.004 A 
HETATM   21  C   UNL     1       6.911  27.149  57.019  1.00  0.00     0.016 A 
HETATM   22  C   UNL     1       7.257  28.239  57.830  1.00  0.00     0.037 A 
HETATM   23  C   UNL     1       7.911  29.335  57.278  1.00  0.00     0.068 A 
HETATM   24  C   UNL     1       8.197  29.330  55.915  1.00  0.00     0.037 A 
HETATM   25  C   UNL     1       7.867  28.230  55.109  1.00  0.00     0.016 A 
BRANCH  23  26
HETATM   26  O   UNL     1       8.312  30.456  57.951  1.00  0.00    -0.356 OA
HETATM   27  C   UNL     1       8.470  30.328  59.358  1.00  0.00     0.210 C 
ENDBRANCH  23  26
ENDBRANCH   1  20
BRANCH   3  28
HETATM   28  C   UNL     1       7.594  22.522  54.239  1.00  0.00     0.058 A 
HETATM   29  C   UNL     1       7.774  21.856  55.461  1.00  0.00     0.031 A 
HETATM   30  C   UNL     1       8.287  20.557  55.488  1.00  0.00     0.002 A 
HETATM   31  C   UNL     1       8.623  19.915  54.298  1.00  0.00     0.000 A 
HETATM   32  C   UNL     1       8.446  20.568  53.080  1.00  0.00     0.002 A 
HETATM   33  C   UNL     1       7.932  21.868  53.045  1.00  0.00     0.031 A 
ENDBRANCH   3  28
TORSDOF 6
ENDMDL
MODEL 4
REMARK VINA RESULT:      -9.9      1.889      7.679
REMARK  6 active torsions:
REMARK  status: ('A' for Active; 'I' for Inactive)
REMARK    1  A    between atoms: O_2  and  C_3 
REMARK    2  A    between atoms: C_6  and  C_7 
REMARK    3  A    between atoms: N_9  and  C_10 
REMARK    4  A    between atoms: C_17  and  C_18 
REMARK       I    between atoms: C_18  and  N_19 
REMARK    5  A    between atoms: N_19  and  N_20 
REMARK       I    between atoms: N_20  and  C_21 
REMARK    6  A    between atoms: C_21  and  C_22 
ROOT
HETATM    1  C   UNL     1       6.287  26.005  52.621  1.00  0.00     0.105 A 
HETATM    2  N   UNL     1       5.521  25.795  51.531  1.00  0.00    -0.166 NA
HETATM    3  N   UNL     1       5.181  27.007  51.052  1.00  0.00    -0.244 N 
HETATM    4  C   UNL     1       5.717  28.007  51.818  1.00  0.00     0.138 A 
HETATM    5  C   UNL     1       6.433  27.411  52.843  1.00  0.00     0.082 A 
ENDROOT
BRANCH   5   6
HETATM    6  C   UNL     1       7.131  28.159  53.874  1.00  0.00     0.274 C 
HETATM    7  N   UNL     1       6.284  28.870  54.701  1.00  0.00    -0.263 N 
HETATM    8  H   UNL     1       5.280  28.943  54.540  1.00  0.00     0.190 HD
HETATM    9  O   UNL     1       8.349  28.164  54.018  1.00  0.00    -0.266 OA
BRANCH   7  10
HETATM   10  N   UNL     1       6.815  29.690  55.701  1.00  0.00    -0.262 N 
HETATM   11  C   UNL     1       6.719  29.269  57.010  1.00  0.00     0.286 C 
HETATM   12  O   UNL     1       6.160  28.212  57.306  1.00  0.00    -0.264 OA
HETATM   13  H   UNL     1       7.309  30.528  55.407  1.00  0.00     0.190 HD
BRANCH  11  14
HETATM   14  C   UNL     1       7.315  30.137  57.998  1.00  0.00     0.102 A 
HETATM   15  N   UNL     1       6.536  30.924  58.822  1.00  0.00    -0.361 N 
HETATM   16  H   UNL     1       5.523  30.942  58.788  1.00  0.00     0.165 HD
HETATM   17  C   UNL     1       7.325  31.653  59.671  1.00  0.00     0.088 A 
HETATM   18  C   UNL     1       8.636  31.344  59.394  1.00  0.00     0.019 A 
HETATM   19  C   UNL     1       8.634  30.393  58.344  1.00  0.00     0.036 A 
ENDBRANCH  11  14
ENDBRANCH   7  10
ENDBRANCH   5   6
BRANCH   1  20
HETATM   20  C   UNL     1       6.852  24.829  53.318  1.00  0.00    -0.004 A 
HETATM   21  C   UNL     1       7.712  23.957  52.621  1.00  0.00     0.016 A 
HETATM   22  C   UNL     1       8.317  22.856  53.243  1.00  0.00     0.037 A 
HETATM   23  C   UNL     1       8.072  22.595  54.586  1.00  0.00     0.068 A 
HETATM   24  C   UNL     1       7.208  23.435  55.287  1.00  0.00     0.037 A 
HETATM   25  C   UNL     1       6.618  24.547  54.667  1.00  0.00     0.016 A 
BRANCH  23  26
HETATM   26  O   UNL     1       8.599  21.567  55.316  1.00  0.00    -0.356 OA
HETATM   27  C   UNL     1       7.670  20.671  55.912  1.00  0.00     0.210 C 
ENDBRANCH  23  26
ENDBRANCH   1  20
BRANCH   3  28
HETATM   28  C   UNL     1       4.378  27.133  49.884  1.00  0.00     0.058 A 
HETATM   29  C   UNL     1       4.209  26.025  49.041  1.00  0.00     0.031 A 
HETATM   30  C   UNL     1       3.434  26.130  47.883  1.00  0.00     0.002 A 
HETATM   31  C   UNL     1       2.823  27.340  47.560  1.00  0.00     0.000 A 
HETATM   32  C   UNL     1       2.983  28.445  48.393  1.00  0.00     0.002 A 
HETATM   33  C   UNL     1       3.757  28.347  49.553  1.00  0.00     0.031 A 
ENDBRANCH   3  28
TORSDOF 6
ENDMDL
MODEL 5
REMARK VINA RESULT:      -9.4      2.670      6.382
REMARK  6 active torsions:
REMARK  status: ('A' for Active; 'I' for Inactive)
REMARK    1  A    between atoms: O_2  and  C_3 
REMARK    2  A    between atoms: C_6  and  C_7 
REMARK    3  A    between atoms: N_9  and  C_10 
REMARK    4  A    between atoms: C_17  and  C_18 
REMARK       I    between atoms: C_18  and  N_19 
REMARK    5  A    between atoms: N_19  and  N_20 
REMARK       I    between atoms: N_20  and  C_21 
REMARK    6  A    between atoms: C_21  and  C_22 
ROOT
HETATM    1  C   UNL     1       6.580  25.915  54.804  1.00  0.00     0.105 A 
HETATM    2  N   UNL     1       7.146  24.771  55.238  1.00  0.00    -0.166 NA
HETATM    3  N   UNL     1       7.019  23.871  54.245  1.00  0.00    -0.244 N 
HETATM    4  C   UNL     1       6.376  24.416  53.166  1.00  0.00     0.138 A 
HETATM    5  C   UNL     1       6.069  25.729  53.481  1.00  0.00     0.082 A 
ENDROOT
BRANCH   5   6
HETATM    6  C   UNL     1       5.363  26.625  52.583  1.00  0.00     0.274 C 
HETATM    7  N   UNL     1       4.144  27.045  53.076  1.00  0.00    -0.263 N 
HETATM    8  H   UNL     1       3.737  26.682  53.937  1.00  0.00     0.190 HD
HETATM    9  O   UNL     1       5.794  26.991  51.494  1.00  0.00    -0.266 OA
BRANCH   7  10
HETATM   10  N   UNL     1       3.321  27.861  52.294  1.00  0.00    -0.262 N 
HETATM   11  C   UNL     1       3.420  29.228  52.448  1.00  0.00     0.286 C 
HETATM   12  O   UNL     1       4.191  29.728  53.267  1.00  0.00    -0.264 OA
HETATM   13  H   UNL     1       2.736  27.407  51.599  1.00  0.00     0.190 HD
BRANCH  11  14
HETATM   14  C   UNL     1       2.572  30.023  51.591  1.00  0.00     0.102 A 
HETATM   15  N   UNL     1       2.365  31.365  51.836  1.00  0.00    -0.361 N 
HETATM   16  H   UNL     1       2.783  31.865  52.612  1.00  0.00     0.165 HD
HETATM   17  C   UNL     1       1.531  31.899  50.890  1.00  0.00     0.088 A 
HETATM   18  C   UNL     1       1.184  30.893  50.021  1.00  0.00     0.019 A 
HETATM   19  C   UNL     1       1.835  29.713  50.457  1.00  0.00     0.036 A 
ENDBRANCH  11  14
ENDBRANCH   7  10
ENDBRANCH   5   6
BRANCH   1  20
HETATM   20  C   UNL     1       6.631  27.102  55.687  1.00  0.00    -0.004 A 
HETATM   21  C   UNL     1       5.453  27.549  56.316  1.00  0.00     0.016 A 
HETATM   22  C   UNL     1       5.449  28.635  57.202  1.00  0.00     0.037 A 
HETATM   23  C   UNL     1       6.633  29.310  57.479  1.00  0.00     0.068 A 
HETATM   24  C   UNL     1       7.805  28.895  56.849  1.00  0.00     0.037 A 
HETATM   25  C   UNL     1       7.810  27.796  55.977  1.00  0.00     0.016 A 
BRANCH  23  26
HETATM   26  O   UNL     1       6.774  30.375  58.324  1.00  0.00    -0.356 OA
HETATM   27  C   UNL     1       8.003  30.463  59.033  1.00  0.00     0.210 C 
ENDBRANCH  23  26
ENDBRANCH   1  20
BRANCH   3  28
HETATM   28  C   UNL     1       7.534  22.551  54.383  1.00  0.00     0.058 A 
HETATM   29  C   UNL     1       7.671  21.995  55.664  1.00  0.00     0.031 A 
HETATM   30  C   UNL     1       8.184  20.706  55.822  1.00  0.00     0.002 A 
HETATM   31  C   UNL     1       8.563  19.963  54.706  1.00  0.00     0.000 A 
HETATM   32  C   UNL     1       8.428  20.506  53.430  1.00  0.00     0.002 A 
HETATM   33  C   UNL     1       7.915  21.796  53.263  1.00  0.00     0.031 A 
ENDBRANCH   3  28
TORSDOF 6
ENDMDL
MODEL 6
REMARK VINA RESULT:      -9.3      2.536      7.896
REMARK  6 active torsions:
REMARK  status: ('A' for Active; 'I' for Inactive)
REMARK    1  A    between atoms: O_2  and  C_3 
REMARK    2  A    between atoms: C_6  and  C_7 
REMARK    3  A    between atoms: N_9  and  C_10 
REMARK    4  A    between atoms: C_17  and  C_18 
REMARK       I    between atoms: C_18  and  N_19 
REMARK    5  A    between atoms: N_19  and  N_20 
REMARK       I    between atoms: N_20  and  C_21 
REMARK    6  A    between atoms: C_21  and  C_22 
ROOT
HETATM    1  C   UNL     1       6.413  26.478  54.502  1.00  0.00     0.105 A 
HETATM    2  N   UNL     1       6.227  26.464  53.167  1.00  0.00    -0.166 NA
HETATM    3  N   UNL     1       5.774  27.685  52.822  1.00  0.00    -0.244 N 
HETATM    4  C   UNL     1       5.663  28.497  53.919  1.00  0.00     0.138 A 
HETATM    5  C   UNL     1       6.058  27.761  55.025  1.00  0.00     0.082 A 
ENDROOT
BRANCH   5   6
HETATM    6  C   UNL     1       6.056  28.286  56.379  1.00  0.00     0.274 C 
HETATM    7  N   UNL     1       6.857  29.400  56.534  1.00  0.00    -0.263 N 
HETATM    8  H   UNL     1       7.466  29.755  55.798  1.00  0.00     0.190 HD
HETATM    9  O   UNL     1       5.408  27.808  57.304  1.00  0.00    -0.266 OA
BRANCH   7  10
HETATM   10  N   UNL     1       7.007  29.978  57.798  1.00  0.00    -0.262 N 
HETATM   11  C   UNL     1       8.236  29.887  58.417  1.00  0.00     0.286 C 
HETATM   12  O   UNL     1       9.178  29.294  57.890  1.00  0.00    -0.264 OA
HETATM   13  H   UNL     1       6.218  30.497  58.172  1.00  0.00     0.190 HD
BRANCH  11  14
HETATM   14  C   UNL     1       8.344  30.532  59.705  1.00  0.00     0.102 A 
HETATM   15  N   UNL     1       7.222  30.940  60.396  1.00  0.00    -0.361 N 
HETATM   16  H   UNL     1       6.276  30.817  60.054  1.00  0.00     0.165 HD
HETATM   17  C   UNL     1       7.578  31.519  61.584  1.00  0.00     0.088 A 
HETATM   18  C   UNL     1       8.950  31.495  61.668  1.00  0.00     0.019 A 
HETATM   19  C   UNL     1       9.435  30.876  60.489  1.00  0.00     0.036 A 
ENDBRANCH  11  14
ENDBRANCH   7  10
ENDBRANCH   5   6
BRANCH   1  20
HETATM   20  C   UNL     1       6.967  25.266  55.145  1.00  0.00    -0.004 A 
HETATM   21  C   UNL     1       6.816  24.016  54.513  1.00  0.00     0.016 A 
HETATM   22  C   UNL     1       7.363  22.842  55.049  1.00  0.00     0.037 A 
HETATM   23  C   UNL     1       8.076  22.888  56.243  1.00  0.00     0.068 A 
HETATM   24  C   UNL     1       8.217  24.113  56.892  1.00  0.00     0.037 A 
HETATM   25  C   UNL     1       7.685  25.290  56.344  1.00  0.00     0.016 A 
BRANCH  23  26
HETATM   26  O   UNL     1       8.666  21.827  56.870  1.00  0.00    -0.356 OA
HETATM   27  C   UNL     1       8.451  20.548  56.289  1.00  0.00     0.210 C 
ENDBRANCH  23  26
ENDBRANCH   1  20
BRANCH   3  28
HETATM   28  C   UNL     1       5.491  28.005  51.464  1.00  0.00     0.058 A 
HETATM   29  C   UNL     1       5.122  26.982  50.578  1.00  0.00     0.031 A 
HETATM   30  C   UNL     1       4.851  27.272  49.239  1.00  0.00     0.002 A 
HETATM   31  C   UNL     1       4.945  28.583  48.775  1.00  0.00     0.000 A 
HETATM   32  C   UNL     1       5.309  29.605  49.650  1.00  0.00     0.002 A 
HETATM   33  C   UNL     1       5.582  29.322  50.992  1.00  0.00     0.031 A 
ENDBRANCH   3  28
TORSDOF 6
ENDMDL
MODEL 7
REMARK VINA RESULT:      -9.3      1.612      2.253
REMARK  6 active torsions:
REMARK  status: ('A' for Active; 'I' for Inactive)
REMARK    1  A    between atoms: O_2  and  C_3 
REMARK    2  A    between atoms: C_6  and  C_7 
REMARK    3  A    between atoms: N_9  and  C_10 
REMARK    4  A    between atoms: C_17  and  C_18 
REMARK       I    between atoms: C_18  and  N_19 
REMARK    5  A    between atoms: N_19  and  N_20 
REMARK       I    between atoms: N_20  and  C_21 
REMARK    6  A    between atoms: C_21  and  C_22 
ROOT
HETATM    1  C   UNL     1       7.328  27.646  56.157  1.00  0.00     0.105 A 
HETATM    2  N   UNL     1       7.962  28.285  57.161  1.00  0.00    -0.166 NA
HETATM    3  N   UNL     1       7.487  29.544  57.185  1.00  0.00    -0.244 N 
HETATM    4  C   UNL     1       6.546  29.735  56.209  1.00  0.00     0.138 A 
HETATM    5  C   UNL     1       6.414  28.542  55.517  1.00  0.00     0.082 A 
ENDROOT
BRANCH   5   6
HETATM    6  C   UNL     1       5.517  28.364  54.390  1.00  0.00     0.274 C 
HETATM    7  N   UNL     1       6.105  28.645  53.173  1.00  0.00    -0.263 N 
HETATM    8  H   UNL     1       7.042  29.036  53.085  1.00  0.00     0.190 HD
HETATM    9  O   UNL     1       4.351  27.994  54.487  1.00  0.00    -0.266 OA
BRANCH   7  10
HETATM   10  N   UNL     1       5.345  28.581  52.002  1.00  0.00    -0.262 N 
HETATM   11  C   UNL     1       5.425  27.439  51.232  1.00  0.00     0.286 C 
HETATM   12  O   UNL     1       6.162  26.504  51.546  1.00  0.00    -0.264 OA
HETATM   13  H   UNL     1       4.716  29.355  51.808  1.00  0.00     0.190 HD
BRANCH  11  14
HETATM   14  C   UNL     1       4.592  27.413  50.053  1.00  0.00     0.102 A 
HETATM   15  N   UNL     1       3.316  27.940  50.066  1.00  0.00    -0.361 N 
HETATM   16  H   UNL     1       2.894  28.368  50.882  1.00  0.00     0.165 HD
HETATM   17  C   UNL     1       2.730  27.799  48.837  1.00  0.00     0.088 A 
HETATM   18  C   UNL     1       3.629  27.167  48.013  1.00  0.00     0.019 A 
HETATM   19  C   UNL     1       4.800  26.922  48.772  1.00  0.00     0.036 A 
ENDBRANCH  11  14
ENDBRANCH   7  10
ENDBRANCH   5   6
BRANCH   1  20
HETATM   20  C   UNL     1       7.622  26.212  55.941  1.00  0.00    -0.004 A 
HETATM   21  C   UNL     1       7.446  25.654  54.660  1.00  0.00     0.016 A 
HETATM   22  C   UNL     1       7.756  24.315  54.383  1.00  0.00     0.037 A 
HETATM   23  C   UNL     1       8.250  23.494  55.391  1.00  0.00     0.068 A 
HETATM   24  C   UNL     1       8.412  24.023  56.669  1.00  0.00     0.037 A 
HETATM   25  C   UNL     1       8.118  25.368  56.939  1.00  0.00     0.016 A 
BRANCH  23  26
HETATM   26  O   UNL     1       8.600  22.179  55.259  1.00  0.00    -0.356 OA
HETATM   27  C   UNL     1       9.086  21.777  53.984  1.00  0.00     0.210 C 
ENDBRANCH  23  26
ENDBRANCH   1  20
BRANCH   3  28
HETATM   28  C   UNL     1       7.948  30.482  58.152  1.00  0.00     0.058 A 
HETATM   29  C   UNL     1       7.015  31.205  58.911  1.00  0.00     0.031 A 
HETATM   30  C   UNL     1       7.446  32.138  59.856  1.00  0.00     0.002 A 
HETATM   31  C   UNL     1       8.808  32.356  60.052  1.00  0.00     0.000 A 
HETATM   32  C   UNL     1       9.742  31.641  59.304  1.00  0.00     0.002 A 
HETATM   33  C   UNL     1       9.318  30.705  58.355  1.00  0.00     0.031 A 
ENDBRANCH   3  28
TORSDOF 6
ENDMDL
MODEL 8
REMARK VINA RESULT:      -9.1      2.778      7.941
REMARK  6 active torsions:
REMARK  status: ('A' for Active; 'I' for Inactive)
REMARK    1  A    between atoms: O_2  and  C_3 
REMARK    2  A    between atoms: C_6  and  C_7 
REMARK    3  A    between atoms: N_9  and  C_10 
REMARK    4  A    between atoms: C_17  and  C_18 
REMARK       I    between atoms: C_18  and  N_19 
REMARK    5  A    between atoms: N_19  and  N_20 
REMARK       I    between atoms: N_20  and  C_21 
REMARK    6  A    between atoms: C_21  and  C_22 
ROOT
HETATM    1  C   UNL     1       5.791  26.320  52.381  1.00  0.00     0.105 A 
HETATM    2  N   UNL     1       6.359  25.098  52.339  1.00  0.00    -0.166 NA
HETATM    3  N   UNL     1       6.603  24.735  53.613  1.00  0.00    -0.244 N 
HETATM    4  C   UNL     1       6.198  25.708  54.488  1.00  0.00     0.138 A 
HETATM    5  C   UNL     1       5.674  26.750  53.741  1.00  0.00     0.082 A 
ENDROOT
BRANCH   5   6
HETATM    6  C   UNL     1       5.158  27.975  54.325  1.00  0.00     0.274 C 
HETATM    7  N   UNL     1       6.147  28.867  54.687  1.00  0.00    -0.263 N 
HETATM    8  H   UNL     1       7.141  28.645  54.642  1.00  0.00     0.190 HD
HETATM    9  O   UNL     1       3.965  28.216  54.483  1.00  0.00    -0.266 OA
BRANCH   7  10
HETATM   10  N   UNL     1       5.806  30.064  55.323  1.00  0.00    -0.262 N 
HETATM   11  C   UNL     1       5.904  30.125  56.697  1.00  0.00     0.286 C 
HETATM   12  O   UNL     1       6.258  29.150  57.360  1.00  0.00    -0.264 OA
HETATM   13  H   UNL     1       5.565  30.856  54.734  1.00  0.00     0.190 HD
BRANCH  11  14
HETATM   14  C   UNL     1       5.572  31.396  57.298  1.00  0.00     0.102 A 
HETATM   15  N   UNL     1       5.046  32.427  56.546  1.00  0.00    -0.361 N 
HETATM   16  H   UNL     1       4.862  32.359  55.552  1.00  0.00     0.165 HD
HETATM   17  C   UNL     1       4.814  33.521  57.335  1.00  0.00     0.088 A 
HETATM   18  C   UNL     1       5.200  33.206  58.616  1.00  0.00     0.019 A 
HETATM   19  C   UNL     1       5.678  31.872  58.597  1.00  0.00     0.036 A 
ENDBRANCH  11  14
ENDBRANCH   7  10
ENDBRANCH   5   6
BRANCH   1  20
HETATM   20  C   UNL     1       5.364  26.939  51.107  1.00  0.00    -0.004 A 
HETATM   21  C   UNL     1       5.549  28.322  50.913  1.00  0.00     0.016 A 
HETATM   22  C   UNL     1       5.211  28.955  49.708  1.00  0.00     0.037 A 
HETATM   23  C   UNL     1       4.669  28.215  48.663  1.00  0.00     0.068 A 
HETATM   24  C   UNL     1       4.460  26.849  48.844  1.00  0.00     0.037 A 
HETATM   25  C   UNL     1       4.816  26.215  50.044  1.00  0.00     0.016 A 
BRANCH  23  26
HETATM   26  O   UNL     1       4.303  28.700  47.438  1.00  0.00    -0.356 OA
HETATM   27  C   UNL     1       2.909  28.748  47.167  1.00  0.00     0.210 C 
ENDBRANCH  23  26
ENDBRANCH   1  20
BRANCH   3  28
HETATM   28  C   UNL     1       7.192  23.476  53.916  1.00  0.00     0.058 A 
HETATM   29  C   UNL     1       7.274  23.057  55.253  1.00  0.00     0.031 A 
HETATM   30  C   UNL     1       7.858  21.829  55.573  1.00  0.00     0.002 A 
HETATM   31  C   UNL     1       8.362  21.011  54.564  1.00  0.00     0.000 A 
HETATM   32  C   UNL     1       8.283  21.418  53.234  1.00  0.00     0.002 A 
HETATM   33  C   UNL     1       7.699  22.646  52.905  1.00  0.00     0.031 A 
ENDBRANCH   3  28
TORSDOF 6
ENDMDL
MODEL 9
REMARK VINA RESULT:      -9.0     10.376     15.761
REMARK  6 active torsions:
REMARK  status: ('A' for Active; 'I' for Inactive)
REMARK    1  A    between atoms: O_2  and  C_3 
REMARK    2  A    between atoms: C_6  and  C_7 
REMARK    3  A    between atoms: N_9  and  C_10 
REMARK    4  A    between atoms: C_17  and  C_18 
REMARK       I    between atoms: C_18  and  N_19 
REMARK    5  A    between atoms: N_19  and  N_20 
REMARK       I    between atoms: N_20  and  C_21 
REMARK    6  A    between atoms: C_21  and  C_22 
ROOT
HETATM    1  C   UNL     1       5.865  34.797  63.132  1.00  0.00     0.105 A 
HETATM    2  N   UNL     1       5.638  35.871  62.349  1.00  0.00    -0.166 NA
HETATM    3  N   UNL     1       5.029  36.794  63.117  1.00  0.00    -0.244 N 
HETATM    4  C   UNL     1       4.857  36.335  64.395  1.00  0.00     0.138 A 
HETATM    5  C   UNL     1       5.375  35.051  64.452  1.00  0.00     0.082 A 
ENDROOT
BRANCH   5   6
HETATM    6  C   UNL     1       5.354  34.231  65.650  1.00  0.00     0.274 C 
HETATM    7  N   UNL     1       6.377  34.523  66.530  1.00  0.00    -0.263 N 
HETATM    8  H   UNL     1       7.128  35.177  66.313  1.00  0.00     0.190 HD
HETATM    9  O   UNL     1       4.515  33.366  65.880  1.00  0.00    -0.266 OA
BRANCH   7  10
HETATM   10  N   UNL     1       6.525  33.771  67.699  1.00  0.00    -0.262 N 
HETATM   11  C   UNL     1       6.817  34.436  68.871  1.00  0.00     0.286 C 
HETATM   12  O   UNL     1       6.970  35.658  68.895  1.00  0.00    -0.264 OA
HETATM   13  H   UNL     1       6.343  32.773  67.640  1.00  0.00     0.190 HD
BRANCH  11  14
HETATM   14  C   UNL     1       6.924  33.614  70.054  1.00  0.00     0.102 A 
HETATM   15  N   UNL     1       6.139  32.490  70.217  1.00  0.00    -0.361 N 
HETATM   16  H   UNL     1       5.456  32.179  69.535  1.00  0.00     0.165 HD
HETATM   17  C   UNL     1       6.422  31.880  71.409  1.00  0.00     0.088 A 
HETATM   18  C   UNL     1       7.398  32.616  72.036  1.00  0.00     0.019 A 
HETATM   19  C   UNL     1       7.715  33.707  71.189  1.00  0.00     0.036 A 
ENDBRANCH  11  14
ENDBRANCH   7  10
ENDBRANCH   5   6
BRANCH   1  20
HETATM   20  C   UNL     1       6.584  33.643  62.549  1.00  0.00    -0.004 A 
HETATM   21  C   UNL     1       6.242  33.194  61.258  1.00  0.00     0.016 A 
HETATM   22  C   UNL     1       6.921  32.138  60.634  1.00  0.00     0.037 A 
HETATM   23  C   UNL     1       7.964  31.497  61.294  1.00  0.00     0.068 A 
HETATM   24  C   UNL     1       8.303  31.914  62.579  1.00  0.00     0.037 A 
HETATM   25  C   UNL     1       7.634  32.983  63.194  1.00  0.00     0.016 A 
BRANCH  23  26
HETATM   26  O   UNL     1       8.713  30.464  60.803  1.00  0.00    -0.356 OA
HETATM   27  C   UNL     1       8.658  30.253  59.398  1.00  0.00     0.210 C 
ENDBRANCH  23  26
ENDBRANCH   1  20
BRANCH   3  28
HETATM   28  C   UNL     1       4.664  38.063  62.586  1.00  0.00     0.058 A 
HETATM   29  C   UNL     1       5.471  39.179  62.853  1.00  0.00     0.031 A 
HETATM   30  C   UNL     1       5.126  40.436  62.350  1.00  0.00     0.002 A 
HETATM   31  C   UNL     1       3.976  40.588  61.579  1.00  0.00     0.000 A 
HETATM   32  C   UNL     1       3.170  39.484  61.307  1.00  0.00     0.002 A 
HETATM   33  C   UNL     1       3.509  38.223  61.806  1.00  0.00     0.031 A 
ENDBRANCH   3  28
TORSDOF 6
ENDMDL
MODEL 10
REMARK VINA RESULT:      -8.9      2.433      8.244
REMARK  6 active torsions:
REMARK  status: ('A' for Active; 'I' for Inactive)
REMARK    1  A    between atoms: O_2  and  C_3 
REMARK    2  A    between atoms: C_6  and  C_7 
REMARK    3  A    between atoms: N_9  and  C_10 
REMARK    4  A    between atoms: C_17  and  C_18 
REMARK       I    between atoms: C_18  and  N_19 
REMARK    5  A    between atoms: N_19  and  N_20 
REMARK       I    between atoms: N_20  and  C_21 
REMARK    6  A    between atoms: C_21  and  C_22 
ROOT
HETATM    1  C   UNL     1       5.741  27.555  52.327  1.00  0.00     0.105 A 
HETATM    2  N   UNL     1       4.885  28.254  51.556  1.00  0.00    -0.166 NA
HETATM    3  N   UNL     1       4.603  27.485  50.487  1.00  0.00    -0.244 N 
HETATM    4  C   UNL     1       5.267  26.290  50.552  1.00  0.00     0.138 A 
HETATM    5  C   UNL     1       6.017  26.290  51.717  1.00  0.00     0.082 A 
ENDROOT
BRANCH   5   6
HETATM    6  C   UNL     1       6.873  25.190  52.119  1.00  0.00     0.274 C 
HETATM    7  N   UNL     1       6.235  24.267  52.925  1.00  0.00    -0.263 N 
HETATM    8  H   UNL     1       5.291  24.399  53.282  1.00  0.00     0.190 HD
HETATM    9  O   UNL     1       8.046  25.068  51.782  1.00  0.00    -0.266 OA
BRANCH   7  10
HETATM   10  N   UNL     1       6.952  23.185  53.444  1.00  0.00    -0.262 N 
HETATM   11  C   UNL     1       7.189  23.150  54.802  1.00  0.00     0.286 C 
HETATM   12  O   UNL     1       6.806  24.055  55.545  1.00  0.00    -0.264 OA
HETATM   13  H   UNL     1       7.206  22.439  52.803  1.00  0.00     0.190 HD
BRANCH  11  14
HETATM   14  C   UNL     1       7.902  21.992  55.289  1.00  0.00     0.102 A 
HETATM   15  N   UNL     1       8.169  20.918  54.465  1.00  0.00    -0.361 N 
HETATM   16  H   UNL     1       7.890  20.874  53.492  1.00  0.00     0.165 HD
HETATM   17  C   UNL     1       8.854  19.951  55.150  1.00  0.00     0.088 A 
HETATM   18  C   UNL     1       9.031  20.394  56.439  1.00  0.00     0.019 A 
HETATM   19  C   UNL     1       8.433  21.676  56.531  1.00  0.00     0.036 A 
ENDBRANCH  11  14
ENDBRANCH   7  10
ENDBRANCH   5   6
BRANCH   1  20
HETATM   20  C   UNL     1       6.175  28.149  53.611  1.00  0.00    -0.004 A 
HETATM   21  C   UNL     1       7.523  28.041  54.004  1.00  0.00     0.016 A 
HETATM   22  C   UNL     1       8.003  28.627  55.184  1.00  0.00     0.037 A 
HETATM   23  C   UNL     1       7.137  29.337  56.009  1.00  0.00     0.068 A 
HETATM   24  C   UNL     1       5.796  29.437  55.646  1.00  0.00     0.037 A 
HETATM   25  C   UNL     1       5.322  28.866  54.456  1.00  0.00     0.016 A 
BRANCH  23  26
HETATM   26  O   UNL     1       7.471  29.962  57.178  1.00  0.00    -0.356 OA
HETATM   27  C   UNL     1       8.002  29.139  58.208  1.00  0.00     0.210 C 
ENDBRANCH  23  26
ENDBRANCH   1  20
BRANCH   3  28
HETATM   28  C   UNL     1       3.705  27.935  49.478  1.00  0.00     0.058 A 
HETATM   29  C   UNL     1       3.616  27.226  48.270  1.00  0.00     0.031 A 
HETATM   30  C   UNL     1       2.749  27.656  47.262  1.00  0.00     0.002 A 
HETATM   31  C   UNL     1       1.967  28.793  47.453  1.00  0.00     0.000 A 
HETATM   32  C   UNL     1       2.047  29.501  48.650  1.00  0.00     0.002 A 
HETATM   33  C   UNL     1       2.912  29.077  49.664  1.00  0.00     0.031 A 
ENDBRANCH   3  28
TORSDOF 6
ENDMDL
