MODEL 1
REMARK VINA RESULT:     -10.1      0.000      0.000
REMARK  8 active torsions:
REMARK  status: ('A' for Active; 'I' for Inactive)
REMARK    1  A    between atoms: C_4  and  S_5 
REMARK    2  A    between atoms: S_5  and  C_6 
REMARK    3  A    between atoms: C_6  and  C_7 
REMARK       I    between atoms: C_7  and  N_8 
REMARK    4  A    between atoms: N_8  and  C_9 
REMARK    5  A    between atoms: C_20  and  C_21 
REMARK    6  A    between atoms: C_27  and  C_28 
REMARK       I    between atoms: C_28  and  N_29 
REMARK    7  A    between atoms: N_29  and  C_30 
REMARK    8  A    between atoms: C_31  and  O_32 
ROOT
HETATM    1  C   UNL     1       5.072  25.174  52.117  1.00  0.00     0.069 C 
HETATM    2  C   UNL     1       4.981  26.321  53.099  1.00  0.00     0.019 A 
HETATM    3  N   UNL     1       4.306  27.434  52.636  1.00  0.00    -0.353 N 
HETATM    4  C   UNL     1       4.111  28.610  53.327  1.00  0.00     0.087 A 
HETATM    5  C   UNL     1       4.562  28.705  54.597  1.00  0.00     0.055 A 
HETATM    6  C   UNL     1       4.530  30.002  55.389  1.00  0.00     0.019 C 
HETATM    7  N   UNL     1       4.504  31.077  56.045  1.00  0.00    -0.096 N 
HETATM    8  C   UNL     1       5.352  27.544  55.251  1.00  0.00     0.104 A 
HETATM    9  C   UNL     1       5.518  26.316  54.347  1.00  0.00     0.046 A 
HETATM   10  H   UNL     1       3.814  27.357  51.751  1.00  0.00     0.166 HD
ENDROOT
BRANCH   4  11
HETATM   11  S   UNL     1       3.275  29.916  52.524  1.00  0.00    -0.102 SA
BRANCH  11  12
HETATM   12  C   UNL     1       4.397  30.429  51.190  1.00  0.00     0.184 C 
BRANCH  12  13
HETATM   13  C   UNL     1       4.415  29.535  49.963  1.00  0.00     0.231 C 
HETATM   14  N   UNL     1       3.363  28.638  49.908  1.00  0.00    -0.325 N 
HETATM   15  H   UNL     1       2.797  28.534  50.743  1.00  0.00     0.169 HD
HETATM   16  O   UNL     1       5.304  29.647  49.125  1.00  0.00    -0.272 OA
BRANCH  14  17
HETATM   17  C   UNL     1       3.097  27.694  48.883  1.00  0.00     0.056 A 
HETATM   18  C   UNL     1       2.054  27.959  47.978  1.00  0.00     0.060 A 
HETATM   19 CL   UNL     1       1.139  29.426  48.080  1.00  0.00    -0.082 Cl
HETATM   20  C   UNL     1       1.719  27.043  46.975  1.00  0.00     0.026 A 
HETATM   21  C   UNL     1       2.438  25.855  46.852  1.00  0.00     0.002 A 
HETATM   22  C   UNL     1       3.493  25.594  47.722  1.00  0.00     0.002 A 
HETATM   23  C   UNL     1       3.824  26.510  48.726  1.00  0.00     0.031 A 
ENDBRANCH  14  17
ENDBRANCH  12  13
ENDBRANCH  11  12
ENDBRANCH   4  11
BRANCH   8  24
HETATM   24  C   UNL     1       6.668  28.095  55.808  1.00  0.00    -0.044 A 
HETATM   25  C   UNL     1       7.673  28.535  54.929  1.00  0.00     0.008 A 
HETATM   26  C   UNL     1       8.903  28.977  55.419  1.00  0.00     0.001 A 
HETATM   27  C   UNL     1       9.140  28.996  56.792  1.00  0.00     0.000 A 
HETATM   28  C   UNL     1       8.152  28.568  57.674  1.00  0.00     0.001 A 
HETATM   29  C   UNL     1       6.928  28.113  57.187  1.00  0.00     0.008 A 
ENDBRANCH   8  24
BRANCH   9  30
HETATM   30  C   UNL     1       6.134  25.031  54.836  1.00  0.00     0.255 C 
HETATM   31  N   UNL     1       7.247  24.585  54.169  1.00  0.00    -0.321 N 
HETATM   32  H   UNL     1       7.784  25.207  53.580  1.00  0.00     0.169 HD
HETATM   33  O   UNL     1       5.633  24.444  55.795  1.00  0.00    -0.268 OA
BRANCH  31  34
HETATM   34  C   UNL     1       7.764  23.267  54.150  1.00  0.00     0.068 A 
HETATM   35  C   UNL     1       8.751  22.945  55.107  1.00  0.00     0.095 A 
HETATM   36  C   UNL     1       9.371  21.692  55.071  1.00  0.00     0.039 A 
HETATM   37  C   UNL     1       9.018  20.763  54.092  1.00  0.00     0.003 A 
HETATM   38  C   UNL     1       8.038  21.077  53.152  1.00  0.00     0.002 A 
HETATM   39  C   UNL     1       7.408  22.323  53.183  1.00  0.00     0.032 A 
BRANCH  35  40
HETATM   40  O   UNL     1       9.028  23.928  56.026  1.00  0.00    -0.354 OA
HETATM   41  C   UNL     1       8.616  23.697  57.367  1.00  0.00     0.210 C 
ENDBRANCH  35  40
ENDBRANCH  31  34
ENDBRANCH   9  30
TORSDOF 8
ENDMDL
MODEL 2
REMARK VINA RESULT:     -10.1      4.937      8.999
REMARK  8 active torsions:
REMARK  status: ('A' for Active; 'I' for Inactive)
REMARK    1  A    between atoms: C_4  and  S_5 
REMARK    2  A    between atoms: S_5  and  C_6 
REMARK    3  A    between atoms: C_6  and  C_7 
REMARK       I    between atoms: C_7  and  N_8 
REMARK    4  A    between atoms: N_8  and  C_9 
REMARK    5  A    between atoms: C_20  and  C_21 
REMARK    6  A    between atoms: C_27  and  C_28 
REMARK       I    between atoms: C_28  and  N_29 
REMARK    7  A    between atoms: N_29  and  C_30 
REMARK    8  A    between atoms: C_31  and  O_32 
ROOT
HETATM    1  C   UNL     1       8.913  30.061  58.248  1.00  0.00     0.069 C 
HETATM    2  C   UNL     1       7.485  30.400  57.884  1.00  0.00     0.019 A 
HETATM    3  N   UNL     1       6.995  29.744  56.771  1.00  0.00    -0.353 N 
HETATM    4  C   UNL     1       5.740  29.901  56.225  1.00  0.00     0.087 A 
HETATM    5  C   UNL     1       4.859  30.722  56.836  1.00  0.00     0.055 A 
HETATM    6  C   UNL     1       3.508  31.075  56.236  1.00  0.00     0.019 C 
HETATM    7  N   UNL     1       2.388  31.369  55.738  1.00  0.00    -0.096 N 
HETATM    8  C   UNL     1       5.266  31.538  58.089  1.00  0.00     0.104 A 
HETATM    9  C   UNL     1       6.705  31.284  58.557  1.00  0.00     0.046 A 
HETATM   10  H   UNL     1       7.561  29.002  56.369  1.00  0.00     0.166 HD
ENDROOT
BRANCH   4  11
HETATM   11  S   UNL     1       5.349  29.012  54.773  1.00  0.00    -0.102 SA
BRANCH  11  12
HETATM   12  C   UNL     1       5.067  27.309  55.339  1.00  0.00     0.184 C 
BRANCH  12  13
HETATM   13  C   UNL     1       6.255  26.372  55.228  1.00  0.00     0.231 C 
HETATM   14  N   UNL     1       5.940  25.123  54.724  1.00  0.00    -0.325 N 
HETATM   15  H   UNL     1       4.957  24.889  54.643  1.00  0.00     0.169 HD
HETATM   16  O   UNL     1       7.375  26.744  55.566  1.00  0.00    -0.272 OA
BRANCH  14  17
HETATM   17  C   UNL     1       6.832  24.046  54.485  1.00  0.00     0.056 A 
HETATM   18  C   UNL     1       7.381  23.898  53.198  1.00  0.00     0.060 A 
HETATM   19 CL   UNL     1       7.013  25.030  51.940  1.00  0.00    -0.082 Cl
HETATM   20  C   UNL     1       8.232  22.831  52.895  1.00  0.00     0.026 A 
HETATM   21  C   UNL     1       8.561  21.903  53.882  1.00  0.00     0.002 A 
HETATM   22  C   UNL     1       8.050  22.054  55.169  1.00  0.00     0.002 A 
HETATM   23  C   UNL     1       7.197  23.122  55.468  1.00  0.00     0.031 A 
ENDBRANCH  14  17
ENDBRANCH  12  13
ENDBRANCH  11  12
ENDBRANCH   4  11
BRANCH   8  24
HETATM   24  C   UNL     1       4.936  33.014  57.845  1.00  0.00    -0.044 A 
HETATM   25  C   UNL     1       4.338  33.777  58.863  1.00  0.00     0.008 A 
HETATM   26  C   UNL     1       3.971  35.104  58.633  1.00  0.00     0.001 A 
HETATM   27  C   UNL     1       4.208  35.688  57.390  1.00  0.00     0.000 A 
HETATM   28  C   UNL     1       4.805  34.945  56.375  1.00  0.00     0.001 A 
HETATM   29  C   UNL     1       5.160  33.616  56.597  1.00  0.00     0.008 A 
ENDBRANCH   8  24
BRANCH   9  30
HETATM   30  C   UNL     1       7.254  31.871  59.831  1.00  0.00     0.255 C 
HETATM   31  N   UNL     1       6.742  31.384  61.007  1.00  0.00    -0.321 N 
HETATM   32  H   UNL     1       6.245  30.504  61.033  1.00  0.00     0.169 HD
HETATM   33  O   UNL     1       8.123  32.740  59.773  1.00  0.00    -0.268 OA
BRANCH  31  34
HETATM   34  C   UNL     1       6.774  32.007  62.279  1.00  0.00     0.068 A 
HETATM   35  C   UNL     1       5.541  32.422  62.827  1.00  0.00     0.095 A 
HETATM   36  C   UNL     1       5.520  33.132  64.031  1.00  0.00     0.039 A 
HETATM   37  C   UNL     1       6.714  33.432  64.689  1.00  0.00     0.003 A 
HETATM   38  C   UNL     1       7.930  33.015  64.152  1.00  0.00     0.002 A 
HETATM   39  C   UNL     1       7.962  32.300  62.954  1.00  0.00     0.032 A 
BRANCH  35  40
HETATM   40  O   UNL     1       4.426  32.079  62.102  1.00  0.00    -0.354 OA
HETATM   41  C   UNL     1       3.309  32.956  62.174  1.00  0.00     0.210 C 
ENDBRANCH  35  40
ENDBRANCH  31  34
ENDBRANCH   9  30
TORSDOF 8
ENDMDL
MODEL 3
REMARK VINA RESULT:     -10.0      4.844      8.704
REMARK  8 active torsions:
REMARK  status: ('A' for Active; 'I' for Inactive)
REMARK    1  A    between atoms: C_4  and  S_5 
REMARK    2  A    between atoms: S_5  and  C_6 
REMARK    3  A    between atoms: C_6  and  C_7 
REMARK       I    between atoms: C_7  and  N_8 
REMARK    4  A    between atoms: N_8  and  C_9 
REMARK    5  A    between atoms: C_20  and  C_21 
REMARK    6  A    between atoms: C_27  and  C_28 
REMARK       I    between atoms: C_28  and  N_29 
REMARK    7  A    between atoms: N_29  and  C_30 
REMARK    8  A    between atoms: C_31  and  O_32 
ROOT
HETATM    1  C   UNL     1       8.264  29.536  57.907  1.00  0.00     0.069 C 
HETATM    2  C   UNL     1       6.901  30.090  57.557  1.00  0.00     0.019 A 
HETATM    3  N   UNL     1       6.235  29.415  56.553  1.00  0.00    -0.353 N 
HETATM    4  C   UNL     1       4.998  29.739  56.040  1.00  0.00     0.087 A 
HETATM    5  C   UNL     1       4.318  30.774  56.578  1.00  0.00     0.055 A 
HETATM    6  C   UNL     1       3.020  31.302  55.990  1.00  0.00     0.019 C 
HETATM    7  N   UNL     1       1.943  31.741  55.503  1.00  0.00    -0.096 N 
HETATM    8  C   UNL     1       4.940  31.638  57.704  1.00  0.00     0.104 A 
HETATM    9  C   UNL     1       6.335  31.176  58.145  1.00  0.00     0.046 A 
HETATM   10  H   UNL     1       6.633  28.539  56.225  1.00  0.00     0.166 HD
ENDROOT
BRANCH   4  11
HETATM   11  S   UNL     1       4.367  28.778  54.725  1.00  0.00    -0.102 SA
BRANCH  11  12
HETATM   12  C   UNL     1       5.836  28.049  53.943  1.00  0.00     0.184 C 
BRANCH  12  13
HETATM   13  C   UNL     1       5.814  26.540  53.777  1.00  0.00     0.231 C 
HETATM   14  N   UNL     1       6.994  25.918  54.143  1.00  0.00    -0.325 N 
HETATM   15  H   UNL     1       7.799  26.512  54.312  1.00  0.00     0.169 HD
HETATM   16  O   UNL     1       4.809  25.975  53.356  1.00  0.00    -0.272 OA
BRANCH  14  17
HETATM   17  C   UNL     1       7.271  24.527  54.121  1.00  0.00     0.056 A 
HETATM   18  C   UNL     1       7.246  23.816  55.334  1.00  0.00     0.060 A 
HETATM   19 CL   UNL     1       6.844  24.608  56.821  1.00  0.00    -0.082 Cl
HETATM   20  C   UNL     1       7.553  22.452  55.377  1.00  0.00     0.026 A 
HETATM   21  C   UNL     1       7.873  21.775  54.201  1.00  0.00     0.002 A 
HETATM   22  C   UNL     1       7.871  22.459  52.989  1.00  0.00     0.002 A 
HETATM   23  C   UNL     1       7.567  23.824  52.949  1.00  0.00     0.031 A 
ENDBRANCH  14  17
ENDBRANCH  12  13
ENDBRANCH  11  12
ENDBRANCH   4  11
BRANCH   8  24
HETATM   24  C   UNL     1       4.868  33.112  57.292  1.00  0.00    -0.044 A 
HETATM   25  C   UNL     1       4.443  34.080  58.219  1.00  0.00     0.008 A 
HETATM   26  C   UNL     1       4.309  35.416  57.839  1.00  0.00     0.001 A 
HETATM   27  C   UNL     1       4.608  35.804  56.535  1.00  0.00     0.000 A 
HETATM   28  C   UNL     1       5.035  34.857  55.609  1.00  0.00     0.001 A 
HETATM   29  C   UNL     1       5.158  33.519  55.981  1.00  0.00     0.008 A 
ENDBRANCH   8  24
BRANCH   9  30
HETATM   30  C   UNL     1       7.056  31.793  59.315  1.00  0.00     0.255 C 
HETATM   31  N   UNL     1       6.478  31.638  60.549  1.00  0.00    -0.321 N 
HETATM   32  H   UNL     1       5.775  30.929  60.709  1.00  0.00     0.169 HD
HETATM   33  O   UNL     1       8.115  32.392  59.128  1.00  0.00    -0.268 OA
BRANCH  31  34
HETATM   34  C   UNL     1       6.708  32.420  61.708  1.00  0.00     0.068 A 
HETATM   35  C   UNL     1       7.546  31.872  62.703  1.00  0.00     0.095 A 
HETATM   36  C   UNL     1       7.728  32.553  63.910  1.00  0.00     0.039 A 
HETATM   37  C   UNL     1       7.081  33.769  64.134  1.00  0.00     0.003 A 
HETATM   38  C   UNL     1       6.260  34.314  63.149  1.00  0.00     0.002 A 
HETATM   39  C   UNL     1       6.077  33.646  61.937  1.00  0.00     0.032 A 
BRANCH  35  40
HETATM   40  O   UNL     1       8.134  30.672  62.385  1.00  0.00    -0.354 OA
HETATM   41  C   UNL     1       9.488  30.706  61.953  1.00  0.00     0.210 C 
ENDBRANCH  35  40
ENDBRANCH  31  34
ENDBRANCH   9  30
TORSDOF 8
ENDMDL
MODEL 4
REMARK VINA RESULT:      -9.6      5.027      9.530
REMARK  8 active torsions:
REMARK  status: ('A' for Active; 'I' for Inactive)
REMARK    1  A    between atoms: C_4  and  S_5 
REMARK    2  A    between atoms: S_5  and  C_6 
REMARK    3  A    between atoms: C_6  and  C_7 
REMARK       I    between atoms: C_7  and  N_8 
REMARK    4  A    between atoms: N_8  and  C_9 
REMARK    5  A    between atoms: C_20  and  C_21 
REMARK    6  A    between atoms: C_27  and  C_28 
REMARK       I    between atoms: C_28  and  N_29 
REMARK    7  A    between atoms: N_29  and  C_30 
REMARK    8  A    between atoms: C_31  and  O_32 
ROOT
HETATM    1  C   UNL     1       8.630  31.476  59.467  1.00  0.00     0.069 C 
HETATM    2  C   UNL     1       7.563  30.752  58.678  1.00  0.00     0.019 A 
HETATM    3  N   UNL     1       7.997  29.631  57.998  1.00  0.00    -0.353 N 
HETATM    4  C   UNL     1       7.227  28.822  57.192  1.00  0.00     0.087 A 
HETATM    5  C   UNL     1       5.907  29.084  57.073  1.00  0.00     0.055 A 
HETATM    6  C   UNL     1       5.005  28.346  56.098  1.00  0.00     0.019 C 
HETATM    7  N   UNL     1       4.256  27.734  55.289  1.00  0.00    -0.096 N 
HETATM    8  C   UNL     1       5.273  30.317  57.765  1.00  0.00     0.104 A 
HETATM    9  C   UNL     1       6.263  31.141  58.598  1.00  0.00     0.046 A 
HETATM   10  H   UNL     1       8.941  29.302  58.180  1.00  0.00     0.166 HD
ENDROOT
BRANCH   4  11
HETATM   11  S   UNL     1       8.000  27.484  56.377  1.00  0.00    -0.102 SA
BRANCH  11  12
HETATM   12  C   UNL     1       7.589  26.032  57.388  1.00  0.00     0.184 C 
BRANCH  12  13
HETATM   13  C   UNL     1       8.106  24.701  56.872  1.00  0.00     0.231 C 
HETATM   14  N   UNL     1       7.368  24.182  55.823  1.00  0.00    -0.325 N 
HETATM   15  H   UNL     1       6.479  24.624  55.617  1.00  0.00     0.169 HD
HETATM   16  O   UNL     1       9.098  24.181  57.374  1.00  0.00    -0.272 OA
BRANCH  14  17
HETATM   17  C   UNL     1       7.612  22.975  55.120  1.00  0.00     0.056 A 
HETATM   18  C   UNL     1       7.816  23.035  53.729  1.00  0.00     0.060 A 
HETATM   19 CL   UNL     1       7.813  24.552  52.895  1.00  0.00    -0.082 Cl
HETATM   20  C   UNL     1       8.019  21.872  52.979  1.00  0.00     0.026 A 
HETATM   21  C   UNL     1       8.038  20.630  53.614  1.00  0.00     0.002 A 
HETATM   22  C   UNL     1       7.869  20.559  54.994  1.00  0.00     0.002 A 
HETATM   23  C   UNL     1       7.664  21.724  55.742  1.00  0.00     0.031 A 
ENDBRANCH  14  17
ENDBRANCH  12  13
ENDBRANCH  11  12
ENDBRANCH   4  11
BRANCH   8  24
HETATM   24  C   UNL     1       4.504  31.130  56.719  1.00  0.00    -0.044 A 
HETATM   25  C   UNL     1       3.105  31.023  56.637  1.00  0.00     0.008 A 
HETATM   26  C   UNL     1       2.398  31.706  55.646  1.00  0.00     0.001 A 
HETATM   27  C   UNL     1       3.076  32.511  54.734  1.00  0.00     0.000 A 
HETATM   28  C   UNL     1       4.461  32.629  54.807  1.00  0.00     0.001 A 
HETATM   29  C   UNL     1       5.172  31.938  55.787  1.00  0.00     0.008 A 
ENDBRANCH   8  24
BRANCH   9  30
HETATM   30  C   UNL     1       5.827  32.298  59.459  1.00  0.00     0.255 C 
HETATM   31  N   UNL     1       5.578  32.025  60.780  1.00  0.00    -0.321 N 
HETATM   32  H   UNL     1       5.931  31.182  61.213  1.00  0.00     0.169 HD
HETATM   33  O   UNL     1       5.716  33.417  58.961  1.00  0.00    -0.268 OA
BRANCH  31  34
HETATM   34  C   UNL     1       4.801  32.792  61.683  1.00  0.00     0.068 A 
HETATM   35  C   UNL     1       5.398  33.145  62.913  1.00  0.00     0.095 A 
HETATM   36  C   UNL     1       4.645  33.814  63.883  1.00  0.00     0.039 A 
HETATM   37  C   UNL     1       3.308  34.128  63.639  1.00  0.00     0.003 A 
HETATM   38  C   UNL     1       2.721  33.788  62.422  1.00  0.00     0.002 A 
HETATM   39  C   UNL     1       3.465  33.126  61.444  1.00  0.00     0.032 A 
BRANCH  35  40
HETATM   40  O   UNL     1       6.717  32.788  63.054  1.00  0.00    -0.354 OA
HETATM   41  C   UNL     1       7.370  33.180  64.255  1.00  0.00     0.210 C 
ENDBRANCH  35  40
ENDBRANCH  31  34
ENDBRANCH   9  30
TORSDOF 8
ENDMDL
MODEL 5
REMARK VINA RESULT:      -9.5      2.655      7.617
REMARK  8 active torsions:
REMARK  status: ('A' for Active; 'I' for Inactive)
REMARK    1  A    between atoms: C_4  and  S_5 
REMARK    2  A    between atoms: S_5  and  C_6 
REMARK    3  A    between atoms: C_6  and  C_7 
REMARK       I    between atoms: C_7  and  N_8 
REMARK    4  A    between atoms: N_8  and  C_9 
REMARK    5  A    between atoms: C_20  and  C_21 
REMARK    6  A    between atoms: C_27  and  C_28 
REMARK       I    between atoms: C_28  and  N_29 
REMARK    7  A    between atoms: N_29  and  C_30 
REMARK    8  A    between atoms: C_31  and  O_32 
ROOT
HETATM    1  C   UNL     1       4.804  25.454  53.472  1.00  0.00     0.069 C 
HETATM    2  C   UNL     1       5.323  26.640  54.253  1.00  0.00     0.019 A 
HETATM    3  N   UNL     1       6.002  26.324  55.414  1.00  0.00    -0.353 N 
HETATM    4  C   UNL     1       6.546  27.221  56.307  1.00  0.00     0.087 A 
HETATM    5  C   UNL     1       6.475  28.542  56.030  1.00  0.00     0.055 A 
HETATM    6  C   UNL     1       6.909  29.614  57.016  1.00  0.00     0.019 C 
HETATM    7  N   UNL     1       7.268  30.504  57.833  1.00  0.00    -0.096 N 
HETATM    8  C   UNL     1       5.732  29.055  54.771  1.00  0.00     0.104 A 
HETATM    9  C   UNL     1       5.150  27.939  53.894  1.00  0.00     0.046 A 
HETATM   10  H   UNL     1       6.219  25.346  55.585  1.00  0.00     0.166 HD
ENDROOT
BRANCH   4  11
HETATM   11  S   UNL     1       7.314  26.599  57.747  1.00  0.00    -0.102 SA
BRANCH  11  12
HETATM   12  C   UNL     1       8.584  25.456  57.132  1.00  0.00     0.184 C 
BRANCH  12  13
HETATM   13  C   UNL     1       8.069  24.213  56.430  1.00  0.00     0.231 C 
HETATM   14  N   UNL     1       9.005  23.599  55.617  1.00  0.00    -0.325 N 
HETATM   15  H   UNL     1       9.861  24.108  55.427  1.00  0.00     0.169 HD
HETATM   16  O   UNL     1       6.917  23.830  56.608  1.00  0.00    -0.272 OA
BRANCH  14  17
HETATM   17  C   UNL     1       8.831  22.416  54.853  1.00  0.00     0.056 A 
HETATM   18  C   UNL     1       8.378  22.532  53.526  1.00  0.00     0.060 A 
HETATM   19 CL   UNL     1       8.078  24.085  52.822  1.00  0.00    -0.082 Cl
HETATM   20  C   UNL     1       8.148  21.398  52.741  1.00  0.00     0.026 A 
HETATM   21  C   UNL     1       8.387  20.129  53.267  1.00  0.00     0.002 A 
HETATM   22  C   UNL     1       8.865  20.001  54.568  1.00  0.00     0.002 A 
HETATM   23  C   UNL     1       9.091  21.137  55.353  1.00  0.00     0.031 A 
ENDBRANCH  14  17
ENDBRANCH  12  13
ENDBRANCH  11  12
ENDBRANCH   4  11
BRANCH   8  24
HETATM   24  C   UNL     1       4.710  30.114  55.198  1.00  0.00    -0.044 A 
HETATM   25  C   UNL     1       3.757  29.811  56.185  1.00  0.00     0.008 A 
HETATM   26  C   UNL     1       2.778  30.742  56.536  1.00  0.00     0.001 A 
HETATM   27  C   UNL     1       2.747  31.989  55.916  1.00  0.00     0.000 A 
HETATM   28  C   UNL     1       3.689  32.304  54.941  1.00  0.00     0.001 A 
HETATM   29  C   UNL     1       4.659  31.371  54.578  1.00  0.00     0.008 A 
ENDBRANCH   8  24
BRANCH   9  30
HETATM   30  C   UNL     1       4.510  28.214  52.558  1.00  0.00     0.255 C 
HETATM   31  N   UNL     1       5.340  28.224  51.465  1.00  0.00    -0.321 N 
HETATM   32  H   UNL     1       6.258  27.802  51.505  1.00  0.00     0.169 HD
HETATM   33  O   UNL     1       3.297  28.408  52.495  1.00  0.00    -0.268 OA
BRANCH  31  34
HETATM   34  C   UNL     1       5.094  28.828  50.208  1.00  0.00     0.068 A 
HETATM   35  C   UNL     1       4.765  27.973  49.133  1.00  0.00     0.095 A 
HETATM   36  C   UNL     1       4.611  28.502  47.848  1.00  0.00     0.039 A 
HETATM   37  C   UNL     1       4.785  29.868  47.626  1.00  0.00     0.003 A 
HETATM   38  C   UNL     1       5.101  30.713  48.688  1.00  0.00     0.002 A 
HETATM   39  C   UNL     1       5.250  30.197  49.976  1.00  0.00     0.032 A 
BRANCH  35  40
HETATM   40  O   UNL     1       4.618  26.646  49.456  1.00  0.00    -0.354 OA
HETATM   41  C   UNL     1       3.718  25.881  48.665  1.00  0.00     0.210 C 
ENDBRANCH  35  40
ENDBRANCH  31  34
ENDBRANCH   9  30
TORSDOF 8
ENDMDL
MODEL 6
REMARK VINA RESULT:      -9.4      6.435     10.321
REMARK  8 active torsions:
REMARK  status: ('A' for Active; 'I' for Inactive)
REMARK    1  A    between atoms: C_4  and  S_5 
REMARK    2  A    between atoms: S_5  and  C_6 
REMARK    3  A    between atoms: C_6  and  C_7 
REMARK       I    between atoms: C_7  and  N_8 
REMARK    4  A    between atoms: N_8  and  C_9 
REMARK    5  A    between atoms: C_20  and  C_21 
REMARK    6  A    between atoms: C_27  and  C_28 
REMARK       I    between atoms: C_28  and  N_29 
REMARK    7  A    between atoms: N_29  and  C_30 
REMARK    8  A    between atoms: C_31  and  O_32 
ROOT
HETATM    1  C   UNL     1       8.896  32.325  60.610  1.00  0.00     0.069 C 
HETATM    2  C   UNL     1       7.539  32.066  59.993  1.00  0.00     0.019 A 
HETATM    3  N   UNL     1       7.548  31.230  58.893  1.00  0.00    -0.353 N 
HETATM    4  C   UNL     1       6.451  30.864  58.145  1.00  0.00     0.087 A 
HETATM    5  C   UNL     1       5.228  31.299  58.521  1.00  0.00     0.055 A 
HETATM    6  C   UNL     1       3.980  31.074  57.682  1.00  0.00     0.019 C 
HETATM    7  N   UNL     1       2.945  30.889  56.988  1.00  0.00    -0.096 N 
HETATM    8  C   UNL     1       5.058  32.255  59.727  1.00  0.00     0.104 A 
HETATM    9  C   UNL     1       6.373  32.601  60.438  1.00  0.00     0.046 A 
HETATM   10  H   UNL     1       8.415  30.753  58.666  1.00  0.00     0.166 HD
ENDROOT
BRANCH   4  11
HETATM   11  S   UNL     1       6.700  29.839  56.752  1.00  0.00    -0.102 SA
BRANCH  11  12
HETATM   12  C   UNL     1       6.787  28.156  57.430  1.00  0.00     0.184 C 
BRANCH  12  13
HETATM   13  C   UNL     1       7.514  27.137  56.573  1.00  0.00     0.231 C 
HETATM   14  N   UNL     1       6.768  26.663  55.509  1.00  0.00    -0.325 N 
HETATM   15  H   UNL     1       5.780  26.891  55.498  1.00  0.00     0.169 HD
HETATM   16  O   UNL     1       8.664  26.803  56.844  1.00  0.00    -0.272 OA
BRANCH  14  17
HETATM   17  C   UNL     1       7.177  25.726  54.526  1.00  0.00     0.056 A 
HETATM   18  C   UNL     1       7.213  24.362  54.868  1.00  0.00     0.060 A 
HETATM   19 CL   UNL     1       6.726  23.828  56.442  1.00  0.00    -0.082 Cl
HETATM   20  C   UNL     1       7.649  23.400  53.952  1.00  0.00     0.026 A 
HETATM   21  C   UNL     1       8.039  23.787  52.671  1.00  0.00     0.002 A 
HETATM   22  C   UNL     1       7.980  25.130  52.309  1.00  0.00     0.002 A 
HETATM   23  C   UNL     1       7.546  26.091  53.228  1.00  0.00     0.031 A 
ENDBRANCH  14  17
ENDBRANCH  12  13
ENDBRANCH  11  12
ENDBRANCH   4  11
BRANCH   8  24
HETATM   24  C   UNL     1       4.247  33.476  59.279  1.00  0.00    -0.044 A 
HETATM   25  C   UNL     1       4.762  34.335  58.293  1.00  0.00     0.008 A 
HETATM   26  C   UNL     1       4.066  35.487  57.923  1.00  0.00     0.001 A 
HETATM   27  C   UNL     1       2.845  35.788  58.523  1.00  0.00     0.000 A 
HETATM   28  C   UNL     1       2.322  34.943  59.497  1.00  0.00     0.001 A 
HETATM   29  C   UNL     1       3.021  33.798  59.879  1.00  0.00     0.008 A 
ENDBRANCH   8  24
BRANCH   9  30
HETATM   30  C   UNL     1       6.414  33.403  61.713  1.00  0.00     0.255 C 
HETATM   31  N   UNL     1       6.481  32.696  62.886  1.00  0.00    -0.321 N 
HETATM   32  H   UNL     1       6.766  31.726  62.894  1.00  0.00     0.169 HD
HETATM   33  O   UNL     1       6.393  34.632  61.657  1.00  0.00    -0.268 OA
BRANCH  31  34
HETATM   34  C   UNL     1       6.136  33.152  64.183  1.00  0.00     0.068 A 
HETATM   35  C   UNL     1       4.771  33.398  64.441  1.00  0.00     0.095 A 
HETATM   36  C   UNL     1       4.383  33.944  65.668  1.00  0.00     0.039 A 
HETATM   37  C   UNL     1       5.343  34.249  66.634  1.00  0.00     0.003 A 
HETATM   38  C   UNL     1       6.690  33.998  66.383  1.00  0.00     0.002 A 
HETATM   39  C   UNL     1       7.087  33.447  65.164  1.00  0.00     0.032 A 
BRANCH  35  40
HETATM   40  O   UNL     1       3.907  33.065  63.425  1.00  0.00    -0.354 OA
HETATM   41  C   UNL     1       2.700  33.810  63.330  1.00  0.00     0.210 C 
ENDBRANCH  35  40
ENDBRANCH  31  34
ENDBRANCH   9  30
TORSDOF 8
ENDMDL
MODEL 7
REMARK VINA RESULT:      -9.4      4.478      9.640
REMARK  8 active torsions:
REMARK  status: ('A' for Active; 'I' for Inactive)
REMARK    1  A    between atoms: C_4  and  S_5 
REMARK    2  A    between atoms: S_5  and  C_6 
REMARK    3  A    between atoms: C_6  and  C_7 
REMARK       I    between atoms: C_7  and  N_8 
REMARK    4  A    between atoms: N_8  and  C_9 
REMARK    5  A    between atoms: C_20  and  C_21 
REMARK    6  A    between atoms: C_27  and  C_28 
REMARK       I    between atoms: C_28  and  N_29 
REMARK    7  A    between atoms: N_29  and  C_30 
REMARK    8  A    between atoms: C_31  and  O_32 
ROOT
HETATM    1  C   UNL     1       4.662  31.052  53.421  1.00  0.00     0.069 C 
HETATM    2  C   UNL     1       4.982  29.774  54.163  1.00  0.00     0.019 A 
HETATM    3  N   UNL     1       5.579  29.948  55.397  1.00  0.00    -0.353 N 
HETATM    4  C   UNL     1       5.988  28.946  56.249  1.00  0.00     0.087 A 
HETATM    5  C   UNL     1       5.753  27.661  55.906  1.00  0.00     0.055 A 
HETATM    6  C   UNL     1       6.294  26.484  56.701  1.00  0.00     0.019 C 
HETATM    7  N   UNL     1       6.743  25.507  57.360  1.00  0.00    -0.096 N 
HETATM    8  C   UNL     1       5.103  27.304  54.546  1.00  0.00     0.104 A 
HETATM    9  C   UNL     1       4.736  28.524  53.692  1.00  0.00     0.046 A 
HETATM   10  H   UNL     1       5.634  30.892  55.769  1.00  0.00     0.166 HD
ENDROOT
BRANCH   4  11
HETATM   11  S   UNL     1       6.778  29.395  57.741  1.00  0.00    -0.102 SA
BRANCH  11  12
HETATM   12  C   UNL     1       6.173  31.071  58.094  1.00  0.00     0.184 C 
BRANCH  12  13
HETATM   13  C   UNL     1       6.871  31.798  59.229  1.00  0.00     0.231 C 
HETATM   14  N   UNL     1       6.155  31.808  60.413  1.00  0.00    -0.325 N 
HETATM   15  H   UNL     1       5.190  31.500  60.375  1.00  0.00     0.169 HD
HETATM   16  O   UNL     1       7.974  32.308  59.056  1.00  0.00    -0.272 OA
BRANCH  14  17
HETATM   17  C   UNL     1       6.550  32.385  61.647  1.00  0.00     0.056 A 
HETATM   18  C   UNL     1       5.890  33.547  62.089  1.00  0.00     0.060 A 
HETATM   19 CL   UNL     1       4.594  34.236  61.172  1.00  0.00    -0.082 Cl
HETATM   20  C   UNL     1       6.267  34.182  63.276  1.00  0.00     0.026 A 
HETATM   21  C   UNL     1       7.300  33.654  64.050  1.00  0.00     0.002 A 
HETATM   22  C   UNL     1       7.940  32.487  63.640  1.00  0.00     0.002 A 
HETATM   23  C   UNL     1       7.564  31.855  62.450  1.00  0.00     0.031 A 
ENDBRANCH  14  17
ENDBRANCH  12  13
ENDBRANCH  11  12
ENDBRANCH   4  11
BRANCH   8  24
HETATM   24  C   UNL     1       5.990  26.280  53.828  1.00  0.00    -0.044 A 
HETATM   25  C   UNL     1       7.254  26.663  53.346  1.00  0.00     0.008 A 
HETATM   26  C   UNL     1       8.044  25.761  52.632  1.00  0.00     0.001 A 
HETATM   27  C   UNL     1       7.588  24.465  52.402  1.00  0.00     0.000 A 
HETATM   28  C   UNL     1       6.341  24.071  52.879  1.00  0.00     0.001 A 
HETATM   29  C   UNL     1       5.544  24.974  53.580  1.00  0.00     0.008 A 
ENDBRANCH   8  24
BRANCH   9  30
HETATM   30  C   UNL     1       3.973  28.404  52.398  1.00  0.00     0.255 C 
HETATM   31  N   UNL     1       4.712  28.196  51.261  1.00  0.00    -0.321 N 
HETATM   32  H   UNL     1       5.666  27.865  51.314  1.00  0.00     0.169 HD
HETATM   33  O   UNL     1       2.745  28.488  52.408  1.00  0.00    -0.268 OA
BRANCH  31  34
HETATM   34  C   UNL     1       4.315  28.440  49.924  1.00  0.00     0.068 A 
HETATM   35  C   UNL     1       4.934  29.517  49.252  1.00  0.00     0.095 A 
HETATM   36  C   UNL     1       4.510  29.868  47.966  1.00  0.00     0.039 A 
HETATM   37  C   UNL     1       3.477  29.161  47.351  1.00  0.00     0.003 A 
HETATM   38  C   UNL     1       2.872  28.093  48.010  1.00  0.00     0.002 A 
HETATM   39  C   UNL     1       3.292  27.729  49.291  1.00  0.00     0.032 A 
BRANCH  35  40
HETATM   40  O   UNL     1       5.938  30.149  49.945  1.00  0.00    -0.354 OA
HETATM   41  C   UNL     1       5.940  31.570  49.932  1.00  0.00     0.210 C 
ENDBRANCH  35  40
ENDBRANCH  31  34
ENDBRANCH   9  30
TORSDOF 8
ENDMDL
MODEL 8
REMARK VINA RESULT:      -9.2      1.621      2.197
REMARK  8 active torsions:
REMARK  status: ('A' for Active; 'I' for Inactive)
REMARK    1  A    between atoms: C_4  and  S_5 
REMARK    2  A    between atoms: S_5  and  C_6 
REMARK    3  A    between atoms: C_6  and  C_7 
REMARK       I    between atoms: C_7  and  N_8 
REMARK    4  A    between atoms: N_8  and  C_9 
REMARK    5  A    between atoms: C_20  and  C_21 
REMARK    6  A    between atoms: C_27  and  C_28 
REMARK       I    between atoms: C_28  and  N_29 
REMARK    7  A    between atoms: N_29  and  C_30 
REMARK    8  A    between atoms: C_31  and  O_32 
ROOT
HETATM    1  C   UNL     1       4.701  26.160  53.220  1.00  0.00     0.069 C 
HETATM    2  C   UNL     1       4.842  27.349  54.144  1.00  0.00     0.019 A 
HETATM    3  N   UNL     1       4.259  28.515  53.689  1.00  0.00    -0.353 N 
HETATM    4  C   UNL     1       4.273  29.734  54.332  1.00  0.00     0.087 A 
HETATM    5  C   UNL     1       4.855  29.825  55.547  1.00  0.00     0.055 A 
HETATM    6  C   UNL     1       5.054  31.147  56.269  1.00  0.00     0.019 C 
HETATM    7  N   UNL     1       5.219  32.244  56.868  1.00  0.00    -0.096 N 
HETATM    8  C   UNL     1       5.565  28.604  56.185  1.00  0.00     0.104 A 
HETATM    9  C   UNL     1       5.496  27.329  55.335  1.00  0.00     0.046 A 
HETATM   10  H   UNL     1       3.675  28.462  52.859  1.00  0.00     0.166 HD
ENDROOT
BRANCH   4  11
HETATM   11  S   UNL     1       3.519  31.098  53.543  1.00  0.00    -0.102 SA
BRANCH  11  12
HETATM   12  C   UNL     1       4.040  30.969  51.807  1.00  0.00     0.184 C 
BRANCH  12  13
HETATM   13  C   UNL     1       3.050  30.301  50.870  1.00  0.00     0.231 C 
HETATM   14  N   UNL     1       3.571  29.218  50.185  1.00  0.00    -0.325 N 
HETATM   15  H   UNL     1       4.574  29.079  50.229  1.00  0.00     0.169 HD
HETATM   16  O   UNL     1       1.902  30.723  50.773  1.00  0.00    -0.272 OA
BRANCH  14  17
HETATM   17  C   UNL     1       2.892  28.382  49.261  1.00  0.00     0.056 A 
HETATM   18  C   UNL     1       3.459  27.137  48.935  1.00  0.00     0.060 A 
HETATM   19 CL   UNL     1       4.933  26.611  49.676  1.00  0.00    -0.082 Cl
HETATM   20  C   UNL     1       2.855  26.292  47.999  1.00  0.00     0.026 A 
HETATM   21  C   UNL     1       1.662  26.674  47.387  1.00  0.00     0.002 A 
HETATM   22  C   UNL     1       1.073  27.890  47.723  1.00  0.00     0.002 A 
HETATM   23  C   UNL     1       1.681  28.735  48.658  1.00  0.00     0.031 A 
ENDBRANCH  14  17
ENDBRANCH  12  13
ENDBRANCH  11  12
ENDBRANCH   4  11
BRANCH   8  24
HETATM   24  C   UNL     1       6.986  29.014  56.587  1.00  0.00    -0.044 A 
HETATM   25  C   UNL     1       7.992  29.106  55.609  1.00  0.00     0.008 A 
HETATM   26  C   UNL     1       9.305  29.413  55.969  1.00  0.00     0.001 A 
HETATM   27  C   UNL     1       9.627  29.642  57.305  1.00  0.00     0.000 A 
HETATM   28  C   UNL     1       8.639  29.558  58.282  1.00  0.00     0.001 A 
HETATM   29  C   UNL     1       7.329  29.239  57.928  1.00  0.00     0.008 A 
ENDBRANCH   8  24
BRANCH   9  30
HETATM   30  C   UNL     1       6.002  26.000  55.831  1.00  0.00     0.255 C 
HETATM   31  N   UNL     1       7.237  25.602  55.383  1.00  0.00    -0.321 N 
HETATM   32  H   UNL     1       7.883  26.267  54.980  1.00  0.00     0.169 HD
HETATM   33  O   UNL     1       5.312  25.338  56.604  1.00  0.00    -0.268 OA
BRANCH  31  34
HETATM   34  C   UNL     1       7.757  24.285  55.360  1.00  0.00     0.068 A 
HETATM   35  C   UNL     1       8.256  23.807  54.129  1.00  0.00     0.095 A 
HETATM   36  C   UNL     1       8.689  22.482  54.023  1.00  0.00     0.039 A 
HETATM   37  C   UNL     1       8.625  21.632  55.128  1.00  0.00     0.003 A 
HETATM   38  C   UNL     1       8.140  22.106  56.345  1.00  0.00     0.002 A 
HETATM   39  C   UNL     1       7.712  23.429  56.465  1.00  0.00     0.032 A 
BRANCH  35  40
HETATM   40  O   UNL     1       8.275  24.721  53.104  1.00  0.00    -0.354 OA
HETATM   41  C   UNL     1       7.529  24.402  51.936  1.00  0.00     0.210 C 
ENDBRANCH  35  40
ENDBRANCH  31  34
ENDBRANCH   9  30
TORSDOF 8
ENDMDL
MODEL 9
REMARK VINA RESULT:      -8.9      2.570      7.747
REMARK  8 active torsions:
REMARK  status: ('A' for Active; 'I' for Inactive)
REMARK    1  A    between atoms: C_4  and  S_5 
REMARK    2  A    between atoms: S_5  and  C_6 
REMARK    3  A    between atoms: C_6  and  C_7 
REMARK       I    between atoms: C_7  and  N_8 
REMARK    4  A    between atoms: N_8  and  C_9 
REMARK    5  A    between atoms: C_20  and  C_21 
REMARK    6  A    between atoms: C_27  and  C_28 
REMARK       I    between atoms: C_28  and  N_29 
REMARK    7  A    between atoms: N_29  and  C_30 
REMARK    8  A    between atoms: C_31  and  O_32 
ROOT
HETATM    1  C   UNL     1       4.583  25.327  52.336  1.00  0.00     0.069 C 
HETATM    2  C   UNL     1       4.956  26.388  53.347  1.00  0.00     0.019 A 
HETATM    3  N   UNL     1       5.210  25.918  54.621  1.00  0.00    -0.353 N 
HETATM    4  C   UNL     1       5.542  26.684  55.717  1.00  0.00     0.087 A 
HETATM    5  C   UNL     1       5.694  28.017  55.561  1.00  0.00     0.055 A 
HETATM    6  C   UNL     1       5.912  28.964  56.730  1.00  0.00     0.019 C 
HETATM    7  N   UNL     1       6.092  29.750  57.699  1.00  0.00    -0.096 N 
HETATM    8  C   UNL     1       5.430  28.695  54.193  1.00  0.00     0.104 A 
HETATM    9  C   UNL     1       5.035  27.717  53.079  1.00  0.00     0.046 A 
HETATM   10  H   UNL     1       5.263  24.912  54.755  1.00  0.00     0.166 HD
ENDROOT
BRANCH   4  11
HETATM   11  S   UNL     1       5.763  25.883  57.254  1.00  0.00    -0.102 SA
BRANCH  11  12
HETATM   12  C   UNL     1       7.564  25.780  57.463  1.00  0.00     0.184 C 
BRANCH  12  13
HETATM   13  C   UNL     1       8.231  24.566  56.841  1.00  0.00     0.231 C 
HETATM   14  N   UNL     1       7.385  23.799  56.061  1.00  0.00    -0.325 N 
HETATM   15  H   UNL     1       6.393  24.002  56.114  1.00  0.00     0.169 HD
HETATM   16  O   UNL     1       9.421  24.338  57.043  1.00  0.00    -0.272 OA
BRANCH  14  17
HETATM   17  C   UNL     1       7.718  22.625  55.338  1.00  0.00     0.056 A 
HETATM   18  C   UNL     1       8.001  22.737  53.964  1.00  0.00     0.060 A 
HETATM   19 CL   UNL     1       7.988  24.280  53.177  1.00  0.00    -0.082 Cl
HETATM   20  C   UNL     1       8.292  21.607  53.193  1.00  0.00     0.026 A 
HETATM   21  C   UNL     1       8.323  20.348  53.791  1.00  0.00     0.002 A 
HETATM   22  C   UNL     1       8.075  20.226  55.155  1.00  0.00     0.002 A 
HETATM   23  C   UNL     1       7.781  21.357  55.924  1.00  0.00     0.031 A 
ENDBRANCH  14  17
ENDBRANCH  12  13
ENDBRANCH  11  12
ENDBRANCH   4  11
BRANCH   8  24
HETATM   24  C   UNL     1       4.441  29.847  54.397  1.00  0.00    -0.044 A 
HETATM   25  C   UNL     1       4.501  30.978  53.564  1.00  0.00     0.008 A 
HETATM   26  C   UNL     1       3.651  32.064  53.779  1.00  0.00     0.001 A 
HETATM   27  C   UNL     1       2.724  32.029  54.819  1.00  0.00     0.000 A 
HETATM   28  C   UNL     1       2.651  30.913  55.647  1.00  0.00     0.001 A 
HETATM   29  C   UNL     1       3.507  29.832  55.443  1.00  0.00     0.008 A 
ENDBRANCH   8  24
BRANCH   9  30
HETATM   30  C   UNL     1       4.868  28.152  51.646  1.00  0.00     0.255 C 
HETATM   31  N   UNL     1       3.667  27.865  51.050  1.00  0.00    -0.321 N 
HETATM   32  H   UNL     1       2.852  27.636  51.603  1.00  0.00     0.169 HD
HETATM   33  O   UNL     1       5.789  28.738  51.079  1.00  0.00    -0.268 OA
BRANCH  31  34
HETATM   34  C   UNL     1       3.394  27.793  49.661  1.00  0.00     0.068 A 
HETATM   35  C   UNL     1       2.708  28.881  49.079  1.00  0.00     0.095 A 
HETATM   36  C   UNL     1       2.324  28.821  47.736  1.00  0.00     0.039 A 
HETATM   37  C   UNL     1       2.613  27.689  46.974  1.00  0.00     0.003 A 
HETATM   38  C   UNL     1       3.297  26.618  47.546  1.00  0.00     0.002 A 
HETATM   39  C   UNL     1       3.692  26.670  48.884  1.00  0.00     0.032 A 
BRANCH  35  40
HETATM   40  O   UNL     1       2.470  29.946  49.914  1.00  0.00    -0.354 OA
HETATM   41  C   UNL     1       1.120  30.364  50.064  1.00  0.00     0.210 C 
ENDBRANCH  35  40
ENDBRANCH  31  34
ENDBRANCH   9  30
TORSDOF 8
ENDMDL
MODEL 10
REMARK VINA RESULT:      -8.8      2.055      2.635
REMARK  8 active torsions:
REMARK  status: ('A' for Active; 'I' for Inactive)
REMARK    1  A    between atoms: C_4  and  S_5 
REMARK    2  A    between atoms: S_5  and  C_6 
REMARK    3  A    between atoms: C_6  and  C_7 
REMARK       I    between atoms: C_7  and  N_8 
REMARK    4  A    between atoms: N_8  and  C_9 
REMARK    5  A    between atoms: C_20  and  C_21 
REMARK    6  A    between atoms: C_27  and  C_28 
REMARK       I    between atoms: C_28  and  N_29 
REMARK    7  A    between atoms: N_29  and  C_30 
REMARK    8  A    between atoms: C_31  and  O_32 
ROOT
HETATM    1  C   UNL     1       5.596  26.295  51.040  1.00  0.00     0.069 C 
HETATM    2  C   UNL     1       5.525  26.947  52.403  1.00  0.00     0.019 A 
HETATM    3  N   UNL     1       4.623  27.989  52.505  1.00  0.00    -0.353 N 
HETATM    4  C   UNL     1       4.394  28.755  53.627  1.00  0.00     0.087 A 
HETATM    5  C   UNL     1       5.052  28.457  54.768  1.00  0.00     0.055 A 
HETATM    6  C   UNL     1       4.981  29.328  56.012  1.00  0.00     0.019 C 
HETATM    7  N   UNL     1       4.923  30.050  57.043  1.00  0.00    -0.096 N 
HETATM    8  C   UNL     1       6.106  27.323  54.808  1.00  0.00     0.104 A 
HETATM    9  C   UNL     1       6.277  26.584  53.474  1.00  0.00     0.046 A 
HETATM   10  H   UNL     1       3.993  28.150  51.725  1.00  0.00     0.166 HD
ENDROOT
BRANCH   4  11
HETATM   11  S   UNL     1       3.246  30.067  53.515  1.00  0.00    -0.102 SA
BRANCH  11  12
HETATM   12  C   UNL     1       4.128  31.374  52.613  1.00  0.00     0.184 C 
BRANCH  12  13
HETATM   13  C   UNL     1       3.697  31.589  51.174  1.00  0.00     0.231 C 
HETATM   14  N   UNL     1       4.438  30.870  50.253  1.00  0.00    -0.325 N 
HETATM   15  H   UNL     1       5.284  30.422  50.587  1.00  0.00     0.169 HD
HETATM   16  O   UNL     1       2.763  32.341  50.910  1.00  0.00    -0.272 OA
BRANCH  14  17
HETATM   17  C   UNL     1       4.263  30.845  48.846  1.00  0.00     0.056 A 
HETATM   18  C   UNL     1       5.046  31.705  48.054  1.00  0.00     0.060 A 
HETATM   19 CL   UNL     1       6.232  32.742  48.773  1.00  0.00    -0.082 Cl
HETATM   20  C   UNL     1       4.885  31.752  46.666  1.00  0.00     0.026 A 
HETATM   21  C   UNL     1       3.948  30.926  46.046  1.00  0.00     0.002 A 
HETATM   22  C   UNL     1       3.188  30.049  46.814  1.00  0.00     0.002 A 
HETATM   23  C   UNL     1       3.349  30.005  48.203  1.00  0.00     0.031 A 
ENDBRANCH  14  17
ENDBRANCH  12  13
ENDBRANCH  11  12
ENDBRANCH   4  11
BRANCH   8  24
HETATM   24  C   UNL     1       7.410  27.881  55.386  1.00  0.00    -0.044 A 
HETATM   25  C   UNL     1       7.708  27.699  56.748  1.00  0.00     0.008 A 
HETATM   26  C   UNL     1       8.860  28.259  57.304  1.00  0.00     0.001 A 
HETATM   27  C   UNL     1       9.732  28.997  56.506  1.00  0.00     0.000 A 
HETATM   28  C   UNL     1       9.451  29.180  55.156  1.00  0.00     0.001 A 
HETATM   29  C   UNL     1       8.296  28.633  54.600  1.00  0.00     0.008 A 
ENDBRANCH   8  24
BRANCH   9  30
HETATM   30  C   UNL     1       7.149  25.364  53.333  1.00  0.00     0.255 C 
HETATM   31  N   UNL     1       6.616  24.171  53.753  1.00  0.00    -0.321 N 
HETATM   32  H   UNL     1       5.619  24.064  53.882  1.00  0.00     0.169 HD
HETATM   33  O   UNL     1       8.277  25.476  52.855  1.00  0.00    -0.268 OA
BRANCH  31  34
HETATM   34  C   UNL     1       7.320  22.993  54.101  1.00  0.00     0.068 A 
HETATM   35  C   UNL     1       7.801  22.894  55.425  1.00  0.00     0.095 A 
HETATM   36  C   UNL     1       8.589  21.800  55.798  1.00  0.00     0.039 A 
HETATM   37  C   UNL     1       8.903  20.812  54.864  1.00  0.00     0.003 A 
HETATM   38  C   UNL     1       8.422  20.905  53.560  1.00  0.00     0.002 A 
HETATM   39  C   UNL     1       7.628  21.989  53.179  1.00  0.00     0.032 A 
BRANCH  35  40
HETATM   40  O   UNL     1       7.438  23.919  56.265  1.00  0.00    -0.354 OA
HETATM   41  C   UNL     1       8.385  24.321  57.245  1.00  0.00     0.210 C 
ENDBRANCH  35  40
ENDBRANCH  31  34
ENDBRANCH   9  30
TORSDOF 8
ENDMDL
