MODEL 1
REMARK VINA RESULT:      -8.9      0.000      0.000
REMARK  8 active torsions:
REMARK  status: ('A' for Active; 'I' for Inactive)
REMARK    1  A    between atoms: C_2  and  N_3 
REMARK       I    between atoms: N_3  and  C_4 
REMARK       I    between atoms: C_4  and  N_5 
REMARK    2  A    between atoms: N_8  and  C_9 
REMARK    3  A    between atoms: C_11  and  C_12 
REMARK    4  A    between atoms: C_19  and  C_20 
REMARK    5  A    between atoms: C_20  and  O_21 
REMARK    6  A    between atoms: C_23  and  C_24 
REMARK    7  A    between atoms: C_24  and  C_25 
REMARK    8  A    between atoms: C_27  and  O_28 
ROOT
HETATM    1  C   UNL     1       6.206  27.384  55.563  1.00  0.00     0.137 A 
HETATM    2  N   UNL     1       6.868  28.457  56.038  1.00  0.00    -0.210 NA
HETATM    3  C   UNL     1       7.729  28.275  57.058  1.00  0.00     0.162 A 
HETATM    4  N   UNL     1       7.941  27.098  57.665  1.00  0.00    -0.230 NA
HETATM    5  C   UNL     1       7.302  26.017  57.174  1.00  0.00     0.071 A 
HETATM    6  C   UNL     1       6.418  26.103  56.094  1.00  0.00     0.019 A 
ENDROOT
BRANCH   1   7
HETATM    7  N   UNL     1       5.374  27.582  54.463  1.00  0.00    -0.362 N 
HETATM    8  C   UNL     1       4.183  28.454  54.611  1.00  0.00     0.144 C 
HETATM    9  C   UNL     1       4.291  29.770  53.819  1.00  0.00     0.147 C 
HETATM   10  N   UNL     1       4.724  29.512  52.448  1.00  0.00    -0.331 N 
HETATM   11  C   UNL     1       3.775  29.552  51.443  1.00  0.00     0.318 C 
HETATM   12  C   UNL     1       6.041  28.867  52.411  1.00  0.00     0.147 C 
HETATM   13  N   UNL     1       4.186  29.091  50.220  1.00  0.00    -0.339 N 
HETATM   14  O   UNL     1       2.644  29.992  51.629  1.00  0.00    -0.247 OA
HETATM   15  H   UNL     1       4.895  28.379  50.232  1.00  0.00     0.164 HD
HETATM   16  C   UNL     1       5.975  27.501  53.116  1.00  0.00     0.144 C 
BRANCH  13  17
HETATM   17  C   UNL     1       3.349  29.098  49.022  1.00  0.00     0.078 C 
HETATM   18  C   UNL     1       2.592  27.786  48.816  1.00  0.00     0.032 C 
HETATM   19  C   UNL     1       4.121  29.503  47.769  1.00  0.00     0.032 C 
ENDBRANCH  13  17
ENDBRANCH   1   7
BRANCH   6  20
HETATM   20  C   UNL     1       5.828  24.860  55.471  1.00  0.00     0.083 C 
BRANCH  20  21
HETATM   21  C   UNL     1       6.723  23.986  54.607  1.00  0.00    -0.051 A 
HETATM   22  C   UNL     1       7.072  22.719  55.112  1.00  0.00     0.044 A 
HETATM   23  C   UNL     1       7.898  21.855  54.390  1.00  0.00     0.068 A 
HETATM   24  C   UNL     1       8.363  22.248  53.136  1.00  0.00     0.037 A 
HETATM   25  C   UNL     1       8.029  23.500  52.619  1.00  0.00     0.003 A 
HETATM   26  C   UNL     1       7.219  24.367  53.352  1.00  0.00     0.007 A 
BRANCH  23  27
HETATM   27  O   UNL     1       8.307  20.614  54.795  1.00  0.00    -0.356 OA
HETATM   28  C   UNL     1       8.625  20.466  56.173  1.00  0.00     0.210 C 
ENDBRANCH  23  27
ENDBRANCH  20  21
ENDBRANCH   6  20
BRANCH   3  29
HETATM   29  C   UNL     1       8.554  29.419  57.505  1.00  0.00     0.012 A 
HETATM   30  C   UNL     1       9.877  29.600  57.061  1.00  0.00     0.015 A 
HETATM   31  C   UNL     1      10.661  30.668  57.516  1.00  0.00     0.001 A 
HETATM   32  C   UNL     1      10.142  31.579  58.432  1.00  0.00     0.000 A 
HETATM   33  C   UNL     1       8.836  31.430  58.886  1.00  0.00     0.001 A 
HETATM   34  C   UNL     1       8.055  30.364  58.427  1.00  0.00     0.015 A 
ENDBRANCH   3  29
BRANCH   5  35
HETATM   35  C   UNL     1       7.643  24.711  57.862  1.00  0.00     0.226 C 
BRANCH  35  36
HETATM   36  O   UNL     1       9.059  24.547  57.962  1.00  0.00    -0.390 OA
HETATM   37  C   UNL     1       9.637  24.266  56.695  1.00  0.00     0.201 C 
ENDBRANCH  35  36
ENDBRANCH   5  35
TORSDOF 8
ENDMDL
MODEL 2
REMARK VINA RESULT:      -8.8      2.668      8.377
REMARK  8 active torsions:
REMARK  status: ('A' for Active; 'I' for Inactive)
REMARK    1  A    between atoms: C_2  and  N_3 
REMARK       I    between atoms: N_3  and  C_4 
REMARK       I    between atoms: C_4  and  N_5 
REMARK    2  A    between atoms: N_8  and  C_9 
REMARK    3  A    between atoms: C_11  and  C_12 
REMARK    4  A    between atoms: C_19  and  C_20 
REMARK    5  A    between atoms: C_20  and  O_21 
REMARK    6  A    between atoms: C_23  and  C_24 
REMARK    7  A    between atoms: C_24  and  C_25 
REMARK    8  A    between atoms: C_27  and  O_28 
ROOT
HETATM    1  C   UNL     1       6.497  27.184  53.770  1.00  0.00     0.137 A 
HETATM    2  N   UNL     1       6.837  25.959  54.216  1.00  0.00    -0.210 NA
HETATM    3  C   UNL     1       6.749  24.922  53.361  1.00  0.00     0.162 A 
HETATM    4  N   UNL     1       6.301  25.019  52.101  1.00  0.00    -0.230 NA
HETATM    5  C   UNL     1       5.986  26.247  51.642  1.00  0.00     0.071 A 
HETATM    6  C   UNL     1       6.083  27.388  52.445  1.00  0.00     0.019 A 
ENDROOT
BRANCH   1   7
HETATM    7  N   UNL     1       6.663  28.252  54.648  1.00  0.00    -0.362 N 
HETATM    8  C   UNL     1       5.461  28.955  55.160  1.00  0.00     0.144 C 
HETATM    9  C   UNL     1       5.219  28.731  56.664  1.00  0.00     0.147 C 
HETATM   10  N   UNL     1       6.451  28.944  57.420  1.00  0.00    -0.331 N 
HETATM   11  C   UNL     1       6.595  30.130  58.116  1.00  0.00     0.318 C 
HETATM   12  C   UNL     1       7.508  28.017  57.002  1.00  0.00     0.147 C 
HETATM   13  N   UNL     1       7.845  30.372  58.624  1.00  0.00    -0.339 N 
HETATM   14  O   UNL     1       5.658  30.906  58.287  1.00  0.00    -0.247 OA
HETATM   15  H   UNL     1       8.613  29.978  58.110  1.00  0.00     0.164 HD
HETATM   16  C   UNL     1       7.855  28.253  55.522  1.00  0.00     0.144 C 
BRANCH  13  17
HETATM   17  C   UNL     1       8.185  31.544  59.430  1.00  0.00     0.078 C 
HETATM   18  C   UNL     1       9.639  31.982  59.260  1.00  0.00     0.032 C 
HETATM   19  C   UNL     1       7.820  31.368  60.902  1.00  0.00     0.032 C 
ENDBRANCH  13  17
ENDBRANCH   1   7
BRANCH   6  20
HETATM   20  C   UNL     1       5.866  28.767  51.868  1.00  0.00     0.083 C 
BRANCH  20  21
HETATM   21  C   UNL     1       4.528  29.079  51.218  1.00  0.00    -0.051 A 
HETATM   22  C   UNL     1       4.551  29.644  49.928  1.00  0.00     0.044 A 
HETATM   23  C   UNL     1       3.369  29.970  49.260  1.00  0.00     0.068 A 
HETATM   24  C   UNL     1       2.146  29.708  49.874  1.00  0.00     0.037 A 
HETATM   25  C   UNL     1       2.101  29.150  51.151  1.00  0.00     0.003 A 
HETATM   26  C   UNL     1       3.284  28.842  51.823  1.00  0.00     0.007 A 
BRANCH  23  27
HETATM   27  O   UNL     1       3.283  30.534  48.016  1.00  0.00    -0.356 OA
HETATM   28  C   UNL     1       2.803  29.698  46.970  1.00  0.00     0.210 C 
ENDBRANCH  23  27
ENDBRANCH  20  21
ENDBRANCH   6  20
BRANCH   3  29
HETATM   29  C   UNL     1       7.237  23.595  53.799  1.00  0.00     0.012 A 
HETATM   30  C   UNL     1       7.695  22.631  52.881  1.00  0.00     0.015 A 
HETATM   31  C   UNL     1       8.124  21.366  53.303  1.00  0.00     0.001 A 
HETATM   32  C   UNL     1       8.100  21.032  54.654  1.00  0.00     0.000 A 
HETATM   33  C   UNL     1       7.658  21.964  55.586  1.00  0.00     0.001 A 
HETATM   34  C   UNL     1       7.234  23.228  55.162  1.00  0.00     0.015 A 
ENDBRANCH   3  29
BRANCH   5  35
HETATM   35  C   UNL     1       5.557  26.292  50.190  1.00  0.00     0.226 C 
BRANCH  35  36
HETATM   36  O   UNL     1       4.240  25.760  50.036  1.00  0.00    -0.390 OA
HETATM   37  C   UNL     1       3.693  26.096  48.768  1.00  0.00     0.201 C 
ENDBRANCH  35  36
ENDBRANCH   5  35
TORSDOF 8
ENDMDL
MODEL 3
REMARK VINA RESULT:      -8.7      2.837      8.691
REMARK  8 active torsions:
REMARK  status: ('A' for Active; 'I' for Inactive)
REMARK    1  A    between atoms: C_2  and  N_3 
REMARK       I    between atoms: N_3  and  C_4 
REMARK       I    between atoms: C_4  and  N_5 
REMARK    2  A    between atoms: N_8  and  C_9 
REMARK    3  A    between atoms: C_11  and  C_12 
REMARK    4  A    between atoms: C_19  and  C_20 
REMARK    5  A    between atoms: C_20  and  O_21 
REMARK    6  A    between atoms: C_23  and  C_24 
REMARK    7  A    between atoms: C_24  and  C_25 
REMARK    8  A    between atoms: C_27  and  O_28 
ROOT
HETATM    1  C   UNL     1       7.414  26.531  55.614  1.00  0.00     0.137 A 
HETATM    2  N   UNL     1       7.658  25.206  55.577  1.00  0.00    -0.210 NA
HETATM    3  C   UNL     1       7.099  24.483  54.588  1.00  0.00     0.162 A 
HETATM    4  N   UNL     1       6.275  24.987  53.658  1.00  0.00    -0.230 NA
HETATM    5  C   UNL     1       6.051  26.316  53.675  1.00  0.00     0.071 A 
HETATM    6  C   UNL     1       6.619  27.153  54.640  1.00  0.00     0.019 A 
ENDROOT
BRANCH   1   7
HETATM    7  N   UNL     1       8.059  27.272  56.602  1.00  0.00    -0.362 N 
HETATM    8  C   UNL     1       9.122  28.227  56.206  1.00  0.00     0.144 C 
HETATM    9  C   UNL     1       8.724  29.700  56.415  1.00  0.00     0.147 C 
HETATM   10  N   UNL     1       8.157  29.896  57.747  1.00  0.00    -0.331 N 
HETATM   11  C   UNL     1       8.951  30.479  58.718  1.00  0.00     0.318 C 
HETATM   12  C   UNL     1       6.952  29.084  57.945  1.00  0.00     0.147 C 
HETATM   13  N   UNL     1       8.453  30.440  59.994  1.00  0.00    -0.339 N 
HETATM   14  O   UNL     1      10.022  31.016  58.450  1.00  0.00    -0.247 OA
HETATM   15  H   UNL     1       7.861  29.658  60.212  1.00  0.00     0.164 HD
HETATM   16  C   UNL     1       7.304  27.590  57.833  1.00  0.00     0.144 C 
BRANCH  13  17
HETATM   17  C   UNL     1       9.118  31.043  61.148  1.00  0.00     0.078 C 
HETATM   18  C   UNL     1       9.450  30.030  62.242  1.00  0.00     0.032 C 
HETATM   19  C   UNL     1       8.351  32.240  61.705  1.00  0.00     0.032 C 
ENDBRANCH  13  17
ENDBRANCH   1   7
BRANCH   6  20
HETATM   20  C   UNL     1       6.471  28.654  54.553  1.00  0.00     0.083 C 
BRANCH  20  21
HETATM   21  C   UNL     1       5.266  29.304  55.212  1.00  0.00    -0.051 A 
HETATM   22  C   UNL     1       5.206  30.711  55.208  1.00  0.00     0.044 A 
HETATM   23  C   UNL     1       4.140  31.391  55.800  1.00  0.00     0.068 A 
HETATM   24  C   UNL     1       3.106  30.661  56.382  1.00  0.00     0.037 A 
HETATM   25  C   UNL     1       3.146  29.267  56.398  1.00  0.00     0.003 A 
HETATM   26  C   UNL     1       4.222  28.592  55.822  1.00  0.00     0.007 A 
BRANCH  23  27
HETATM   27  O   UNL     1       3.994  32.750  55.863  1.00  0.00    -0.356 OA
HETATM   28  C   UNL     1       4.790  33.433  56.822  1.00  0.00     0.210 C 
ENDBRANCH  23  27
ENDBRANCH  20  21
ENDBRANCH   6  20
BRANCH   3  29
HETATM   29  C   UNL     1       7.459  23.053  54.461  1.00  0.00     0.012 A 
HETATM   30  C   UNL     1       7.562  22.210  55.584  1.00  0.00     0.015 A 
HETATM   31  C   UNL     1       7.936  20.866  55.456  1.00  0.00     0.001 A 
HETATM   32  C   UNL     1       8.223  20.333  54.203  1.00  0.00     0.000 A 
HETATM   33  C   UNL     1       8.125  21.140  53.074  1.00  0.00     0.001 A 
HETATM   34  C   UNL     1       7.748  22.480  53.204  1.00  0.00     0.015 A 
ENDBRANCH   3  29
BRANCH   5  35
HETATM   35  C   UNL     1       5.169  26.826  52.553  1.00  0.00     0.226 C 
BRANCH  35  36
HETATM   36  O   UNL     1       4.997  25.824  51.549  1.00  0.00    -0.390 OA
HETATM   37  C   UNL     1       4.955  26.397  50.250  1.00  0.00     0.201 C 
ENDBRANCH  35  36
ENDBRANCH   5  35
TORSDOF 8
ENDMDL
MODEL 4
REMARK VINA RESULT:      -8.7      2.633      8.011
REMARK  8 active torsions:
REMARK  status: ('A' for Active; 'I' for Inactive)
REMARK    1  A    between atoms: C_2  and  N_3 
REMARK       I    between atoms: N_3  and  C_4 
REMARK       I    between atoms: C_4  and  N_5 
REMARK    2  A    between atoms: N_8  and  C_9 
REMARK    3  A    between atoms: C_11  and  C_12 
REMARK    4  A    between atoms: C_19  and  C_20 
REMARK    5  A    between atoms: C_20  and  O_21 
REMARK    6  A    between atoms: C_23  and  C_24 
REMARK    7  A    between atoms: C_24  and  C_25 
REMARK    8  A    between atoms: C_27  and  O_28 
ROOT
HETATM    1  C   UNL     1       7.260  26.211  55.572  1.00  0.00     0.137 A 
HETATM    2  N   UNL     1       7.498  24.926  55.899  1.00  0.00    -0.210 NA
HETATM    3  C   UNL     1       7.422  23.997  54.927  1.00  0.00     0.162 A 
HETATM    4  N   UNL     1       7.078  24.259  53.658  1.00  0.00    -0.230 NA
HETATM    5  C   UNL     1       6.866  25.548  53.321  1.00  0.00     0.071 A 
HETATM    6  C   UNL     1       6.960  26.585  54.254  1.00  0.00     0.019 A 
ENDROOT
BRANCH   1   7
HETATM    7  N   UNL     1       7.413  27.164  56.577  1.00  0.00    -0.362 N 
HETATM    8  C   UNL     1       8.689  27.916  56.665  1.00  0.00     0.144 C 
HETATM    9  C   UNL     1       8.541  29.407  56.310  1.00  0.00     0.147 C 
HETATM   10  N   UNL     1       7.406  29.995  57.017  1.00  0.00    -0.331 N 
HETATM   11  C   UNL     1       7.662  30.784  58.124  1.00  0.00     0.318 C 
HETATM   12  C   UNL     1       6.147  29.332  56.661  1.00  0.00     0.147 C 
HETATM   13  N   UNL     1       6.567  31.127  58.873  1.00  0.00    -0.339 N 
HETATM   14  O   UNL     1       8.793  31.170  58.404  1.00  0.00    -0.247 OA
HETATM   15  H   UNL     1       5.808  30.469  58.873  1.00  0.00     0.164 HD
HETATM   16  C   UNL     1       6.202  27.851  57.073  1.00  0.00     0.144 C 
BRANCH  13  17
HETATM   17  C   UNL     1       6.622  31.994  60.049  1.00  0.00     0.078 C 
HETATM   18  C   UNL     1       7.371  31.362  61.221  1.00  0.00     0.032 C 
HETATM   19  C   UNL     1       5.244  32.499  60.470  1.00  0.00     0.032 C 
ENDBRANCH  13  17
ENDBRANCH   1   7
BRANCH   6  20
HETATM   20  C   UNL     1       6.861  28.030  53.824  1.00  0.00     0.083 C 
BRANCH  20  21
HETATM   21  C   UNL     1       5.585  28.499  53.145  1.00  0.00    -0.051 A 
HETATM   22  C   UNL     1       5.719  29.226  51.946  1.00  0.00     0.044 A 
HETATM   23  C   UNL     1       4.600  29.703  51.261  1.00  0.00     0.068 A 
HETATM   24  C   UNL     1       3.329  29.433  51.763  1.00  0.00     0.037 A 
HETATM   25  C   UNL     1       3.174  28.716  52.949  1.00  0.00     0.003 A 
HETATM   26  C   UNL     1       4.295  28.257  53.640  1.00  0.00     0.007 A 
BRANCH  23  27
HETATM   27  O   UNL     1       4.622  30.428  50.101  1.00  0.00    -0.356 OA
HETATM   28  C   UNL     1       4.064  29.806  48.950  1.00  0.00     0.210 C 
ENDBRANCH  23  27
ENDBRANCH  20  21
ENDBRANCH   6  20
BRANCH   3  29
HETATM   29  C   UNL     1       7.804  22.603  55.243  1.00  0.00     0.012 A 
HETATM   30  C   UNL     1       8.151  22.205  56.548  1.00  0.00     0.015 A 
HETATM   31  C   UNL     1       8.543  20.890  56.831  1.00  0.00     0.001 A 
HETATM   32  C   UNL     1       8.604  19.942  55.814  1.00  0.00     0.000 A 
HETATM   33  C   UNL     1       8.263  20.303  54.515  1.00  0.00     0.001 A 
HETATM   34  C   UNL     1       7.868  21.615  54.236  1.00  0.00     0.015 A 
ENDBRANCH   3  29
BRANCH   5  35
HETATM   35  C   UNL     1       6.553  25.778  51.857  1.00  0.00     0.226 C 
BRANCH  35  36
HETATM   36  O   UNL     1       5.184  25.475  51.578  1.00  0.00    -0.390 OA
HETATM   37  C   UNL     1       4.768  26.053  50.349  1.00  0.00     0.201 C 
ENDBRANCH  35  36
ENDBRANCH   5  35
TORSDOF 8
ENDMDL
MODEL 5
REMARK VINA RESULT:      -8.5      6.003      9.811
REMARK  8 active torsions:
REMARK  status: ('A' for Active; 'I' for Inactive)
REMARK    1  A    between atoms: C_2  and  N_3 
REMARK       I    between atoms: N_3  and  C_4 
REMARK       I    between atoms: C_4  and  N_5 
REMARK    2  A    between atoms: N_8  and  C_9 
REMARK    3  A    between atoms: C_11  and  C_12 
REMARK    4  A    between atoms: C_19  and  C_20 
REMARK    5  A    between atoms: C_20  and  O_21 
REMARK    6  A    between atoms: C_23  and  C_24 
REMARK    7  A    between atoms: C_24  and  C_25 
REMARK    8  A    between atoms: C_27  and  O_28 
ROOT
HETATM    1  C   UNL     1       5.657  32.532  59.310  1.00  0.00     0.137 A 
HETATM    2  N   UNL     1       6.656  31.996  58.581  1.00  0.00    -0.210 NA
HETATM    3  C   UNL     1       7.695  31.441  59.235  1.00  0.00     0.162 A 
HETATM    4  N   UNL     1       7.825  31.426  60.569  1.00  0.00    -0.230 NA
HETATM    5  C   UNL     1       6.815  31.936  61.302  1.00  0.00     0.071 A 
HETATM    6  C   UNL     1       5.679  32.499  60.712  1.00  0.00     0.019 A 
ENDROOT
BRANCH   1   7
HETATM    7  N   UNL     1       4.560  33.037  58.616  1.00  0.00    -0.362 N 
HETATM    8  C   UNL     1       4.621  34.421  58.084  1.00  0.00     0.144 C 
HETATM    9  C   UNL     1       4.672  34.479  56.547  1.00  0.00     0.147 C 
HETATM   10  N   UNL     1       3.645  33.619  55.964  1.00  0.00    -0.331 N 
HETATM   11  C   UNL     1       2.500  34.212  55.464  1.00  0.00     0.318 C 
HETATM   12  C   UNL     1       3.829  32.218  56.356  1.00  0.00     0.147 C 
HETATM   13  N   UNL     1       1.483  33.354  55.133  1.00  0.00    -0.339 N 
HETATM   14  O   UNL     1       2.408  35.426  55.306  1.00  0.00    -0.247 OA
HETATM   15  H   UNL     1       1.434  32.503  55.665  1.00  0.00     0.164 HD
HETATM   16  C   UNL     1       3.703  32.082  57.884  1.00  0.00     0.144 C 
BRANCH  13  17
HETATM   17  C   UNL     1       0.216  33.781  54.544  1.00  0.00     0.078 C 
HETATM   18  C   UNL     1      -0.990  33.042  55.124  1.00  0.00     0.032 C 
HETATM   19  C   UNL     1       0.229  33.722  53.018  1.00  0.00     0.032 C 
ENDBRANCH  13  17
ENDBRANCH   1   7
BRANCH   6  20
HETATM   20  C   UNL     1       4.499  32.931  61.551  1.00  0.00     0.083 C 
BRANCH  20  21
HETATM   21  C   UNL     1       4.640  34.174  62.415  1.00  0.00    -0.051 A 
HETATM   22  C   UNL     1       3.991  34.170  63.665  1.00  0.00     0.044 A 
HETATM   23  C   UNL     1       4.059  35.272  64.519  1.00  0.00     0.068 A 
HETATM   24  C   UNL     1       4.804  36.385  64.134  1.00  0.00     0.037 A 
HETATM   25  C   UNL     1       5.453  36.410  62.900  1.00  0.00     0.003 A 
HETATM   26  C   UNL     1       5.367  35.313  62.042  1.00  0.00     0.007 A 
BRANCH  23  27
HETATM   27  O   UNL     1       3.456  35.375  65.743  1.00  0.00    -0.356 OA
HETATM   28  C   UNL     1       4.204  36.014  66.770  1.00  0.00     0.210 C 
ENDBRANCH  23  27
ENDBRANCH  20  21
ENDBRANCH   6  20
BRANCH   3  29
HETATM   29  C   UNL     1       8.735  30.738  58.451  1.00  0.00     0.012 A 
HETATM   30  C   UNL     1      10.028  31.269  58.288  1.00  0.00     0.015 A 
HETATM   31  C   UNL     1      10.995  30.612  57.517  1.00  0.00     0.001 A 
HETATM   32  C   UNL     1      10.691  29.410  56.884  1.00  0.00     0.000 A 
HETATM   33  C   UNL     1       9.423  28.857  57.030  1.00  0.00     0.001 A 
HETATM   34  C   UNL     1       8.460  29.514  57.804  1.00  0.00     0.015 A 
ENDBRANCH   3  29
BRANCH   5  35
HETATM   35  C   UNL     1       6.997  31.820  62.802  1.00  0.00     0.226 C 
BRANCH  35  36
HETATM   36  O   UNL     1       7.955  32.771  63.270  1.00  0.00    -0.390 OA
HETATM   37  C   UNL     1       7.543  33.357  64.498  1.00  0.00     0.201 C 
ENDBRANCH  35  36
ENDBRANCH   5  35
TORSDOF 8
ENDMDL
MODEL 6
REMARK VINA RESULT:      -8.3      2.245      7.162
REMARK  8 active torsions:
REMARK  status: ('A' for Active; 'I' for Inactive)
REMARK    1  A    between atoms: C_2  and  N_3 
REMARK       I    between atoms: N_3  and  C_4 
REMARK       I    between atoms: C_4  and  N_5 
REMARK    2  A    between atoms: N_8  and  C_9 
REMARK    3  A    between atoms: C_11  and  C_12 
REMARK    4  A    between atoms: C_19  and  C_20 
REMARK    5  A    between atoms: C_20  and  O_21 
REMARK    6  A    between atoms: C_23  and  C_24 
REMARK    7  A    between atoms: C_24  and  C_25 
REMARK    8  A    between atoms: C_27  and  O_28 
ROOT
HETATM    1  C   UNL     1       5.511  28.266  55.093  1.00  0.00     0.137 A 
HETATM    2  N   UNL     1       6.233  28.723  56.135  1.00  0.00    -0.210 NA
HETATM    3  C   UNL     1       6.005  29.978  56.566  1.00  0.00     0.162 A 
HETATM    4  N   UNL     1       5.134  30.825  55.998  1.00  0.00    -0.230 NA
HETATM    5  C   UNL     1       4.390  30.363  54.973  1.00  0.00     0.071 A 
HETATM    6  C   UNL     1       4.530  29.061  54.481  1.00  0.00     0.019 A 
ENDROOT
BRANCH   1   7
HETATM    7  N   UNL     1       5.712  26.942  54.708  1.00  0.00    -0.362 N 
HETATM    8  C   UNL     1       6.209  26.660  53.339  1.00  0.00     0.144 C 
HETATM    9  C   UNL     1       7.642  26.098  53.317  1.00  0.00     0.147 C 
HETATM   10  N   UNL     1       7.784  25.010  54.282  1.00  0.00    -0.331 N 
HETATM   11  C   UNL     1       7.787  23.710  53.809  1.00  0.00     0.318 C 
HETATM   12  C   UNL     1       7.512  25.464  55.649  1.00  0.00     0.147 C 
HETATM   13  N   UNL     1       7.702  22.731  54.763  1.00  0.00    -0.339 N 
HETATM   14  O   UNL     1       7.882  23.451  52.612  1.00  0.00    -0.247 OA
HETATM   15  H   UNL     1       7.203  22.974  55.601  1.00  0.00     0.164 HD
HETATM   16  C   UNL     1       6.059  25.960  55.756  1.00  0.00     0.144 C 
BRANCH  13  17
HETATM   17  C   UNL     1       7.740  21.300  54.469  1.00  0.00     0.078 C 
HETATM   18  C   UNL     1       7.643  20.431  55.722  1.00  0.00     0.032 C 
HETATM   19  C   UNL     1       8.940  20.911  53.609  1.00  0.00     0.032 C 
ENDBRANCH  13  17
ENDBRANCH   1   7
BRANCH   6  20
HETATM   20  C   UNL     1       3.587  28.520  53.431  1.00  0.00     0.083 C 
BRANCH  20  21
HETATM   21  C   UNL     1       3.692  29.060  52.015  1.00  0.00    -0.051 A 
HETATM   22  C   UNL     1       4.935  29.586  51.614  1.00  0.00     0.044 A 
HETATM   23  C   UNL     1       5.119  30.112  50.333  1.00  0.00     0.068 A 
HETATM   24  C   UNL     1       4.057  30.092  49.431  1.00  0.00     0.037 A 
HETATM   25  C   UNL     1       2.817  29.576  49.809  1.00  0.00     0.003 A 
HETATM   26  C   UNL     1       2.634  29.068  51.095  1.00  0.00     0.007 A 
BRANCH  23  27
HETATM   27  O   UNL     1       6.277  30.658  49.851  1.00  0.00    -0.356 OA
HETATM   28  C   UNL     1       6.179  31.955  49.276  1.00  0.00     0.210 C 
ENDBRANCH  23  27
ENDBRANCH  20  21
ENDBRANCH   6  20
BRANCH   3  29
HETATM   29  C   UNL     1       6.698  30.448  57.786  1.00  0.00     0.012 A 
HETATM   30  C   UNL     1       7.808  29.767  58.319  1.00  0.00     0.015 A 
HETATM   31  C   UNL     1       8.438  30.202  59.493  1.00  0.00     0.001 A 
HETATM   32  C   UNL     1       7.968  31.326  60.166  1.00  0.00     0.000 A 
HETATM   33  C   UNL     1       6.876  32.024  59.662  1.00  0.00     0.001 A 
HETATM   34  C   UNL     1       6.252  31.590  58.488  1.00  0.00     0.015 A 
ENDBRANCH   3  29
BRANCH   5  35
HETATM   35  C   UNL     1       3.378  31.348  54.426  1.00  0.00     0.226 C 
BRANCH  35  36
HETATM   36  O   UNL     1       2.443  31.727  55.438  1.00  0.00    -0.390 OA
HETATM   37  C   UNL     1       2.233  33.132  55.447  1.00  0.00     0.201 C 
ENDBRANCH  35  36
ENDBRANCH   5  35
TORSDOF 8
ENDMDL
MODEL 7
REMARK VINA RESULT:      -8.3      3.060      8.370
REMARK  8 active torsions:
REMARK  status: ('A' for Active; 'I' for Inactive)
REMARK    1  A    between atoms: C_2  and  N_3 
REMARK       I    between atoms: N_3  and  C_4 
REMARK       I    between atoms: C_4  and  N_5 
REMARK    2  A    between atoms: N_8  and  C_9 
REMARK    3  A    between atoms: C_11  and  C_12 
REMARK    4  A    between atoms: C_19  and  C_20 
REMARK    5  A    between atoms: C_20  and  O_21 
REMARK    6  A    between atoms: C_23  and  C_24 
REMARK    7  A    between atoms: C_24  and  C_25 
REMARK    8  A    between atoms: C_27  and  O_28 
ROOT
HETATM    1  C   UNL     1       5.558  27.689  53.496  1.00  0.00     0.137 A 
HETATM    2  N   UNL     1       5.997  26.509  53.976  1.00  0.00    -0.210 NA
HETATM    3  C   UNL     1       6.262  25.523  53.097  1.00  0.00     0.162 A 
HETATM    4  N   UNL     1       6.075  25.623  51.774  1.00  0.00    -0.230 NA
HETATM    5  C   UNL     1       5.663  26.811  51.287  1.00  0.00     0.071 A 
HETATM    6  C   UNL     1       5.399  27.903  52.119  1.00  0.00     0.019 A 
ENDROOT
BRANCH   1   7
HETATM    7  N   UNL     1       5.357  28.717  54.416  1.00  0.00    -0.362 N 
HETATM    8  C   UNL     1       3.984  28.980  54.911  1.00  0.00     0.144 C 
HETATM    9  C   UNL     1       3.796  28.627  56.398  1.00  0.00     0.147 C 
HETATM   10  N   UNL     1       4.880  29.188  57.201  1.00  0.00    -0.331 N 
HETATM   11  C   UNL     1       4.625  30.328  57.941  1.00  0.00     0.318 C 
HETATM   12  C   UNL     1       6.185  28.663  56.786  1.00  0.00     0.147 C 
HETATM   13  N   UNL     1       5.722  30.933  58.496  1.00  0.00    -0.339 N 
HETATM   14  O   UNL     1       3.487  30.758  58.107  1.00  0.00    -0.247 OA
HETATM   15  H   UNL     1       6.586  30.826  57.994  1.00  0.00     0.164 HD
HETATM   16  C   UNL     1       6.469  29.060  55.327  1.00  0.00     0.144 C 
BRANCH  13  17
HETATM   17  C   UNL     1       5.655  32.117  59.351  1.00  0.00     0.078 C 
HETATM   18  C   UNL     1       5.263  33.382  58.589  1.00  0.00     0.032 C 
HETATM   19  C   UNL     1       6.931  32.325  60.164  1.00  0.00     0.032 C 
ENDBRANCH  13  17
ENDBRANCH   1   7
BRANCH   6  20
HETATM   20  C   UNL     1       5.080  29.262  51.542  1.00  0.00     0.083 C 
BRANCH  20  21
HETATM   21  C   UNL     1       3.791  29.431  50.754  1.00  0.00    -0.051 A 
HETATM   22  C   UNL     1       3.871  30.102  49.519  1.00  0.00     0.044 A 
HETATM   23  C   UNL     1       2.735  30.310  48.733  1.00  0.00     0.068 A 
HETATM   24  C   UNL     1       1.506  29.821  49.172  1.00  0.00     0.037 A 
HETATM   25  C   UNL     1       1.405  29.154  50.393  1.00  0.00     0.003 A 
HETATM   26  C   UNL     1       2.539  28.965  51.183  1.00  0.00     0.007 A 
BRANCH  23  27
HETATM   27  O   UNL     1       2.702  30.959  47.530  1.00  0.00    -0.356 OA
HETATM   28  C   UNL     1       3.751  30.663  46.617  1.00  0.00     0.210 C 
ENDBRANCH  23  27
ENDBRANCH  20  21
ENDBRANCH   6  20
BRANCH   3  29
HETATM   29  C   UNL     1       6.863  24.267  53.598  1.00  0.00     0.012 A 
HETATM   30  C   UNL     1       6.853  23.931  54.964  1.00  0.00     0.015 A 
HETATM   31  C   UNL     1       7.454  22.755  55.432  1.00  0.00     0.001 A 
HETATM   32  C   UNL     1       8.086  21.889  54.544  1.00  0.00     0.000 A 
HETATM   33  C   UNL     1       8.108  22.191  53.187  1.00  0.00     0.001 A 
HETATM   34  C   UNL     1       7.504  23.364  52.722  1.00  0.00     0.015 A 
ENDBRANCH   3  29
BRANCH   5  35
HETATM   35  C   UNL     1       5.543  26.873  49.778  1.00  0.00     0.226 C 
BRANCH  35  36
HETATM   36  O   UNL     1       4.434  26.092  49.327  1.00  0.00    -0.390 OA
HETATM   37  C   UNL     1       3.835  26.667  48.174  1.00  0.00     0.201 C 
ENDBRANCH  35  36
ENDBRANCH   5  35
TORSDOF 8
ENDMDL
MODEL 8
REMARK VINA RESULT:      -8.2      2.232      6.926
REMARK  8 active torsions:
REMARK  status: ('A' for Active; 'I' for Inactive)
REMARK    1  A    between atoms: C_2  and  N_3 
REMARK       I    between atoms: N_3  and  C_4 
REMARK       I    between atoms: C_4  and  N_5 
REMARK    2  A    between atoms: N_8  and  C_9 
REMARK    3  A    between atoms: C_11  and  C_12 
REMARK    4  A    between atoms: C_19  and  C_20 
REMARK    5  A    between atoms: C_20  and  O_21 
REMARK    6  A    between atoms: C_23  and  C_24 
REMARK    7  A    between atoms: C_24  and  C_25 
REMARK    8  A    between atoms: C_27  and  O_28 
ROOT
HETATM    1  C   UNL     1       5.539  28.279  54.819  1.00  0.00     0.137 A 
HETATM    2  N   UNL     1       6.186  28.721  55.915  1.00  0.00    -0.210 NA
HETATM    3  C   UNL     1       5.946  29.979  56.333  1.00  0.00     0.162 A 
HETATM    4  N   UNL     1       5.136  30.841  55.702  1.00  0.00    -0.230 NA
HETATM    5  C   UNL     1       4.465  30.394  54.621  1.00  0.00     0.071 A 
HETATM    6  C   UNL     1       4.621  29.092  54.137  1.00  0.00     0.019 A 
ENDROOT
BRANCH   1   7
HETATM    7  N   UNL     1       5.747  26.953  54.445  1.00  0.00    -0.362 N 
HETATM    8  C   UNL     1       6.359  26.666  53.124  1.00  0.00     0.144 C 
HETATM    9  C   UNL     1       7.777  26.075  53.226  1.00  0.00     0.147 C 
HETATM   10  N   UNL     1       7.810  24.981  54.194  1.00  0.00    -0.331 N 
HETATM   11  C   UNL     1       7.829  23.683  53.714  1.00  0.00     0.318 C 
HETATM   12  C   UNL     1       7.426  25.434  55.534  1.00  0.00     0.147 C 
HETATM   13  N   UNL     1       7.640  22.702  54.652  1.00  0.00    -0.339 N 
HETATM   14  O   UNL     1       8.026  23.427  52.530  1.00  0.00    -0.247 OA
HETATM   15  H   UNL     1       7.073  22.952  55.443  1.00  0.00     0.164 HD
HETATM   16  C   UNL     1       5.980  25.959  55.514  1.00  0.00     0.144 C 
BRANCH  13  17
HETATM   17  C   UNL     1       7.676  21.271  54.353  1.00  0.00     0.078 C 
HETATM   18  C   UNL     1       7.675  20.400  55.609  1.00  0.00     0.032 C 
HETATM   19  C   UNL     1       8.818  20.898  53.412  1.00  0.00     0.032 C 
ENDBRANCH  13  17
ENDBRANCH   1   7
BRANCH   6  20
HETATM   20  C   UNL     1       3.753  28.569  53.016  1.00  0.00     0.083 C 
BRANCH  20  21
HETATM   21  C   UNL     1       4.252  28.709  51.587  1.00  0.00    -0.051 A 
HETATM   22  C   UNL     1       3.789  27.770  50.645  1.00  0.00     0.044 A 
HETATM   23  C   UNL     1       4.202  27.817  49.313  1.00  0.00     0.068 A 
HETATM   24  C   UNL     1       5.071  28.828  48.906  1.00  0.00     0.037 A 
HETATM   25  C   UNL     1       5.542  29.767  49.823  1.00  0.00     0.003 A 
HETATM   26  C   UNL     1       5.141  29.705  51.157  1.00  0.00     0.007 A 
BRANCH  23  27
HETATM   27  O   UNL     1       3.825  26.948  48.326  1.00  0.00    -0.356 OA
HETATM   28  C   UNL     1       2.433  26.872  48.042  1.00  0.00     0.210 C 
ENDBRANCH  23  27
ENDBRANCH  20  21
ENDBRANCH   6  20
BRANCH   3  29
HETATM   29  C   UNL     1       6.552  30.434  57.604  1.00  0.00     0.012 A 
HETATM   30  C   UNL     1       6.082  31.571  58.286  1.00  0.00     0.015 A 
HETATM   31  C   UNL     1       6.684  32.013  59.472  1.00  0.00     0.001 A 
HETATM   32  C   UNL     1       7.775  31.330  60.001  1.00  0.00     0.000 A 
HETATM   33  C   UNL     1       8.260  30.199  59.353  1.00  0.00     0.001 A 
HETATM   34  C   UNL     1       7.655  29.759  58.171  1.00  0.00     0.015 A 
ENDBRANCH   3  29
BRANCH   5  35
HETATM   35  C   UNL     1       3.515  31.398  54.003  1.00  0.00     0.226 C 
BRANCH  35  36
HETATM   36  O   UNL     1       2.405  31.644  54.869  1.00  0.00    -0.390 OA
HETATM   37  C   UNL     1       2.171  33.037  55.024  1.00  0.00     0.201 C 
ENDBRANCH  35  36
ENDBRANCH   5  35
TORSDOF 8
ENDMDL
MODEL 9
REMARK VINA RESULT:      -7.7      2.835      7.223
REMARK  8 active torsions:
REMARK  status: ('A' for Active; 'I' for Inactive)
REMARK    1  A    between atoms: C_2  and  N_3 
REMARK       I    between atoms: N_3  and  C_4 
REMARK       I    between atoms: C_4  and  N_5 
REMARK    2  A    between atoms: N_8  and  C_9 
REMARK    3  A    between atoms: C_11  and  C_12 
REMARK    4  A    between atoms: C_19  and  C_20 
REMARK    5  A    between atoms: C_20  and  O_21 
REMARK    6  A    between atoms: C_23  and  C_24 
REMARK    7  A    between atoms: C_24  and  C_25 
REMARK    8  A    between atoms: C_27  and  O_28 
ROOT
HETATM    1  C   UNL     1       4.803  28.718  52.805  1.00  0.00     0.137 A 
HETATM    2  N   UNL     1       5.522  27.587  52.660  1.00  0.00    -0.210 NA
HETATM    3  C   UNL     1       5.903  26.927  53.771  1.00  0.00     0.162 A 
HETATM    4  N   UNL     1       5.652  27.345  55.020  1.00  0.00    -0.230 NA
HETATM    5  C   UNL     1       4.909  28.460  55.169  1.00  0.00     0.071 A 
HETATM    6  C   UNL     1       4.437  29.191  54.074  1.00  0.00     0.019 A 
ENDROOT
BRANCH   1   7
HETATM    7  N   UNL     1       4.360  29.346  51.644  1.00  0.00    -0.362 N 
HETATM    8  C   UNL     1       5.360  29.833  50.663  1.00  0.00     0.144 C 
HETATM    9  C   UNL     1       5.353  29.042  49.342  1.00  0.00     0.147 C 
HETATM   10  N   UNL     1       3.989  28.895  48.839  1.00  0.00    -0.331 N 
HETATM   11  C   UNL     1       3.586  29.704  47.792  1.00  0.00     0.318 C 
HETATM   12  C   UNL     1       3.139  28.170  49.789  1.00  0.00     0.147 C 
HETATM   13  N   UNL     1       2.246  29.681  47.507  1.00  0.00    -0.339 N 
HETATM   14  O   UNL     1       4.380  30.383  47.147  1.00  0.00    -0.247 OA
HETATM   15  H   UNL     1       1.633  29.494  48.281  1.00  0.00     0.164 HD
HETATM   16  C   UNL     1       3.039  28.959  51.107  1.00  0.00     0.144 C 
BRANCH  13  17
HETATM   17  C   UNL     1       1.633  30.426  46.408  1.00  0.00     0.078 C 
HETATM   18  C   UNL     1       1.357  31.887  46.760  1.00  0.00     0.032 C 
HETATM   19  C   UNL     1       0.387  29.737  45.856  1.00  0.00     0.032 C 
ENDBRANCH  13  17
ENDBRANCH   1   7
BRANCH   6  20
HETATM   20  C   UNL     1       3.488  30.351  54.263  1.00  0.00     0.083 C 
BRANCH  20  21
HETATM   21  C   UNL     1       4.061  31.758  54.304  1.00  0.00    -0.051 A 
HETATM   22  C   UNL     1       4.384  32.288  55.568  1.00  0.00     0.044 A 
HETATM   23  C   UNL     1       4.908  33.576  55.701  1.00  0.00     0.068 A 
HETATM   24  C   UNL     1       5.135  34.338  54.556  1.00  0.00     0.037 A 
HETATM   25  C   UNL     1       4.821  33.832  53.295  1.00  0.00     0.003 A 
HETATM   26  C   UNL     1       4.281  32.552  53.169  1.00  0.00     0.007 A 
BRANCH  23  27
HETATM   27  O   UNL     1       5.241  34.187  56.878  1.00  0.00    -0.356 OA
HETATM   28  C   UNL     1       4.994  33.452  58.070  1.00  0.00     0.210 C 
ENDBRANCH  23  27
ENDBRANCH  20  21
ENDBRANCH   6  20
BRANCH   3  29
HETATM   29  C   UNL     1       6.582  25.621  53.624  1.00  0.00     0.012 A 
HETATM   30  C   UNL     1       6.569  24.657  54.649  1.00  0.00     0.015 A 
HETATM   31  C   UNL     1       7.243  23.436  54.514  1.00  0.00     0.001 A 
HETATM   32  C   UNL     1       7.954  23.153  53.350  1.00  0.00     0.000 A 
HETATM   33  C   UNL     1       7.982  24.083  52.317  1.00  0.00     0.001 A 
HETATM   34  C   UNL     1       7.305  25.299  52.454  1.00  0.00     0.015 A 
ENDBRANCH   3  29
BRANCH   5  35
HETATM   35  C   UNL     1       4.604  28.833  56.605  1.00  0.00     0.226 C 
BRANCH  35  36
HETATM   36  O   UNL     1       5.774  28.719  57.417  1.00  0.00    -0.390 OA
HETATM   37  C   UNL     1       6.534  29.919  57.398  1.00  0.00     0.201 C 
ENDBRANCH  35  36
ENDBRANCH   5  35
TORSDOF 8
ENDMDL
MODEL 10
REMARK VINA RESULT:      -7.6      3.473      8.987
REMARK  8 active torsions:
REMARK  status: ('A' for Active; 'I' for Inactive)
REMARK    1  A    between atoms: C_2  and  N_3 
REMARK       I    between atoms: N_3  and  C_4 
REMARK       I    between atoms: C_4  and  N_5 
REMARK    2  A    between atoms: N_8  and  C_9 
REMARK    3  A    between atoms: C_11  and  C_12 
REMARK    4  A    between atoms: C_19  and  C_20 
REMARK    5  A    between atoms: C_20  and  O_21 
REMARK    6  A    between atoms: C_23  and  C_24 
REMARK    7  A    between atoms: C_24  and  C_25 
REMARK    8  A    between atoms: C_27  and  O_28 
ROOT
HETATM    1  C   UNL     1       4.636  29.116  53.906  1.00  0.00     0.137 A 
HETATM    2  N   UNL     1       5.315  27.963  54.064  1.00  0.00    -0.210 NA
HETATM    3  C   UNL     1       5.321  27.083  53.045  1.00  0.00     0.162 A 
HETATM    4  N   UNL     1       4.656  27.257  51.894  1.00  0.00    -0.230 NA
HETATM    5  C   UNL     1       3.998  28.420  51.721  1.00  0.00     0.071 A 
HETATM    6  C   UNL     1       3.967  29.410  52.709  1.00  0.00     0.019 A 
ENDROOT
BRANCH   1   7
HETATM    7  N   UNL     1       4.701  30.043  54.944  1.00  0.00    -0.362 N 
HETATM    8  C   UNL     1       3.453  30.703  55.398  1.00  0.00     0.144 C 
HETATM    9  C   UNL     1       3.017  30.274  56.811  1.00  0.00     0.147 C 
HETATM   10  N   UNL     1       4.144  30.339  57.739  1.00  0.00    -0.331 N 
HETATM   11  C   UNL     1       4.213  31.409  58.612  1.00  0.00     0.318 C 
HETATM   12  C   UNL     1       5.234  29.449  57.326  1.00  0.00     0.147 C 
HETATM   13  N   UNL     1       5.390  31.538  59.302  1.00  0.00    -0.339 N 
HETATM   14  O   UNL     1       3.272  32.181  58.776  1.00  0.00    -0.247 OA
HETATM   15  H   UNL     1       6.213  31.197  58.836  1.00  0.00     0.164 HD
HETATM   16  C   UNL     1       5.771  29.883  55.951  1.00  0.00     0.144 C 
BRANCH  13  17
HETATM   17  C   UNL     1       5.639  32.571  60.305  1.00  0.00     0.078 C 
HETATM   18  C   UNL     1       7.119  32.718  60.655  1.00  0.00     0.032 C 
HETATM   19  C   UNL     1       4.781  32.392  61.556  1.00  0.00     0.032 C 
ENDBRANCH  13  17
ENDBRANCH   1   7
BRANCH   6  20
HETATM   20  C   UNL     1       3.348  30.762  52.437  1.00  0.00     0.083 C 
BRANCH  20  21
HETATM   21  C   UNL     1       4.250  31.892  51.970  1.00  0.00    -0.051 A 
HETATM   22  C   UNL     1       4.317  33.043  52.779  1.00  0.00     0.044 A 
HETATM   23  C   UNL     1       5.113  34.133  52.421  1.00  0.00     0.068 A 
HETATM   24  C   UNL     1       5.872  34.067  51.254  1.00  0.00     0.037 A 
HETATM   25  C   UNL     1       5.819  32.937  50.438  1.00  0.00     0.003 A 
HETATM   26  C   UNL     1       5.008  31.858  50.790  1.00  0.00     0.007 A 
BRANCH  23  27
HETATM   27  O   UNL     1       5.238  35.298  53.126  1.00  0.00    -0.356 OA
HETATM   28  C   UNL     1       4.030  35.957  53.487  1.00  0.00     0.210 C 
ENDBRANCH  23  27
ENDBRANCH  20  21
ENDBRANCH   6  20
BRANCH   3  29
HETATM   29  C   UNL     1       6.165  25.872  53.155  1.00  0.00     0.012 A 
HETATM   30  C   UNL     1       7.087  25.514  52.154  1.00  0.00     0.015 A 
HETATM   31  C   UNL     1       7.858  24.348  52.253  1.00  0.00     0.001 A 
HETATM   32  C   UNL     1       7.720  23.508  53.354  1.00  0.00     0.000 A 
HETATM   33  C   UNL     1       6.821  23.837  54.363  1.00  0.00     0.001 A 
HETATM   34  C   UNL     1       6.056  25.003  54.263  1.00  0.00     0.015 A 
ENDBRANCH   3  29
BRANCH   5  35
HETATM   35  C   UNL     1       3.329  28.579  50.371  1.00  0.00     0.226 C 
BRANCH  35  36
HETATM   36  O   UNL     1       3.937  27.722  49.402  1.00  0.00    -0.390 OA
HETATM   37  C   UNL     1       2.971  27.189  48.507  1.00  0.00     0.201 C 
ENDBRANCH  35  36
ENDBRANCH   5  35
TORSDOF 8
ENDMDL
