MODEL 1
REMARK VINA RESULT:      -9.9      0.000      0.000
REMARK  5 active torsions:
REMARK  status: ('A' for Active; 'I' for Inactive)
REMARK    1  A    between atoms: C_3  and  O_4 
REMARK    2  A    between atoms: C_6  and  N_7 
REMARK       I    between atoms: N_7  and  C_8 
REMARK    3  A    between atoms: C_8  and  C_9 
REMARK    4  A    between atoms: C_12  and  C_13 
REMARK    5  A    between atoms: C_18  and  C_19 
ROOT
HETATM    1  C   UNL     1       6.493  25.978  53.990  1.00  0.00     0.096 A 
HETATM    2  C   UNL     1       6.397  26.635  55.204  1.00  0.00     0.138 A 
HETATM    3  N   UNL     1       5.435  27.600  55.032  1.00  0.00    -0.240 N 
HETATM    4  C   UNL     1       5.006  28.535  56.052  1.00  0.00     0.221 C 
HETATM    5  C   UNL     1       5.470  28.063  57.442  1.00  0.00     0.066 C 
HETATM    6  C   UNL     1       6.886  27.460  57.469  1.00  0.00     0.118 C 
HETATM    7  N   UNL     1       7.051  26.487  56.387  1.00  0.00    -0.365 N 
HETATM    8  N   UNL     1       4.878  27.598  53.811  1.00  0.00    -0.181 NA
HETATM    9  C   UNL     1       5.558  26.646  53.163  1.00  0.00     0.160 A 
HETATM   10  H   UNL     1       7.974  26.046  56.392  1.00  0.00     0.161 HD
ENDROOT
BRANCH   1  11
HETATM   11  C   UNL     1       7.349  24.865  53.615  1.00  0.00     0.261 C 
HETATM   12  N   UNL     1       7.026  23.694  54.274  1.00  0.00    -0.323 N 
HETATM   13  H   UNL     1       6.159  23.722  54.799  1.00  0.00     0.169 HD
HETATM   14  O   UNL     1       8.219  25.003  52.765  1.00  0.00    -0.267 OA
BRANCH  12  15
HETATM   15  C   UNL     1       7.701  22.460  54.230  1.00  0.00     0.037 A 
HETATM   16  C   UNL     1       8.348  21.887  55.326  1.00  0.00     0.066 A 
HETATM   17  C   UNL     1       8.965  20.643  55.195  1.00  0.00     0.067 A 
HETATM   18  C   UNL     1       8.957  19.958  53.985  1.00  0.00     0.036 A 
HETATM   19  C   UNL     1       8.313  20.525  52.888  1.00  0.00     0.005 A 
HETATM   20  C   UNL     1       7.684  21.767  53.011  1.00  0.00     0.029 A 
BRANCH  17  21
HETATM   21  O   UNL     1       9.572  20.117  56.298  1.00  0.00    -0.361 OA
HETATM   22  H   UNL     1      10.339  19.594  56.016  1.00  0.00     0.217 HD
ENDBRANCH  17  21
ENDBRANCH  12  15
ENDBRANCH   1  11
BRANCH   4  23
HETATM   23  C   UNL     1       5.444  29.941  55.705  1.00  0.00     0.409 C 
HETATM   24  F   UNL     1       4.643  30.555  54.813  1.00  0.00    -0.169 F 
HETATM   25  F   UNL     1       5.525  30.737  56.796  1.00  0.00    -0.169 F 
HETATM   26  F   UNL     1       6.692  29.916  55.165  1.00  0.00    -0.169 F 
ENDBRANCH   4  23
BRANCH   6  27
HETATM   27  C   UNL     1       8.022  28.467  57.548  1.00  0.00    -0.035 A 
HETATM   28  C   UNL     1       7.946  29.504  58.500  1.00  0.00     0.012 A 
HETATM   29  C   UNL     1       8.974  30.442  58.626  1.00  0.00     0.043 A 
HETATM   30  C   UNL     1      10.088  30.353  57.805  1.00  0.00     0.116 A 
HETATM   31  F   UNL     1      11.073  31.252  57.927  1.00  0.00    -0.206 F 
HETATM   32  C   UNL     1      10.194  29.344  56.859  1.00  0.00     0.043 A 
HETATM   33  C   UNL     1       9.169  28.403  56.734  1.00  0.00     0.012 A 
ENDBRANCH   6  27
TORSDOF 5
ENDMDL
MODEL 2
REMARK VINA RESULT:      -9.7      4.136      6.998
REMARK  5 active torsions:
REMARK  status: ('A' for Active; 'I' for Inactive)
REMARK    1  A    between atoms: C_3  and  O_4 
REMARK    2  A    between atoms: C_6  and  N_7 
REMARK       I    between atoms: N_7  and  C_8 
REMARK    3  A    between atoms: C_8  and  C_9 
REMARK    4  A    between atoms: C_12  and  C_13 
REMARK    5  A    between atoms: C_18  and  C_19 
ROOT
HETATM    1  C   UNL     1       5.086  27.337  51.981  1.00  0.00     0.096 A 
HETATM    2  C   UNL     1       5.229  26.796  53.247  1.00  0.00     0.138 A 
HETATM    3  N   UNL     1       5.824  27.773  54.006  1.00  0.00    -0.240 N 
HETATM    4  C   UNL     1       6.169  27.641  55.407  1.00  0.00     0.221 C 
HETATM    5  C   UNL     1       5.439  26.436  56.027  1.00  0.00     0.066 C 
HETATM    6  C   UNL     1       5.361  25.200  55.115  1.00  0.00     0.118 C 
HETATM    7  N   UNL     1       4.917  25.581  53.772  1.00  0.00    -0.365 N 
HETATM    8  N   UNL     1       6.049  28.916  53.339  1.00  0.00    -0.181 NA
HETATM    9  C   UNL     1       5.647  28.632  52.096  1.00  0.00     0.160 A 
HETATM   10  H   UNL     1       4.828  24.778  53.144  1.00  0.00     0.161 HD
ENDROOT
BRANCH   1  11
HETATM   11  C   UNL     1       4.508  26.739  50.789  1.00  0.00     0.261 C 
HETATM   12  N   UNL     1       3.730  27.626  50.067  1.00  0.00    -0.323 N 
HETATM   13  H   UNL     1       3.789  28.592  50.368  1.00  0.00     0.169 HD
HETATM   14  O   UNL     1       4.758  25.580  50.485  1.00  0.00    -0.267 OA
BRANCH  12  15
HETATM   15  C   UNL     1       2.947  27.363  48.928  1.00  0.00     0.037 A 
HETATM   16  C   UNL     1       3.253  26.386  47.982  1.00  0.00     0.066 A 
HETATM   17  C   UNL     1       2.398  26.177  46.899  1.00  0.00     0.067 A 
HETATM   18  C   UNL     1       1.242  26.932  46.737  1.00  0.00     0.036 A 
HETATM   19  C   UNL     1       0.932  27.910  47.679  1.00  0.00     0.005 A 
HETATM   20  C   UNL     1       1.777  28.121  48.772  1.00  0.00     0.029 A 
BRANCH  17  21
HETATM   21  O   UNL     1       2.731  25.199  46.007  1.00  0.00    -0.361 OA
HETATM   22  H   UNL     1       3.528  25.471  45.525  1.00  0.00     0.217 HD
ENDBRANCH  17  21
ENDBRANCH  12  15
ENDBRANCH   1  11
BRANCH   4  23
HETATM   23  C   UNL     1       7.671  27.606  55.586  1.00  0.00     0.409 C 
HETATM   24  F   UNL     1       8.242  28.825  55.630  1.00  0.00    -0.169 F 
HETATM   25  F   UNL     1       8.039  26.943  56.706  1.00  0.00    -0.169 F 
HETATM   26  F   UNL     1       8.244  26.938  54.549  1.00  0.00    -0.169 F 
ENDBRANCH   4  23
BRANCH   6  27
HETATM   27  C   UNL     1       6.597  24.314  55.108  1.00  0.00    -0.035 A 
HETATM   28  C   UNL     1       7.106  23.869  53.871  1.00  0.00     0.012 A 
HETATM   29  C   UNL     1       8.251  23.071  53.810  1.00  0.00     0.043 A 
HETATM   30  C   UNL     1       8.900  22.711  54.982  1.00  0.00     0.116 A 
HETATM   31  F   UNL     1       9.998  21.947  54.922  1.00  0.00    -0.206 F 
HETATM   32  C   UNL     1       8.426  23.135  56.215  1.00  0.00     0.043 A 
HETATM   33  C   UNL     1       7.283  23.937  56.278  1.00  0.00     0.012 A 
ENDBRANCH   6  27
TORSDOF 5
ENDMDL
MODEL 3
REMARK VINA RESULT:      -9.6      3.835      7.923
REMARK  5 active torsions:
REMARK  status: ('A' for Active; 'I' for Inactive)
REMARK    1  A    between atoms: C_3  and  O_4 
REMARK    2  A    between atoms: C_6  and  N_7 
REMARK       I    between atoms: N_7  and  C_8 
REMARK    3  A    between atoms: C_8  and  C_9 
REMARK    4  A    between atoms: C_12  and  C_13 
REMARK    5  A    between atoms: C_18  and  C_19 
ROOT
HETATM    1  C   UNL     1       6.308  29.399  56.814  1.00  0.00     0.096 A 
HETATM    2  C   UNL     1       6.608  28.852  55.580  1.00  0.00     0.138 A 
HETATM    3  N   UNL     1       5.466  28.974  54.829  1.00  0.00    -0.240 N 
HETATM    4  C   UNL     1       5.321  28.528  53.458  1.00  0.00     0.221 C 
HETATM    5  C   UNL     1       6.702  28.263  52.832  1.00  0.00     0.066 C 
HETATM    6  C   UNL     1       7.712  27.590  53.778  1.00  0.00     0.118 C 
HETATM    7  N   UNL     1       7.729  28.269  55.076  1.00  0.00    -0.365 N 
HETATM    8  N   UNL     1       4.458  29.587  55.470  1.00  0.00    -0.181 NA
HETATM    9  C   UNL     1       4.956  29.798  56.693  1.00  0.00     0.160 A 
HETATM   10  H   UNL     1       8.411  27.863  55.723  1.00  0.00     0.161 HD
ENDROOT
BRANCH   1  11
HETATM   11  C   UNL     1       7.158  29.538  57.986  1.00  0.00     0.261 C 
HETATM   12  N   UNL     1       6.959  30.732  58.654  1.00  0.00    -0.323 N 
HETATM   13  H   UNL     1       6.160  31.272  58.341  1.00  0.00     0.169 HD
HETATM   14  O   UNL     1       7.916  28.638  58.321  1.00  0.00    -0.267 OA
BRANCH  12  15
HETATM   15  C   UNL     1       7.672  31.238  59.757  1.00  0.00     0.037 A 
HETATM   16  C   UNL     1       7.104  31.477  61.008  1.00  0.00     0.066 A 
HETATM   17  C   UNL     1       7.899  31.951  62.052  1.00  0.00     0.067 A 
HETATM   18  C   UNL     1       9.255  32.199  61.871  1.00  0.00     0.036 A 
HETATM   19  C   UNL     1       9.827  31.963  60.623  1.00  0.00     0.005 A 
HETATM   20  C   UNL     1       9.041  31.479  59.573  1.00  0.00     0.029 A 
BRANCH  17  21
HETATM   21  O   UNL     1       7.301  32.155  63.262  1.00  0.00    -0.361 OA
HETATM   22  H   UNL     1       6.405  31.786  63.237  1.00  0.00     0.217 HD
ENDBRANCH  17  21
ENDBRANCH  12  15
ENDBRANCH   1  11
BRANCH   4  23
HETATM   23  C   UNL     1       4.376  27.349  53.378  1.00  0.00     0.409 C 
HETATM   24  F   UNL     1       4.446  26.523  54.439  1.00  0.00    -0.169 F 
HETATM   25  F   UNL     1       3.086  27.733  53.245  1.00  0.00    -0.169 F 
HETATM   26  F   UNL     1       4.660  26.603  52.276  1.00  0.00    -0.169 F 
ENDBRANCH   4  23
BRANCH   6  27
HETATM   27  C   UNL     1       7.591  26.079  53.894  1.00  0.00    -0.035 A 
HETATM   28  C   UNL     1       7.707  25.297  52.727  1.00  0.00     0.012 A 
HETATM   29  C   UNL     1       7.625  23.904  52.783  1.00  0.00     0.043 A 
HETATM   30  C   UNL     1       7.427  23.277  54.005  1.00  0.00     0.116 A 
HETATM   31  F   UNL     1       7.350  21.941  54.057  1.00  0.00    -0.206 F 
HETATM   32  C   UNL     1       7.311  24.017  55.172  1.00  0.00     0.043 A 
HETATM   33  C   UNL     1       7.397  25.411  55.118  1.00  0.00     0.012 A 
ENDBRANCH   6  27
TORSDOF 5
ENDMDL
MODEL 4
REMARK VINA RESULT:      -9.4      3.748      7.843
REMARK  5 active torsions:
REMARK  status: ('A' for Active; 'I' for Inactive)
REMARK    1  A    between atoms: C_3  and  O_4 
REMARK    2  A    between atoms: C_6  and  N_7 
REMARK       I    between atoms: N_7  and  C_8 
REMARK    3  A    between atoms: C_8  and  C_9 
REMARK    4  A    between atoms: C_12  and  C_13 
REMARK    5  A    between atoms: C_18  and  C_19 
ROOT
HETATM    1  C   UNL     1       6.426  28.101  56.126  1.00  0.00     0.096 A 
HETATM    2  C   UNL     1       6.810  27.310  55.058  1.00  0.00     0.138 A 
HETATM    3  N   UNL     1       5.712  27.228  54.239  1.00  0.00    -0.240 N 
HETATM    4  C   UNL     1       5.658  26.490  52.993  1.00  0.00     0.221 C 
HETATM    5  C   UNL     1       7.079  26.142  52.515  1.00  0.00     0.066 C 
HETATM    6  C   UNL     1       8.045  25.725  53.638  1.00  0.00     0.118 C 
HETATM    7  N   UNL     1       7.971  26.669  54.755  1.00  0.00    -0.365 N 
HETATM    8  N   UNL     1       4.655  27.931  54.677  1.00  0.00    -0.181 NA
HETATM    9  C   UNL     1       5.075  28.420  55.848  1.00  0.00     0.160 A 
HETATM   10  H   UNL     1       8.621  26.437  55.510  1.00  0.00     0.161 HD
ENDROOT
BRANCH   1  11
HETATM   11  C   UNL     1       7.201  28.520  57.283  1.00  0.00     0.261 C 
HETATM   12  N   UNL     1       7.165  29.888  57.486  1.00  0.00    -0.323 N 
HETATM   13  H   UNL     1       6.496  30.390  56.913  1.00  0.00     0.169 HD
HETATM   14  O   UNL     1       7.766  27.697  57.989  1.00  0.00    -0.267 OA
BRANCH  12  15
HETATM   15  C   UNL     1       7.875  30.641  58.439  1.00  0.00     0.037 A 
HETATM   16  C   UNL     1       7.313  31.135  59.616  1.00  0.00     0.066 A 
HETATM   17  C   UNL     1       8.104  31.846  60.518  1.00  0.00     0.067 A 
HETATM   18  C   UNL     1       9.451  32.083  60.265  1.00  0.00     0.036 A 
HETATM   19  C   UNL     1      10.017  31.593  59.091  1.00  0.00     0.005 A 
HETATM   20  C   UNL     1       9.234  30.871  58.185  1.00  0.00     0.029 A 
BRANCH  17  21
HETATM   21  O   UNL     1       7.513  32.297  61.663  1.00  0.00    -0.361 OA
HETATM   22  H   UNL     1       6.689  32.753  61.433  1.00  0.00     0.217 HD
ENDBRANCH  17  21
ENDBRANCH  12  15
ENDBRANCH   1  11
BRANCH   4  23
HETATM   23  C   UNL     1       4.744  25.290  53.123  1.00  0.00     0.409 C 
HETATM   24  F   UNL     1       4.945  24.350  52.180  1.00  0.00    -0.169 F 
HETATM   25  F   UNL     1       4.855  24.689  54.329  1.00  0.00    -0.169 F 
HETATM   26  F   UNL     1       3.447  25.685  53.018  1.00  0.00    -0.169 F 
ENDBRANCH   4  23
BRANCH   6  27
HETATM   27  C   UNL     1       7.950  24.272  54.075  1.00  0.00    -0.035 A 
HETATM   28  C   UNL     1       7.935  23.266  53.088  1.00  0.00     0.012 A 
HETATM   29  C   UNL     1       7.870  21.915  53.438  1.00  0.00     0.043 A 
HETATM   30  C   UNL     1       7.820  21.555  54.777  1.00  0.00     0.116 A 
HETATM   31  F   UNL     1       7.759  20.260  55.111  1.00  0.00    -0.206 F 
HETATM   32  C   UNL     1       7.835  22.521  55.772  1.00  0.00     0.043 A 
HETATM   33  C   UNL     1       7.904  23.872  55.424  1.00  0.00     0.012 A 
ENDBRANCH   6  27
TORSDOF 5
ENDMDL
MODEL 5
REMARK VINA RESULT:      -9.4      3.687      6.758
REMARK  5 active torsions:
REMARK  status: ('A' for Active; 'I' for Inactive)
REMARK    1  A    between atoms: C_3  and  O_4 
REMARK    2  A    between atoms: C_6  and  N_7 
REMARK       I    between atoms: N_7  and  C_8 
REMARK    3  A    between atoms: C_8  and  C_9 
REMARK    4  A    between atoms: C_12  and  C_13 
REMARK    5  A    between atoms: C_18  and  C_19 
ROOT
HETATM    1  C   UNL     1       5.151  28.148  53.904  1.00  0.00     0.096 A 
HETATM    2  C   UNL     1       5.303  27.051  54.734  1.00  0.00     0.138 A 
HETATM    3  N   UNL     1       5.967  27.513  55.844  1.00  0.00    -0.240 N 
HETATM    4  C   UNL     1       6.345  26.700  56.983  1.00  0.00     0.221 C 
HETATM    5  C   UNL     1       5.576  25.367  56.969  1.00  0.00     0.066 C 
HETATM    6  C   UNL     1       5.411  24.741  55.573  1.00  0.00     0.118 C 
HETATM    7  N   UNL     1       4.948  25.745  54.612  1.00  0.00    -0.365 N 
HETATM    8  N   UNL     1       6.228  28.829  55.812  1.00  0.00    -0.181 NA
HETATM    9  C   UNL     1       5.777  29.203  54.610  1.00  0.00     0.160 A 
HETATM   10  H   UNL     1       4.801  25.356  53.677  1.00  0.00     0.161 HD
ENDROOT
BRANCH   1  11
HETATM   11  C   UNL     1       4.510  28.229  52.602  1.00  0.00     0.261 C 
HETATM   12  N   UNL     1       5.342  27.837  51.569  1.00  0.00    -0.323 N 
HETATM   13  H   UNL     1       6.213  27.406  51.859  1.00  0.00     0.169 HD
HETATM   14  O   UNL     1       3.340  28.573  52.499  1.00  0.00    -0.267 OA
BRANCH  12  15
HETATM   15  C   UNL     1       5.089  27.885  50.186  1.00  0.00     0.037 A 
HETATM   16  C   UNL     1       4.677  26.787  49.431  1.00  0.00     0.066 A 
HETATM   17  C   UNL     1       4.419  26.938  48.069  1.00  0.00     0.067 A 
HETATM   18  C   UNL     1       4.572  28.168  47.438  1.00  0.00     0.036 A 
HETATM   19  C   UNL     1       4.984  29.267  48.187  1.00  0.00     0.005 A 
HETATM   20  C   UNL     1       5.236  29.128  49.554  1.00  0.00     0.029 A 
BRANCH  17  21
HETATM   21  O   UNL     1       4.004  25.838  47.375  1.00  0.00    -0.361 OA
HETATM   22  H   UNL     1       4.630  25.114  47.529  1.00  0.00     0.217 HD
ENDBRANCH  17  21
ENDBRANCH  12  15
ENDBRANCH   1  11
BRANCH   4  23
HETATM   23  C   UNL     1       7.848  26.538  57.048  1.00  0.00     0.409 C 
HETATM   24  F   UNL     1       8.488  27.607  57.561  1.00  0.00    -0.169 F 
HETATM   25  F   UNL     1       8.218  25.456  57.769  1.00  0.00    -0.169 F 
HETATM   26  F   UNL     1       8.346  26.344  55.797  1.00  0.00    -0.169 F 
ENDBRANCH   4  23
BRANCH   6  27
HETATM   27  C   UNL     1       6.601  23.938  55.073  1.00  0.00    -0.035 A 
HETATM   28  C   UNL     1       6.975  24.050  53.718  1.00  0.00     0.012 A 
HETATM   29  C   UNL     1       8.074  23.350  53.215  1.00  0.00     0.043 A 
HETATM   30  C   UNL     1       8.811  22.532  54.059  1.00  0.00     0.116 A 
HETATM   31  F   UNL     1       9.866  21.862  53.576  1.00  0.00    -0.206 F 
HETATM   32  C   UNL     1       8.471  22.402  55.397  1.00  0.00     0.043 A 
HETATM   33  C   UNL     1       7.375  23.105  55.903  1.00  0.00     0.012 A 
ENDBRANCH   6  27
TORSDOF 5
ENDMDL
MODEL 6
REMARK VINA RESULT:      -9.1      4.350      7.357
REMARK  5 active torsions:
REMARK  status: ('A' for Active; 'I' for Inactive)
REMARK    1  A    between atoms: C_3  and  O_4 
REMARK    2  A    between atoms: C_6  and  N_7 
REMARK       I    between atoms: N_7  and  C_8 
REMARK    3  A    between atoms: C_8  and  C_9 
REMARK    4  A    between atoms: C_12  and  C_13 
REMARK    5  A    between atoms: C_18  and  C_19 
ROOT
HETATM    1  C   UNL     1       5.493  26.628  52.389  1.00  0.00     0.096 A 
HETATM    2  C   UNL     1       5.459  27.305  51.183  1.00  0.00     0.138 A 
HETATM    3  N   UNL     1       5.381  28.637  51.503  1.00  0.00    -0.240 N 
HETATM    4  C   UNL     1       5.320  29.721  50.543  1.00  0.00     0.221 C 
HETATM    5  C   UNL     1       5.744  29.225  49.149  1.00  0.00     0.066 C 
HETATM    6  C   UNL     1       5.229  27.821  48.788  1.00  0.00     0.118 C 
HETATM    7  N   UNL     1       5.474  26.886  49.889  1.00  0.00    -0.365 N 
HETATM    8  N   UNL     1       5.394  28.879  52.824  1.00  0.00    -0.181 NA
HETATM    9  C   UNL     1       5.410  27.655  53.360  1.00  0.00     0.160 A 
HETATM   10  H   UNL     1       5.167  25.934  49.672  1.00  0.00     0.161 HD
ENDROOT
BRANCH   1  11
HETATM   11  C   UNL     1       5.583  25.198  52.636  1.00  0.00     0.261 C 
HETATM   12  N   UNL     1       6.648  24.861  53.450  1.00  0.00    -0.323 N 
HETATM   13  H   UNL     1       7.121  25.645  53.886  1.00  0.00     0.169 HD
HETATM   14  O   UNL     1       4.747  24.430  52.179  1.00  0.00    -0.267 OA
BRANCH  12  15
HETATM   15  C   UNL     1       7.090  23.574  53.810  1.00  0.00     0.037 A 
HETATM   16  C   UNL     1       7.450  22.590  52.890  1.00  0.00     0.066 A 
HETATM   17  C   UNL     1       7.907  21.352  53.342  1.00  0.00     0.067 A 
HETATM   18  C   UNL     1       8.007  21.071  54.700  1.00  0.00     0.036 A 
HETATM   19  C   UNL     1       7.649  22.051  55.623  1.00  0.00     0.005 A 
HETATM   20  C   UNL     1       7.197  23.297  55.180  1.00  0.00     0.029 A 
BRANCH  17  21
HETATM   21  O   UNL     1       8.262  20.425  52.404  1.00  0.00    -0.361 OA
HETATM   22  H   UNL     1       7.614  20.443  51.682  1.00  0.00     0.217 HD
ENDBRANCH  17  21
ENDBRANCH  12  15
ENDBRANCH   1  11
BRANCH   4  23
HETATM   23  C   UNL     1       3.959  30.382  50.570  1.00  0.00     0.409 C 
HETATM   24  F   UNL     1       2.937  29.517  50.722  1.00  0.00    -0.169 F 
HETATM   25  F   UNL     1       3.858  31.308  51.550  1.00  0.00    -0.169 F 
HETATM   26  F   UNL     1       3.744  31.045  49.402  1.00  0.00    -0.169 F 
ENDBRANCH   4  23
BRANCH   6  27
HETATM   27  C   UNL     1       3.805  27.764  48.259  1.00  0.00    -0.035 A 
HETATM   28  C   UNL     1       3.361  28.784  47.394  1.00  0.00     0.012 A 
HETATM   29  C   UNL     1       2.069  28.766  46.864  1.00  0.00     0.043 A 
HETATM   30  C   UNL     1       1.207  27.729  47.191  1.00  0.00     0.116 A 
HETATM   31  F   UNL     1      -0.031  27.712  46.681  1.00  0.00    -0.206 F 
HETATM   32  C   UNL     1       1.615  26.709  48.038  1.00  0.00     0.043 A 
HETATM   33  C   UNL     1       2.908  26.723  48.565  1.00  0.00     0.012 A 
ENDBRANCH   6  27
TORSDOF 5
ENDMDL
MODEL 7
REMARK VINA RESULT:      -8.9      4.157      8.064
REMARK  5 active torsions:
REMARK  status: ('A' for Active; 'I' for Inactive)
REMARK    1  A    between atoms: C_3  and  O_4 
REMARK    2  A    between atoms: C_6  and  N_7 
REMARK       I    between atoms: N_7  and  C_8 
REMARK    3  A    between atoms: C_8  and  C_9 
REMARK    4  A    between atoms: C_12  and  C_13 
REMARK    5  A    between atoms: C_18  and  C_19 
ROOT
HETATM    1  C   UNL     1       5.176  28.122  55.245  1.00  0.00     0.096 A 
HETATM    2  C   UNL     1       6.053  27.330  54.525  1.00  0.00     0.138 A 
HETATM    3  N   UNL     1       5.404  27.023  53.355  1.00  0.00    -0.240 N 
HETATM    4  C   UNL     1       5.951  26.203  52.293  1.00  0.00     0.221 C 
HETATM    5  C   UNL     1       7.473  26.050  52.464  1.00  0.00     0.066 C 
HETATM    6  C   UNL     1       7.935  25.866  53.920  1.00  0.00     0.118 C 
HETATM    7  N   UNL     1       7.301  26.860  54.789  1.00  0.00    -0.365 N 
HETATM    8  N   UNL     1       4.188  27.580  53.246  1.00  0.00    -0.181 NA
HETATM    9  C   UNL     1       4.030  28.206  54.418  1.00  0.00     0.160 A 
HETATM   10  H   UNL     1       7.607  26.784  55.763  1.00  0.00     0.161 HD
ENDROOT
BRANCH   1  11
HETATM   11  C   UNL     1       5.355  28.734  56.552  1.00  0.00     0.261 C 
HETATM   12  N   UNL     1       4.651  29.916  56.692  1.00  0.00    -0.323 N 
HETATM   13  H   UNL     1       3.996  30.117  55.944  1.00  0.00     0.169 HD
HETATM   14  O   UNL     1       6.033  28.188  57.412  1.00  0.00    -0.267 OA
BRANCH  12  15
HETATM   15  C   UNL     1       4.673  30.815  57.774  1.00  0.00     0.037 A 
HETATM   16  C   UNL     1       3.567  31.095  58.576  1.00  0.00     0.066 A 
HETATM   17  C   UNL     1       3.693  31.979  59.648  1.00  0.00     0.067 A 
HETATM   18  C   UNL     1       4.905  32.598  59.934  1.00  0.00     0.036 A 
HETATM   19  C   UNL     1       6.012  32.322  59.136  1.00  0.00     0.005 A 
HETATM   20  C   UNL     1       5.898  31.431  58.065  1.00  0.00     0.029 A 
BRANCH  17  21
HETATM   21  O   UNL     1       2.587  32.210  60.413  1.00  0.00    -0.361 OA
HETATM   22  H   UNL     1       2.716  33.031  60.913  1.00  0.00     0.217 HD
ENDBRANCH  17  21
ENDBRANCH  12  15
ENDBRANCH   1  11
BRANCH   4  23
HETATM   23  C   UNL     1       5.210  24.887  52.198  1.00  0.00     0.409 C 
HETATM   24  F   UNL     1       4.555  24.550  53.326  1.00  0.00    -0.169 F 
HETATM   25  F   UNL     1       4.313  24.875  51.187  1.00  0.00    -0.169 F 
HETATM   26  F   UNL     1       6.087  23.881  51.935  1.00  0.00    -0.169 F 
ENDBRANCH   4  23
BRANCH   6  27
HETATM   27  C   UNL     1       7.837  24.448  54.462  1.00  0.00    -0.035 A 
HETATM   28  C   UNL     1       7.324  24.252  55.760  1.00  0.00     0.012 A 
HETATM   29  C   UNL     1       7.194  22.968  56.295  1.00  0.00     0.043 A 
HETATM   30  C   UNL     1       7.574  21.868  55.539  1.00  0.00     0.116 A 
HETATM   31  F   UNL     1       7.448  20.637  56.053  1.00  0.00    -0.206 F 
HETATM   32  C   UNL     1       8.080  22.028  54.258  1.00  0.00     0.043 A 
HETATM   33  C   UNL     1       8.207  23.311  53.720  1.00  0.00     0.012 A 
ENDBRANCH   6  27
TORSDOF 5
ENDMDL
MODEL 8
REMARK VINA RESULT:      -8.7     10.817     14.508
REMARK  5 active torsions:
REMARK  status: ('A' for Active; 'I' for Inactive)
REMARK    1  A    between atoms: C_3  and  O_4 
REMARK    2  A    between atoms: C_6  and  N_7 
REMARK       I    between atoms: N_7  and  C_8 
REMARK    3  A    between atoms: C_8  and  C_9 
REMARK    4  A    between atoms: C_12  and  C_13 
REMARK    5  A    between atoms: C_18  and  C_19 
ROOT
HETATM    1  C   UNL     1       5.859  33.988  65.744  1.00  0.00     0.096 A 
HETATM    2  C   UNL     1       5.013  33.782  64.669  1.00  0.00     0.138 A 
HETATM    3  N   UNL     1       5.766  33.135  63.720  1.00  0.00    -0.240 N 
HETATM    4  C   UNL     1       5.283  32.721  62.418  1.00  0.00     0.221 C 
HETATM    5  C   UNL     1       3.744  32.742  62.386  1.00  0.00     0.066 C 
HETATM    6  C   UNL     1       3.108  33.935  63.120  1.00  0.00     0.118 C 
HETATM    7  N   UNL     1       3.712  34.104  64.444  1.00  0.00    -0.365 N 
HETATM    8  N   UNL     1       7.025  32.878  64.109  1.00  0.00    -0.181 NA
HETATM    9  C   UNL     1       7.094  33.442  65.319  1.00  0.00     0.160 A 
HETATM   10  H   UNL     1       3.293  34.874  64.972  1.00  0.00     0.161 HD
ENDROOT
BRANCH   1  11
HETATM   11  C   UNL     1       5.580  34.622  67.022  1.00  0.00     0.261 C 
HETATM   12  N   UNL     1       6.638  34.534  67.908  1.00  0.00    -0.323 N 
HETATM   13  H   UNL     1       7.504  34.187  67.509  1.00  0.00     0.169 HD
HETATM   14  O   UNL     1       4.517  35.197  67.217  1.00  0.00    -0.267 OA
BRANCH  12  15
HETATM   15  C   UNL     1       6.679  34.943  69.254  1.00  0.00     0.037 A 
HETATM   16  C   UNL     1       5.879  34.398  70.257  1.00  0.00     0.066 A 
HETATM   17  C   UNL     1       6.012  34.848  71.571  1.00  0.00     0.067 A 
HETATM   18  C   UNL     1       6.927  35.840  71.905  1.00  0.00     0.036 A 
HETATM   19  C   UNL     1       7.727  36.389  70.906  1.00  0.00     0.005 A 
HETATM   20  C   UNL     1       7.608  35.939  69.588  1.00  0.00     0.029 A 
BRANCH  17  21
HETATM   21  O   UNL     1       5.218  34.274  72.522  1.00  0.00    -0.361 OA
HETATM   22  H   UNL     1       5.780  33.814  73.165  1.00  0.00     0.217 HD
ENDBRANCH  17  21
ENDBRANCH  12  15
ENDBRANCH   1  11
BRANCH   4  23
HETATM   23  C   UNL     1       5.930  33.541  61.323  1.00  0.00     0.409 C 
HETATM   24  F   UNL     1       7.109  33.047  60.899  1.00  0.00    -0.169 F 
HETATM   25  F   UNL     1       5.131  33.673  60.241  1.00  0.00    -0.169 F 
HETATM   26  F   UNL     1       6.168  34.803  61.771  1.00  0.00    -0.169 F 
ENDBRANCH   4  23
BRANCH   6  27
HETATM   27  C   UNL     1       3.038  35.229  62.325  1.00  0.00    -0.035 A 
HETATM   28  C   UNL     1       3.513  36.417  62.917  1.00  0.00     0.012 A 
HETATM   29  C   UNL     1       3.491  37.627  62.221  1.00  0.00     0.043 A 
HETATM   30  C   UNL     1       2.995  37.664  60.925  1.00  0.00     0.116 A 
HETATM   31  F   UNL     1       2.975  38.825  60.258  1.00  0.00    -0.206 F 
HETATM   32  C   UNL     1       2.523  36.513  60.313  1.00  0.00     0.043 A 
HETATM   33  C   UNL     1       2.548  35.301  61.007  1.00  0.00     0.012 A 
ENDBRANCH   6  27
TORSDOF 5
ENDMDL
MODEL 9
REMARK VINA RESULT:      -8.7      3.892      6.417
REMARK  5 active torsions:
REMARK  status: ('A' for Active; 'I' for Inactive)
REMARK    1  A    between atoms: C_3  and  O_4 
REMARK    2  A    between atoms: C_6  and  N_7 
REMARK       I    between atoms: N_7  and  C_8 
REMARK    3  A    between atoms: C_8  and  C_9 
REMARK    4  A    between atoms: C_12  and  C_13 
REMARK    5  A    between atoms: C_18  and  C_19 
ROOT
HETATM    1  C   UNL     1       5.795  26.419  52.118  1.00  0.00     0.096 A 
HETATM    2  C   UNL     1       6.396  27.017  53.211  1.00  0.00     0.138 A 
HETATM    3  N   UNL     1       6.707  25.993  54.072  1.00  0.00    -0.240 N 
HETATM    4  C   UNL     1       7.353  26.159  55.359  1.00  0.00     0.221 C 
HETATM    5  C   UNL     1       7.990  27.556  55.463  1.00  0.00     0.066 C 
HETATM    6  C   UNL     1       7.146  28.688  54.853  1.00  0.00     0.118 C 
HETATM    7  N   UNL     1       6.670  28.312  53.520  1.00  0.00    -0.365 N 
HETATM    8  N   UNL     1       6.384  24.776  53.607  1.00  0.00    -0.181 NA
HETATM    9  C   UNL     1       5.784  25.041  52.442  1.00  0.00     0.160 A 
HETATM   10  H   UNL     1       6.126  29.055  53.073  1.00  0.00     0.161 HD
ENDROOT
BRANCH   1  11
HETATM   11  C   UNL     1       5.277  27.034  50.906  1.00  0.00     0.261 C 
HETATM   12  N   UNL     1       4.205  26.345  50.371  1.00  0.00    -0.323 N 
HETATM   13  H   UNL     1       3.828  25.610  50.960  1.00  0.00     0.169 HD
HETATM   14  O   UNL     1       5.754  28.078  50.480  1.00  0.00    -0.267 OA
BRANCH  12  15
HETATM   15  C   UNL     1       3.529  26.595  49.162  1.00  0.00     0.037 A 
HETATM   16  C   UNL     1       3.432  25.674  48.119  1.00  0.00     0.066 A 
HETATM   17  C   UNL     1       2.714  26.002  46.969  1.00  0.00     0.067 A 
HETATM   18  C   UNL     1       2.094  27.239  46.833  1.00  0.00     0.036 A 
HETATM   19  C   UNL     1       2.189  28.163  47.871  1.00  0.00     0.005 A 
HETATM   20  C   UNL     1       2.898  27.841  49.032  1.00  0.00     0.029 A 
BRANCH  17  21
HETATM   21  O   UNL     1       2.633  25.062  45.982  1.00  0.00    -0.361 OA
HETATM   22  H   UNL     1       3.524  24.885  45.643  1.00  0.00     0.217 HD
ENDBRANCH  17  21
ENDBRANCH  12  15
ENDBRANCH   1  11
BRANCH   4  23
HETATM   23  C   UNL     1       6.391  25.838  56.483  1.00  0.00     0.409 C 
HETATM   24  F   UNL     1       5.102  26.083  56.182  1.00  0.00    -0.169 F 
HETATM   25  F   UNL     1       6.480  24.549  56.882  1.00  0.00    -0.169 F 
HETATM   26  F   UNL     1       6.691  26.591  57.576  1.00  0.00    -0.169 F 
ENDBRANCH   4  23
BRANCH   6  27
HETATM   27  C   UNL     1       6.047  29.238  55.748  1.00  0.00    -0.035 A 
HETATM   28  C   UNL     1       6.407  29.849  56.967  1.00  0.00     0.012 A 
HETATM   29  C   UNL     1       5.437  30.389  57.815  1.00  0.00     0.043 A 
HETATM   30  C   UNL     1       4.098  30.325  57.454  1.00  0.00     0.116 A 
HETATM   31  F   UNL     1       3.169  30.844  58.267  1.00  0.00    -0.206 F 
HETATM   32  C   UNL     1       3.712  29.733  56.261  1.00  0.00     0.043 A 
HETATM   33  C   UNL     1       4.681  29.196  55.410  1.00  0.00     0.012 A 
ENDBRANCH   6  27
TORSDOF 5
ENDMDL
MODEL 10
REMARK VINA RESULT:      -8.6      2.828      4.642
REMARK  5 active torsions:
REMARK  status: ('A' for Active; 'I' for Inactive)
REMARK    1  A    between atoms: C_3  and  O_4 
REMARK    2  A    between atoms: C_6  and  N_7 
REMARK       I    between atoms: N_7  and  C_8 
REMARK    3  A    between atoms: C_8  and  C_9 
REMARK    4  A    between atoms: C_12  and  C_13 
REMARK    5  A    between atoms: C_18  and  C_19 
ROOT
HETATM    1  C   UNL     1       6.621  25.395  56.308  1.00  0.00     0.096 A 
HETATM    2  C   UNL     1       6.658  26.558  55.560  1.00  0.00     0.138 A 
HETATM    3  N   UNL     1       5.746  27.404  56.140  1.00  0.00    -0.240 N 
HETATM    4  C   UNL     1       5.449  28.746  55.679  1.00  0.00     0.221 C 
HETATM    5  C   UNL     1       6.546  29.239  54.719  1.00  0.00     0.066 C 
HETATM    6  C   UNL     1       7.068  28.168  53.745  1.00  0.00     0.118 C 
HETATM    7  N   UNL     1       7.370  26.926  54.461  1.00  0.00    -0.365 N 
HETATM    8  N   UNL     1       5.144  26.892  57.224  1.00  0.00    -0.181 NA
HETATM    9  C   UNL     1       5.639  25.652  57.294  1.00  0.00     0.160 A 
HETATM   10  H   UNL     1       7.746  26.199  53.847  1.00  0.00     0.161 HD
ENDROOT
BRANCH   1  11
HETATM   11  C   UNL     1       7.391  24.172  56.141  1.00  0.00     0.261 C 
HETATM   12  N   UNL     1       7.213  23.592  54.899  1.00  0.00    -0.323 N 
HETATM   13  H   UNL     1       6.707  24.159  54.228  1.00  0.00     0.169 HD
HETATM   14  O   UNL     1       8.135  23.775  57.027  1.00  0.00    -0.267 OA
BRANCH  12  15
HETATM   15  C   UNL     1       7.718  22.362  54.436  1.00  0.00     0.037 A 
HETATM   16  C   UNL     1       8.007  21.279  55.265  1.00  0.00     0.066 A 
HETATM   17  C   UNL     1       8.476  20.087  54.710  1.00  0.00     0.067 A 
HETATM   18  C   UNL     1       8.669  19.956  53.340  1.00  0.00     0.036 A 
HETATM   19  C   UNL     1       8.382  21.036  52.508  1.00  0.00     0.005 A 
HETATM   20  C   UNL     1       7.904  22.231  53.053  1.00  0.00     0.029 A 
BRANCH  17  21
HETATM   21  O   UNL     1       8.732  19.049  55.560  1.00  0.00    -0.361 OA
HETATM   22  H   UNL     1       8.132  19.109  56.319  1.00  0.00     0.217 HD
ENDBRANCH  17  21
ENDBRANCH  12  15
ENDBRANCH   1  11
BRANCH   4  23
HETATM   23  C   UNL     1       4.052  28.814  55.100  1.00  0.00     0.409 C 
HETATM   24  F   UNL     1       3.736  27.762  54.320  1.00  0.00    -0.169 F 
HETATM   25  F   UNL     1       3.103  28.910  56.058  1.00  0.00    -0.169 F 
HETATM   26  F   UNL     1       3.925  29.929  54.332  1.00  0.00    -0.169 F 
ENDBRANCH   4  23
BRANCH   6  27
HETATM   27  C   UNL     1       6.223  27.951  52.500  1.00  0.00    -0.035 A 
HETATM   28  C   UNL     1       5.967  26.631  52.075  1.00  0.00     0.012 A 
HETATM   29  C   UNL     1       5.179  26.378  50.950  1.00  0.00     0.043 A 
HETATM   30  C   UNL     1       4.638  27.439  50.239  1.00  0.00     0.116 A 
HETATM   31  F   UNL     1       3.881  27.195  49.160  1.00  0.00    -0.206 F 
HETATM   32  C   UNL     1       4.868  28.749  50.632  1.00  0.00     0.043 A 
HETATM   33  C   UNL     1       5.653  29.004  51.760  1.00  0.00     0.012 A 
ENDBRANCH   6  27
TORSDOF 5
ENDMDL
