MODEL 1
REMARK VINA RESULT:      -9.1      0.000      0.000
REMARK  6 active torsions:
REMARK  status: ('A' for Active; 'I' for Inactive)
REMARK    1  A    between atoms: C_2  and  O_3 
REMARK    2  A    between atoms: C_2  and  C_4 
REMARK    3  A    between atoms: C_7  and  N_8 
REMARK       I    between atoms: N_8  and  C_9 
REMARK    4  A    between atoms: C_9  and  C_10 
REMARK    5  A    between atoms: C_13  and  C_14 
REMARK    6  A    between atoms: C_19  and  C_20 
ROOT
HETATM    1  C   UNL     1       5.079  27.141  51.352  1.00  0.00     0.096 C 
HETATM    2  C   UNL     1       5.003  27.580  50.044  1.00  0.00     0.138 C 
HETATM    3  N   UNL     1       4.761  28.934  50.116  1.00  0.00    -0.240 N 
HETATM    4  C   UNL     1       4.570  29.801  48.965  1.00  0.00     0.221 C 
HETATM    5  C   UNL     1       4.991  29.080  47.669  1.00  0.00     0.068 C 
HETATM    6  C   UNL     1       4.508  27.623  47.659  1.00  0.00     0.143 C 
HETATM    7  N   UNL     1       5.080  26.944  48.840  1.00  0.00    -0.363 N 
HETATM    8  N   UNL     1       4.503  29.362  51.361  1.00  0.00    -0.181 NA
HETATM    9  C   UNL     1       4.725  28.281  52.113  1.00  0.00     0.160 C 
HETATM   10  H   UNL     1       4.889  25.940  48.819  1.00  0.00     0.162 HD
ENDROOT
BRANCH   1  11
HETATM   11  C   UNL     1       5.391  25.821  51.873  1.00  0.00     0.261 C 
HETATM   12  N   UNL     1       6.462  25.816  52.748  1.00  0.00    -0.323 N 
HETATM   13  H   UNL     1       6.831  26.729  52.991  1.00  0.00     0.169 HD
HETATM   14  O   UNL     1       4.699  24.857  51.570  1.00  0.00    -0.267 OA
BRANCH  12  15
HETATM   15  C   UNL     1       6.981  24.715  53.458  1.00  0.00     0.035 A 
HETATM   16  C   UNL     1       6.699  24.452  54.798  1.00  0.00     0.030 A 
HETATM   17  C   UNL     1       7.279  23.354  55.446  1.00  0.00     0.012 A 
HETATM   18  C   UNL     1       8.152  22.494  54.767  1.00  0.00    -0.030 A 
HETATM   19  C   UNL     1       8.420  22.754  53.417  1.00  0.00     0.012 A 
HETATM   20  C   UNL     1       7.833  23.846  52.767  1.00  0.00     0.030 A 
BRANCH  18  21
HETATM   21  C   UNL     1       8.810  21.352  55.511  1.00  0.00     0.147 C 
HETATM   22  C   UNL     1       8.722  20.052  54.720  1.00  0.00     0.044 C 
BRANCH  21  23
HETATM   23  O   UNL     1       8.194  21.166  56.785  1.00  0.00    -0.391 OA
HETATM   24  H   UNL     1       8.634  21.773  57.403  1.00  0.00     0.210 HD
ENDBRANCH  21  23
ENDBRANCH  18  21
ENDBRANCH  12  15
ENDBRANCH   1  11
BRANCH   4  25
HETATM   25  C   UNL     1       5.356  31.086  49.105  1.00  0.00     0.409 C 
HETATM   26  F   UNL     1       6.612  30.872  49.561  1.00  0.00    -0.169 F 
HETATM   27  F   UNL     1       5.486  31.677  47.886  1.00  0.00    -0.169 F 
HETATM   28  F   UNL     1       4.768  32.000  49.902  1.00  0.00    -0.169 F 
ENDBRANCH   4  25
BRANCH   6  29
HETATM   29  C   UNL     1       3.014  27.537  47.535  1.00  0.00     0.075 A 
HETATM   30  O   UNL     1       2.413  28.515  46.794  1.00  0.00    -0.325 OA
HETATM   31  C   UNL     1       1.077  28.275  46.826  1.00  0.00     0.142 A 
HETATM   32  C   UNL     1       0.808  27.154  47.573  1.00  0.00     0.027 A 
HETATM   33  C   UNL     1       2.058  26.674  48.030  1.00  0.00     0.037 A 
ENDBRANCH   6  29
TORSDOF 6
ENDMDL
MODEL 2
REMARK VINA RESULT:      -9.1      1.604      1.981
REMARK  6 active torsions:
REMARK  status: ('A' for Active; 'I' for Inactive)
REMARK    1  A    between atoms: C_2  and  O_3 
REMARK    2  A    between atoms: C_2  and  C_4 
REMARK    3  A    between atoms: C_7  and  N_8 
REMARK       I    between atoms: N_8  and  C_9 
REMARK    4  A    between atoms: C_9  and  C_10 
REMARK    5  A    between atoms: C_13  and  C_14 
REMARK    6  A    between atoms: C_19  and  C_20 
ROOT
HETATM    1  C   UNL     1       5.044  27.591  52.274  1.00  0.00     0.096 C 
HETATM    2  C   UNL     1       4.970  27.906  50.931  1.00  0.00     0.138 C 
HETATM    3  N   UNL     1       3.855  28.703  50.792  1.00  0.00    -0.240 N 
HETATM    4  C   UNL     1       3.373  29.238  49.530  1.00  0.00     0.221 C 
HETATM    5  C   UNL     1       4.438  29.068  48.429  1.00  0.00     0.068 C 
HETATM    6  C   UNL     1       5.108  27.689  48.508  1.00  0.00     0.143 C 
HETATM    7  N   UNL     1       5.718  27.554  49.846  1.00  0.00    -0.363 N 
HETATM    8  N   UNL     1       3.115  28.779  51.910  1.00  0.00    -0.181 NA
HETATM    9  C   UNL     1       3.851  28.129  52.814  1.00  0.00     0.160 C 
HETATM   10  H   UNL     1       6.281  26.702  49.913  1.00  0.00     0.162 HD
ENDROOT
BRANCH   1  11
HETATM   11  C   UNL     1       6.057  26.843  52.999  1.00  0.00     0.261 C 
HETATM   12  N   UNL     1       5.852  25.476  52.974  1.00  0.00    -0.323 N 
HETATM   13  H   UNL     1       5.090  25.161  52.384  1.00  0.00     0.169 HD
HETATM   14  O   UNL     1       7.004  27.424  53.514  1.00  0.00    -0.267 OA
BRANCH  12  15
HETATM   15  C   UNL     1       6.673  24.478  53.535  1.00  0.00     0.035 A 
HETATM   16  C   UNL     1       7.557  23.693  52.795  1.00  0.00     0.030 A 
HETATM   17  C   UNL     1       8.319  22.697  53.418  1.00  0.00     0.012 A 
HETATM   18  C   UNL     1       8.213  22.465  54.796  1.00  0.00    -0.030 A 
HETATM   19  C   UNL     1       7.335  23.264  55.537  1.00  0.00     0.012 A 
HETATM   20  C   UNL     1       6.580  24.267  54.915  1.00  0.00     0.030 A 
BRANCH  18  21
HETATM   21  C   UNL     1       9.003  21.340  55.430  1.00  0.00     0.147 C 
HETATM   22  C   UNL     1       8.786  20.025  54.689  1.00  0.00     0.044 C 
BRANCH  21  23
HETATM   23  O   UNL     1       8.626  21.173  56.796  1.00  0.00    -0.391 OA
HETATM   24  H   UNL     1       7.654  21.150  56.820  1.00  0.00     0.210 HD
ENDBRANCH  21  23
ENDBRANCH  18  21
ENDBRANCH  12  15
ENDBRANCH   1  11
BRANCH   4  25
HETATM   25  C   UNL     1       3.005  30.700  49.653  1.00  0.00     0.409 C 
HETATM   26  F   UNL     1       3.856  31.377  50.458  1.00  0.00    -0.169 F 
HETATM   27  F   UNL     1       3.077  31.294  48.431  1.00  0.00    -0.169 F 
HETATM   28  F   UNL     1       1.749  30.910  50.097  1.00  0.00    -0.169 F 
ENDBRANCH   4  25
BRANCH   6  29
HETATM   29  C   UNL     1       4.157  26.591  48.126  1.00  0.00     0.075 A 
HETATM   30  O   UNL     1       3.554  26.712  46.906  1.00  0.00    -0.325 OA
HETATM   31  C   UNL     1       2.724  25.647  46.764  1.00  0.00     0.142 A 
HETATM   32  C   UNL     1       2.787  24.837  47.873  1.00  0.00     0.027 A 
HETATM   33  C   UNL     1       3.714  25.444  48.752  1.00  0.00     0.037 A 
ENDBRANCH   6  29
TORSDOF 6
ENDMDL
MODEL 3
REMARK VINA RESULT:      -9.0      8.657     10.625
REMARK  6 active torsions:
REMARK  status: ('A' for Active; 'I' for Inactive)
REMARK    1  A    between atoms: C_2  and  O_3 
REMARK    2  A    between atoms: C_2  and  C_4 
REMARK    3  A    between atoms: C_7  and  N_8 
REMARK       I    between atoms: N_8  and  C_9 
REMARK    4  A    between atoms: C_9  and  C_10 
REMARK    5  A    between atoms: C_13  and  C_14 
REMARK    6  A    between atoms: C_19  and  C_20 
ROOT
HETATM    1  C   UNL     1       7.659  29.794  58.235  1.00  0.00     0.096 C 
HETATM    2  C   UNL     1       6.679  28.948  57.753  1.00  0.00     0.138 C 
HETATM    3  N   UNL     1       7.344  27.936  57.097  1.00  0.00    -0.240 N 
HETATM    4  C   UNL     1       6.696  26.836  56.401  1.00  0.00     0.221 C 
HETATM    5  C   UNL     1       5.199  26.775  56.763  1.00  0.00     0.068 C 
HETATM    6  C   UNL     1       4.575  28.176  56.798  1.00  0.00     0.143 C 
HETATM    7  N   UNL     1       5.316  28.982  57.789  1.00  0.00    -0.363 N 
HETATM    8  N   UNL     1       8.661  28.161  56.972  1.00  0.00    -0.181 NA
HETATM    9  C   UNL     1       8.855  29.272  57.686  1.00  0.00     0.160 C 
HETATM   10  H   UNL     1       4.866  29.889  57.940  1.00  0.00     0.162 HD
ENDROOT
BRANCH   1  11
HETATM   11  C   UNL     1       7.539  30.980  59.064  1.00  0.00     0.261 C 
HETATM   12  N   UNL     1       7.367  30.696  60.406  1.00  0.00    -0.323 N 
HETATM   13  H   UNL     1       7.442  29.716  60.657  1.00  0.00     0.169 HD
HETATM   14  O   UNL     1       7.642  32.095  58.567  1.00  0.00    -0.267 OA
BRANCH  12  15
HETATM   15  C   UNL     1       7.269  31.616  61.469  1.00  0.00     0.035 A 
HETATM   16  C   UNL     1       8.252  31.786  62.443  1.00  0.00     0.030 A 
HETATM   17  C   UNL     1       8.068  32.699  63.489  1.00  0.00     0.012 A 
HETATM   18  C   UNL     1       6.897  33.462  63.583  1.00  0.00    -0.030 A 
HETATM   19  C   UNL     1       5.919  33.298  62.595  1.00  0.00     0.012 A 
HETATM   20  C   UNL     1       6.107  32.393  61.544  1.00  0.00     0.030 A 
BRANCH  18  21
HETATM   21  C   UNL     1       6.702  34.394  64.759  1.00  0.00     0.147 C 
HETATM   22  C   UNL     1       5.711  33.818  65.764  1.00  0.00     0.044 C 
BRANCH  21  23
HETATM   23  O   UNL     1       6.230  35.666  64.316  1.00  0.00    -0.391 OA
HETATM   24  H   UNL     1       5.295  35.552  64.076  1.00  0.00     0.210 HD
ENDBRANCH  21  23
ENDBRANCH  18  21
ENDBRANCH  12  15
ENDBRANCH   1  11
BRANCH   4  25
HETATM   25  C   UNL     1       7.350  25.512  56.730  1.00  0.00     0.409 C 
HETATM   26  F   UNL     1       7.896  25.503  57.967  1.00  0.00    -0.169 F 
HETATM   27  F   UNL     1       6.413  24.525  56.716  1.00  0.00    -0.169 F 
HETATM   28  F   UNL     1       8.298  25.140  55.847  1.00  0.00    -0.169 F 
ENDBRANCH   4  25
BRANCH   6  29
HETATM   29  C   UNL     1       4.488  28.776  55.424  1.00  0.00     0.075 A 
HETATM   30  O   UNL     1       4.202  27.912  54.405  1.00  0.00    -0.325 OA
HETATM   31  C   UNL     1       4.195  28.637  53.257  1.00  0.00     0.142 A 
HETATM   32  C   UNL     1       4.467  29.958  53.521  1.00  0.00     0.027 A 
HETATM   33  C   UNL     1       4.654  30.050  54.920  1.00  0.00     0.037 A 
ENDBRANCH   6  29
TORSDOF 6
ENDMDL
MODEL 4
REMARK VINA RESULT:      -8.6      2.427      3.703
REMARK  6 active torsions:
REMARK  status: ('A' for Active; 'I' for Inactive)
REMARK    1  A    between atoms: C_2  and  O_3 
REMARK    2  A    between atoms: C_2  and  C_4 
REMARK    3  A    between atoms: C_7  and  N_8 
REMARK       I    between atoms: N_8  and  C_9 
REMARK    4  A    between atoms: C_9  and  C_10 
REMARK    5  A    between atoms: C_13  and  C_14 
REMARK    6  A    between atoms: C_19  and  C_20 
ROOT
HETATM    1  C   UNL     1       4.929  27.035  50.805  1.00  0.00     0.096 C 
HETATM    2  C   UNL     1       4.147  28.153  50.588  1.00  0.00     0.138 C 
HETATM    3  N   UNL     1       3.617  28.002  49.326  1.00  0.00    -0.240 N 
HETATM    4  C   UNL     1       2.755  28.971  48.670  1.00  0.00     0.221 C 
HETATM    5  C   UNL     1       2.256  30.023  49.681  1.00  0.00     0.068 C 
HETATM    6  C   UNL     1       3.381  30.465  50.627  1.00  0.00     0.143 C 
HETATM    7  N   UNL     1       3.886  29.268  51.329  1.00  0.00    -0.363 N 
HETATM    8  N   UNL     1       4.136  26.963  48.653  1.00  0.00    -0.181 NA
HETATM    9  C   UNL     1       4.909  26.362  49.560  1.00  0.00     0.160 C 
HETATM   10  H   UNL     1       4.556  29.522  52.059  1.00  0.00     0.162 HD
ENDROOT
BRANCH   1  11
HETATM   11  C   UNL     1       5.662  26.629  51.992  1.00  0.00     0.261 C 
HETATM   12  N   UNL     1       5.643  25.264  52.209  1.00  0.00    -0.323 N 
HETATM   13  H   UNL     1       5.211  24.712  51.475  1.00  0.00     0.169 HD
HETATM   14  O   UNL     1       6.263  27.461  52.662  1.00  0.00    -0.267 OA
BRANCH  12  15
HETATM   15  C   UNL     1       6.294  24.552  53.236  1.00  0.00     0.035 A 
HETATM   16  C   UNL     1       6.084  24.782  54.595  1.00  0.00     0.030 A 
HETATM   17  C   UNL     1       6.793  24.054  55.559  1.00  0.00     0.012 A 
HETATM   18  C   UNL     1       7.728  23.081  55.183  1.00  0.00    -0.030 A 
HETATM   19  C   UNL     1       7.925  22.843  53.818  1.00  0.00     0.012 A 
HETATM   20  C   UNL     1       7.209  23.564  52.855  1.00  0.00     0.030 A 
BRANCH  18  21
HETATM   21  C   UNL     1       8.523  22.355  56.247  1.00  0.00     0.147 C 
HETATM   22  C   UNL     1       8.135  20.883  56.320  1.00  0.00     0.044 C 
BRANCH  21  23
HETATM   23  O   UNL     1       8.314  22.956  57.524  1.00  0.00    -0.391 OA
HETATM   24  H   UNL     1       9.106  22.771  58.057  1.00  0.00     0.210 HD
ENDBRANCH  21  23
ENDBRANCH  18  21
ENDBRANCH  12  15
ENDBRANCH   1  11
BRANCH   4  25
HETATM   25  C   UNL     1       1.568  28.301  48.013  1.00  0.00     0.409 C 
HETATM   26  F   UNL     1       1.029  27.334  48.792  1.00  0.00    -0.169 F 
HETATM   27  F   UNL     1       0.585  29.217  47.802  1.00  0.00    -0.169 F 
HETATM   28  F   UNL     1       1.845  27.765  46.807  1.00  0.00    -0.169 F 
ENDBRANCH   4  25
BRANCH   6  29
HETATM   29  C   UNL     1       4.424  31.269  49.905  1.00  0.00     0.075 A 
HETATM   30  O   UNL     1       3.963  32.193  49.010  1.00  0.00    -0.325 OA
HETATM   31  C   UNL     1       5.050  32.786  48.453  1.00  0.00     0.142 A 
HETATM   32  C   UNL     1       6.206  32.262  48.978  1.00  0.00     0.027 A 
HETATM   33  C   UNL     1       5.804  31.284  49.918  1.00  0.00     0.037 A 
ENDBRANCH   6  29
TORSDOF 6
ENDMDL
MODEL 5
REMARK VINA RESULT:      -8.2      3.014      4.280
REMARK  6 active torsions:
REMARK  status: ('A' for Active; 'I' for Inactive)
REMARK    1  A    between atoms: C_2  and  O_3 
REMARK    2  A    between atoms: C_2  and  C_4 
REMARK    3  A    between atoms: C_7  and  N_8 
REMARK       I    between atoms: N_8  and  C_9 
REMARK    4  A    between atoms: C_9  and  C_10 
REMARK    5  A    between atoms: C_13  and  C_14 
REMARK    6  A    between atoms: C_19  and  C_20 
ROOT
HETATM    1  C   UNL     1       4.091  27.210  49.202  1.00  0.00     0.096 C 
HETATM    2  C   UNL     1       3.288  28.265  48.813  1.00  0.00     0.138 C 
HETATM    3  N   UNL     1       2.572  27.812  47.727  1.00  0.00    -0.240 N 
HETATM    4  C   UNL     1       1.622  28.612  46.970  1.00  0.00     0.221 C 
HETATM    5  C   UNL     1       1.286  29.912  47.728  1.00  0.00     0.068 C 
HETATM    6  C   UNL     1       2.543  30.538  48.348  1.00  0.00     0.143 C 
HETATM    7  N   UNL     1       3.145  29.545  49.261  1.00  0.00    -0.363 N 
HETATM    8  N   UNL     1       2.980  26.612  47.285  1.00  0.00    -0.181 NA
HETATM    9  C   UNL     1       3.880  26.236  48.196  1.00  0.00     0.160 C 
HETATM   10  H   UNL     1       3.919  29.952  49.793  1.00  0.00     0.162 HD
ENDROOT
BRANCH   1  11
HETATM   11  C   UNL     1       4.995  27.098  50.333  1.00  0.00     0.261 C 
HETATM   12  N   UNL     1       5.057  25.822  50.861  1.00  0.00    -0.323 N 
HETATM   13  H   UNL     1       4.549  25.111  50.345  1.00  0.00     0.169 HD
HETATM   14  O   UNL     1       5.650  28.066  50.700  1.00  0.00    -0.267 OA
BRANCH  12  15
HETATM   15  C   UNL     1       5.870  25.374  51.922  1.00  0.00     0.035 A 
HETATM   16  C   UNL     1       7.237  25.127  51.803  1.00  0.00     0.030 A 
HETATM   17  C   UNL     1       7.973  24.651  52.896  1.00  0.00     0.012 A 
HETATM   18  C   UNL     1       7.357  24.413  54.131  1.00  0.00    -0.030 A 
HETATM   19  C   UNL     1       5.987  24.677  54.250  1.00  0.00     0.012 A 
HETATM   20  C   UNL     1       5.253  25.161  53.160  1.00  0.00     0.030 A 
BRANCH  18  21
HETATM   21  C   UNL     1       8.166  23.841  55.275  1.00  0.00     0.147 C 
HETATM   22  C   UNL     1       8.651  22.431  54.958  1.00  0.00     0.044 C 
BRANCH  21  23
HETATM   23  O   UNL     1       7.388  23.810  56.471  1.00  0.00    -0.391 OA
HETATM   24  H   UNL     1       7.403  22.893  56.794  1.00  0.00     0.210 HD
ENDBRANCH  21  23
ENDBRANCH  18  21
ENDBRANCH  12  15
ENDBRANCH   1  11
BRANCH   4  25
HETATM   25  C   UNL     1       0.348  27.845  46.695  1.00  0.00     0.409 C 
HETATM   26  F   UNL     1       0.003  27.038  47.724  1.00  0.00    -0.169 F 
HETATM   27  F   UNL     1      -0.683  28.717  46.528  1.00  0.00    -0.169 F 
HETATM   28  F   UNL     1       0.393  27.100  45.572  1.00  0.00    -0.169 F 
ENDBRANCH   4  25
BRANCH   6  29
HETATM   29  C   UNL     1       3.467  31.079  47.295  1.00  0.00     0.075 A 
HETATM   30  O   UNL     1       4.451  31.921  47.730  1.00  0.00    -0.325 OA
HETATM   31  C   UNL     1       5.152  32.314  46.635  1.00  0.00     0.142 A 
HETATM   32  C   UNL     1       4.637  31.735  45.501  1.00  0.00     0.027 A 
HETATM   33  C   UNL     1       3.550  30.934  45.925  1.00  0.00     0.037 A 
ENDBRANCH   6  29
TORSDOF 6
ENDMDL
MODEL 6
REMARK VINA RESULT:      -8.0      6.614      8.213
REMARK  6 active torsions:
REMARK  status: ('A' for Active; 'I' for Inactive)
REMARK    1  A    between atoms: C_2  and  O_3 
REMARK    2  A    between atoms: C_2  and  C_4 
REMARK    3  A    between atoms: C_7  and  N_8 
REMARK       I    between atoms: N_8  and  C_9 
REMARK    4  A    between atoms: C_9  and  C_10 
REMARK    5  A    between atoms: C_13  and  C_14 
REMARK    6  A    between atoms: C_19  and  C_20 
ROOT
HETATM    1  C   UNL     1       6.838  28.614  55.894  1.00  0.00     0.096 C 
HETATM    2  C   UNL     1       6.071  27.842  55.042  1.00  0.00     0.138 C 
HETATM    3  N   UNL     1       6.947  27.326  54.112  1.00  0.00    -0.240 N 
HETATM    4  C   UNL     1       6.561  26.478  52.996  1.00  0.00     0.221 C 
HETATM    5  C   UNL     1       5.115  25.976  53.173  1.00  0.00     0.068 C 
HETATM    6  C   UNL     1       4.194  27.093  53.682  1.00  0.00     0.143 C 
HETATM    7  N   UNL     1       4.735  27.580  54.967  1.00  0.00    -0.363 N 
HETATM    8  N   UNL     1       8.181  27.846  54.199  1.00  0.00    -0.181 NA
HETATM    9  C   UNL     1       8.121  28.604  55.296  1.00  0.00     0.160 C 
HETATM   10  H   UNL     1       4.095  28.244  55.411  1.00  0.00     0.162 HD
ENDROOT
BRANCH   1  11
HETATM   11  C   UNL     1       6.455  29.330  57.098  1.00  0.00     0.261 C 
HETATM   12  N   UNL     1       7.520  29.931  57.742  1.00  0.00    -0.323 N 
HETATM   13  H   UNL     1       8.408  29.882  57.254  1.00  0.00     0.169 HD
HETATM   14  O   UNL     1       5.277  29.402  57.426  1.00  0.00    -0.267 OA
BRANCH  12  15
HETATM   15  C   UNL     1       7.478  30.735  58.899  1.00  0.00     0.035 A 
HETATM   16  C   UNL     1       8.334  30.575  59.988  1.00  0.00     0.030 A 
HETATM   17  C   UNL     1       8.210  31.393  61.118  1.00  0.00     0.012 A 
HETATM   18  C   UNL     1       7.227  32.389  61.182  1.00  0.00    -0.030 A 
HETATM   19  C   UNL     1       6.379  32.556  60.080  1.00  0.00     0.012 A 
HETATM   20  C   UNL     1       6.510  31.744  58.947  1.00  0.00     0.030 A 
BRANCH  18  21
HETATM   21  C   UNL     1       7.078  33.216  62.441  1.00  0.00     0.147 C 
HETATM   22  C   UNL     1       7.936  32.661  63.572  1.00  0.00     0.044 C 
BRANCH  21  23
HETATM   23  O   UNL     1       5.715  33.245  62.861  1.00  0.00    -0.391 OA
HETATM   24  H   UNL     1       5.176  33.004  62.089  1.00  0.00     0.210 HD
ENDBRANCH  21  23
ENDBRANCH  18  21
ENDBRANCH  12  15
ENDBRANCH   1  11
BRANCH   4  25
HETATM   25  C   UNL     1       7.492  25.295  52.852  1.00  0.00     0.409 C 
HETATM   26  F   UNL     1       6.892  24.239  52.257  1.00  0.00    -0.169 F 
HETATM   27  F   UNL     1       8.545  25.635  52.060  1.00  0.00    -0.169 F 
HETATM   28  F   UNL     1       8.023  24.876  54.019  1.00  0.00    -0.169 F 
ENDBRANCH   4  25
BRANCH   6  29
HETATM   29  C   UNL     1       3.979  28.150  52.638  1.00  0.00     0.075 A 
HETATM   30  O   UNL     1       4.179  27.768  51.342  1.00  0.00    -0.325 OA
HETATM   31  C   UNL     1       3.962  28.861  50.566  1.00  0.00     0.142 A 
HETATM   32  C   UNL     1       3.620  29.942  51.342  1.00  0.00     0.027 A 
HETATM   33  C   UNL     1       3.627  29.484  52.680  1.00  0.00     0.037 A 
ENDBRANCH   6  29
TORSDOF 6
ENDMDL
MODEL 7
REMARK VINA RESULT:      -8.0      3.726      9.084
REMARK  6 active torsions:
REMARK  status: ('A' for Active; 'I' for Inactive)
REMARK    1  A    between atoms: C_2  and  O_3 
REMARK    2  A    between atoms: C_2  and  C_4 
REMARK    3  A    between atoms: C_7  and  N_8 
REMARK       I    between atoms: N_8  and  C_9 
REMARK    4  A    between atoms: C_9  and  C_10 
REMARK    5  A    between atoms: C_13  and  C_14 
REMARK    6  A    between atoms: C_19  and  C_20 
ROOT
HETATM    1  C   UNL     1       4.993  26.508  50.951  1.00  0.00     0.096 C 
HETATM    2  C   UNL     1       5.849  26.817  51.991  1.00  0.00     0.138 C 
HETATM    3  N   UNL     1       6.028  25.644  52.691  1.00  0.00    -0.240 N 
HETATM    4  C   UNL     1       6.833  25.515  53.895  1.00  0.00     0.221 C 
HETATM    5  C   UNL     1       7.706  26.769  54.098  1.00  0.00     0.068 C 
HETATM    6  C   UNL     1       6.921  28.052  53.796  1.00  0.00     0.143 C 
HETATM    7  N   UNL     1       6.439  27.976  52.402  1.00  0.00    -0.363 N 
HETATM    8  N   UNL     1       5.218  24.654  52.285  1.00  0.00    -0.181 NA
HETATM    9  C   UNL     1       4.613  25.170  51.212  1.00  0.00     0.160 C 
HETATM   10  H   UNL     1       6.010  28.857  52.109  1.00  0.00     0.162 HD
ENDROOT
BRANCH   1  11
HETATM   11  C   UNL     1       4.522  27.339  49.856  1.00  0.00     0.261 C 
HETATM   12  N   UNL     1       3.181  27.163  49.572  1.00  0.00    -0.323 N 
HETATM   13  H   UNL     1       2.675  26.560  50.212  1.00  0.00     0.169 HD
HETATM   14  O   UNL     1       5.278  28.137  49.316  1.00  0.00    -0.267 OA
BRANCH  12  15
HETATM   15  C   UNL     1       2.413  27.849  48.609  1.00  0.00     0.035 A 
HETATM   16  C   UNL     1       2.213  29.229  48.615  1.00  0.00     0.030 A 
HETATM   17  C   UNL     1       1.410  29.836  47.641  1.00  0.00     0.012 A 
HETATM   18  C   UNL     1       0.790  29.076  46.641  1.00  0.00    -0.030 A 
HETATM   19  C   UNL     1       1.006  27.693  46.631  1.00  0.00     0.012 A 
HETATM   20  C   UNL     1       1.817  27.087  47.598  1.00  0.00     0.030 A 
BRANCH  18  21
HETATM   21  C   UNL     1      -0.121  29.754  45.640  1.00  0.00     0.147 C 
HETATM   22  C   UNL     1      -1.406  30.239  46.303  1.00  0.00     0.044 C 
BRANCH  21  23
HETATM   23  O   UNL     1      -0.453  28.857  44.581  1.00  0.00    -0.391 OA
HETATM   24  H   UNL     1      -0.384  27.957  44.940  1.00  0.00     0.210 HD
ENDBRANCH  21  23
ENDBRANCH  18  21
ENDBRANCH  12  15
ENDBRANCH   1  11
BRANCH   4  25
HETATM   25  C   UNL     1       7.715  24.288  53.842  1.00  0.00     0.409 C 
HETATM   26  F   UNL     1       8.380  24.186  52.668  1.00  0.00    -0.169 F 
HETATM   27  F   UNL     1       8.663  24.365  54.815  1.00  0.00    -0.169 F 
HETATM   28  F   UNL     1       7.054  23.133  54.054  1.00  0.00    -0.169 F 
ENDBRANCH   4  25
BRANCH   6  29
HETATM   29  C   UNL     1       5.858  28.304  54.826  1.00  0.00     0.075 A 
HETATM   30  O   UNL     1       6.258  28.250  56.132  1.00  0.00    -0.325 OA
HETATM   31  C   UNL     1       5.157  28.476  56.895  1.00  0.00     0.142 A 
HETATM   32  C   UNL     1       4.055  28.679  56.101  1.00  0.00     0.027 A 
HETATM   33  C   UNL     1       4.505  28.571  54.765  1.00  0.00     0.037 A 
ENDBRANCH   6  29
TORSDOF 6
ENDMDL
MODEL 8
REMARK VINA RESULT:      -7.8     12.496     14.355
REMARK  6 active torsions:
REMARK  status: ('A' for Active; 'I' for Inactive)
REMARK    1  A    between atoms: C_2  and  O_3 
REMARK    2  A    between atoms: C_2  and  C_4 
REMARK    3  A    between atoms: C_7  and  N_8 
REMARK       I    between atoms: N_8  and  C_9 
REMARK    4  A    between atoms: C_9  and  C_10 
REMARK    5  A    between atoms: C_13  and  C_14 
REMARK    6  A    between atoms: C_19  and  C_20 
ROOT
HETATM    1  C   UNL     1       6.235  33.058  63.077  1.00  0.00     0.096 C 
HETATM    2  C   UNL     1       5.940  34.380  63.348  1.00  0.00     0.138 C 
HETATM    3  N   UNL     1       4.854  34.358  64.195  1.00  0.00    -0.240 N 
HETATM    4  C   UNL     1       4.182  35.540  64.709  1.00  0.00     0.221 C 
HETATM    5  C   UNL     1       5.030  36.800  64.448  1.00  0.00     0.068 C 
HETATM    6  C   UNL     1       5.644  36.779  63.042  1.00  0.00     0.143 C 
HETATM    7  N   UNL     1       6.473  35.562  62.923  1.00  0.00    -0.363 N 
HETATM    8  N   UNL     1       4.324  33.134  64.346  1.00  0.00    -0.181 NA
HETATM    9  C   UNL     1       5.179  32.344  63.692  1.00  0.00     0.160 C 
HETATM   10  H   UNL     1       7.001  35.557  62.047  1.00  0.00     0.162 HD
ENDROOT
BRANCH   1  11
HETATM   11  C   UNL     1       7.326  32.487  62.305  1.00  0.00     0.261 C 
HETATM   12  N   UNL     1       6.998  32.253  60.983  1.00  0.00    -0.323 N 
HETATM   13  H   UNL     1       6.086  32.590  60.694  1.00  0.00     0.169 HD
HETATM   14  O   UNL     1       8.422  32.308  62.823  1.00  0.00    -0.267 OA
BRANCH  12  15
HETATM   15  C   UNL     1       7.841  31.757  59.968  1.00  0.00     0.035 A 
HETATM   16  C   UNL     1       7.471  30.756  59.071  1.00  0.00     0.030 A 
HETATM   17  C   UNL     1       8.376  30.292  58.109  1.00  0.00     0.012 A 
HETATM   18  C   UNL     1       9.671  30.820  58.022  1.00  0.00    -0.030 A 
HETATM   19  C   UNL     1      10.033  31.835  58.916  1.00  0.00     0.012 A 
HETATM   20  C   UNL     1       9.125  32.306  59.872  1.00  0.00     0.030 A 
BRANCH  18  21
HETATM   21  C   UNL     1      10.645  30.254  57.012  1.00  0.00     0.147 C 
HETATM   22  C   UNL     1      10.261  28.836  56.606  1.00  0.00     0.044 C 
BRANCH  21  23
HETATM   23  O   UNL     1      11.968  30.244  57.546  1.00  0.00    -0.391 OA
HETATM   24  H   UNL     1      12.499  30.846  56.999  1.00  0.00     0.210 HD
ENDBRANCH  21  23
ENDBRANCH  18  21
ENDBRANCH  12  15
ENDBRANCH   1  11
BRANCH   4  25
HETATM   25  C   UNL     1       3.903  35.417  66.191  1.00  0.00     0.409 C 
HETATM   26  F   UNL     1       4.704  34.505  66.789  1.00  0.00    -0.169 F 
HETATM   27  F   UNL     1       4.152  36.607  66.802  1.00  0.00    -0.169 F 
HETATM   28  F   UNL     1       2.623  35.108  66.480  1.00  0.00    -0.169 F 
ENDBRANCH   4  25
BRANCH   6  29
HETATM   29  C   UNL     1       4.596  36.944  61.980  1.00  0.00     0.075 A 
HETATM   30  O   UNL     1       3.905  38.123  61.991  1.00  0.00    -0.325 OA
HETATM   31  C   UNL     1       2.998  38.063  60.981  1.00  0.00     0.142 A 
HETATM   32  C   UNL     1       3.097  36.865  60.316  1.00  0.00     0.027 A 
HETATM   33  C   UNL     1       4.130  36.142  60.957  1.00  0.00     0.037 A 
ENDBRANCH   6  29
TORSDOF 6
ENDMDL
MODEL 9
REMARK VINA RESULT:      -7.5      6.467      8.566
REMARK  6 active torsions:
REMARK  status: ('A' for Active; 'I' for Inactive)
REMARK    1  A    between atoms: C_2  and  O_3 
REMARK    2  A    between atoms: C_2  and  C_4 
REMARK    3  A    between atoms: C_7  and  N_8 
REMARK       I    between atoms: N_8  and  C_9 
REMARK    4  A    between atoms: C_9  and  C_10 
REMARK    5  A    between atoms: C_13  and  C_14 
REMARK    6  A    between atoms: C_19  and  C_20 
ROOT
HETATM    1  C   UNL     1       6.069  28.901  55.487  1.00  0.00     0.096 C 
HETATM    2  C   UNL     1       5.534  27.953  54.636  1.00  0.00     0.138 C 
HETATM    3  N   UNL     1       6.544  27.048  54.398  1.00  0.00    -0.240 N 
HETATM    4  C   UNL     1       6.431  25.895  53.519  1.00  0.00     0.221 C 
HETATM    5  C   UNL     1       4.956  25.641  53.149  1.00  0.00     0.068 C 
HETATM    6  C   UNL     1       4.222  26.954  52.843  1.00  0.00     0.143 C 
HETATM    7  N   UNL     1       4.316  27.819  54.036  1.00  0.00    -0.363 N 
HETATM    8  N   UNL     1       7.731  27.437  54.888  1.00  0.00    -0.181 NA
HETATM    9  C   UNL     1       7.436  28.544  55.573  1.00  0.00     0.160 C 
HETATM   10  H   UNL     1       3.742  28.659  53.930  1.00  0.00     0.162 HD
ENDROOT
BRANCH   1  11
HETATM   11  C   UNL     1       5.435  30.042  56.125  1.00  0.00     0.261 C 
HETATM   12  N   UNL     1       5.630  30.084  57.493  1.00  0.00    -0.323 N 
HETATM   13  H   UNL     1       6.261  29.381  57.865  1.00  0.00     0.169 HD
HETATM   14  O   UNL     1       4.846  30.879  55.451  1.00  0.00    -0.267 OA
BRANCH  12  15
HETATM   15  C   UNL     1       5.192  31.079  58.389  1.00  0.00     0.035 A 
HETATM   16  C   UNL     1       6.041  31.996  59.007  1.00  0.00     0.030 A 
HETATM   17  C   UNL     1       5.534  32.937  59.913  1.00  0.00     0.012 A 
HETATM   18  C   UNL     1       4.168  32.981  60.219  1.00  0.00    -0.030 A 
HETATM   19  C   UNL     1       3.318  32.068  59.585  1.00  0.00     0.012 A 
HETATM   20  C   UNL     1       3.822  31.133  58.672  1.00  0.00     0.030 A 
BRANCH  18  21
HETATM   21  C   UNL     1       3.661  33.969  61.248  1.00  0.00     0.147 C 
HETATM   22  C   UNL     1       4.765  34.370  62.220  1.00  0.00     0.044 C 
BRANCH  21  23
HETATM   23  O   UNL     1       2.573  33.410  61.982  1.00  0.00    -0.391 OA
HETATM   24  H   UNL     1       1.760  33.819  61.639  1.00  0.00     0.210 HD
ENDBRANCH  21  23
ENDBRANCH  18  21
ENDBRANCH  12  15
ENDBRANCH   1  11
BRANCH   4  25
HETATM   25  C   UNL     1       7.012  24.654  54.158  1.00  0.00     0.409 C 
HETATM   26  F   UNL     1       6.704  24.561  55.472  1.00  0.00    -0.169 F 
HETATM   27  F   UNL     1       6.492  23.547  53.562  1.00  0.00    -0.169 F 
HETATM   28  F   UNL     1       8.351  24.552  54.030  1.00  0.00    -0.169 F 
ENDBRANCH   4  25
BRANCH   6  29
HETATM   29  C   UNL     1       4.711  27.573  51.565  1.00  0.00     0.075 A 
HETATM   30  O   UNL     1       4.949  28.918  51.599  1.00  0.00    -0.325 OA
HETATM   31  C   UNL     1       5.353  29.283  50.354  1.00  0.00     0.142 A 
HETATM   32  C   UNL     1       5.384  28.192  49.520  1.00  0.00     0.027 A 
HETATM   33  C   UNL     1       4.972  27.086  50.300  1.00  0.00     0.037 A 
ENDBRANCH   6  29
TORSDOF 6
ENDMDL
MODEL 10
REMARK VINA RESULT:      -7.4      1.793      2.492
REMARK  6 active torsions:
REMARK  status: ('A' for Active; 'I' for Inactive)
REMARK    1  A    between atoms: C_2  and  O_3 
REMARK    2  A    between atoms: C_2  and  C_4 
REMARK    3  A    between atoms: C_7  and  N_8 
REMARK       I    between atoms: N_8  and  C_9 
REMARK    4  A    between atoms: C_9  and  C_10 
REMARK    5  A    between atoms: C_13  and  C_14 
REMARK    6  A    between atoms: C_19  and  C_20 
ROOT
HETATM    1  C   UNL     1       4.951  27.791  52.462  1.00  0.00     0.096 C 
HETATM    2  C   UNL     1       4.696  28.695  51.448  1.00  0.00     0.138 C 
HETATM    3  N   UNL     1       3.799  29.602  51.969  1.00  0.00    -0.240 N 
HETATM    4  C   UNL     1       3.225  30.714  51.230  1.00  0.00     0.221 C 
HETATM    5  C   UNL     1       3.986  30.934  49.907  1.00  0.00     0.068 C 
HETATM    6  C   UNL     1       4.308  29.600  49.220  1.00  0.00     0.143 C 
HETATM    7  N   UNL     1       5.115  28.788  50.154  1.00  0.00    -0.363 N 
HETATM    8  N   UNL     1       3.329  29.250  53.176  1.00  0.00    -0.181 NA
HETATM    9  C   UNL     1       4.048  28.168  53.485  1.00  0.00     0.160 C 
HETATM   10  H   UNL     1       5.459  27.937  49.702  1.00  0.00     0.162 HD
ENDROOT
BRANCH   1  11
HETATM   11  C   UNL     1       5.875  26.671  52.499  1.00  0.00     0.261 C 
HETATM   12  N   UNL     1       5.703  25.853  53.600  1.00  0.00    -0.323 N 
HETATM   13  H   UNL     1       4.905  26.075  54.187  1.00  0.00     0.169 HD
HETATM   14  O   UNL     1       6.669  26.494  51.582  1.00  0.00    -0.267 OA
BRANCH  12  15
HETATM   15  C   UNL     1       6.400  24.666  53.901  1.00  0.00     0.035 A 
HETATM   16  C   UNL     1       6.862  23.771  52.937  1.00  0.00     0.030 A 
HETATM   17  C   UNL     1       7.520  22.594  53.316  1.00  0.00     0.012 A 
HETATM   18  C   UNL     1       7.729  22.287  54.667  1.00  0.00    -0.030 A 
HETATM   19  C   UNL     1       7.276  23.196  55.630  1.00  0.00     0.012 A 
HETATM   20  C   UNL     1       6.627  24.377  55.252  1.00  0.00     0.030 A 
BRANCH  18  21
HETATM   21  C   UNL     1       8.388  20.978  55.045  1.00  0.00     0.147 C 
HETATM   22  C   UNL     1       7.612  20.267  56.149  1.00  0.00     0.044 C 
BRANCH  21  23
HETATM   23  O   UNL     1       9.726  21.201  55.486  1.00  0.00    -0.391 OA
HETATM   24  H   UNL     1       9.684  21.868  56.192  1.00  0.00     0.210 HD
ENDBRANCH  21  23
ENDBRANCH  18  21
ENDBRANCH  12  15
ENDBRANCH   1  11
BRANCH   4  25
HETATM   25  C   UNL     1       3.249  31.989  52.043  1.00  0.00     0.409 C 
HETATM   26  F   UNL     1       3.197  33.095  51.265  1.00  0.00    -0.169 F 
HETATM   27  F   UNL     1       2.154  32.036  52.850  1.00  0.00    -0.169 F 
HETATM   28  F   UNL     1       4.318  32.096  52.857  1.00  0.00    -0.169 F 
ENDBRANCH   4  25
BRANCH   6  29
HETATM   29  C   UNL     1       3.067  28.933  48.702  1.00  0.00     0.075 A 
HETATM   30  O   UNL     1       3.034  27.569  48.787  1.00  0.00    -0.325 OA
HETATM   31  C   UNL     1       1.855  27.164  48.249  1.00  0.00     0.142 A 
HETATM   32  C   UNL     1       1.124  28.247  47.822  1.00  0.00     0.027 A 
HETATM   33  C   UNL     1       1.904  29.390  48.116  1.00  0.00     0.037 A 
ENDBRANCH   6  29
TORSDOF 6
ENDMDL
