MODEL 1
REMARK VINA RESULT:      -9.4      0.000      0.000
REMARK  2 active torsions:
REMARK  status: ('A' for Active; 'I' for Inactive)
REMARK    1  A    between atoms: C_2  and  N_3 
REMARK    2  A    between atoms: N_3  and  C_4 
ROOT
HETATM    1  N   UNL     1       7.594  27.250  54.612  1.00  0.00    -0.340 N 
HETATM    2  H   UNL     1       8.242  27.854  54.129  1.00  0.00     0.167 HD
ENDROOT
BRANCH   1   3
HETATM    3  C   UNL     1       7.595  25.920  54.161  1.00  0.00     0.036 A 
HETATM    4  C   UNL     1       7.789  25.559  52.822  1.00  0.00     0.032 A 
HETATM    5  C   UNL     1       7.807  24.215  52.429  1.00  0.00     0.042 A 
HETATM    6  C   UNL     1       7.680  23.208  53.380  1.00  0.00     0.102 A 
HETATM    7  C   UNL     1       7.500  23.545  54.720  1.00  0.00     0.104 A 
HETATM    8  O   UNL     1       7.643  21.921  52.918  1.00  0.00    -0.348 OA
HETATM    9  C   UNL     1       7.441  24.889  55.102  1.00  0.00     0.069 A 
HETATM   10  O   UNL     1       7.285  22.617  55.703  1.00  0.00    -0.348 OA
HETATM   11  C   UNL     1       8.400  21.738  55.863  1.00  0.00     0.178 C 
HETATM   12  C   UNL     1       8.392  20.611  54.841  1.00  0.00     0.053 C 
HETATM   13  C   UNL     1       8.708  21.131  53.447  1.00  0.00     0.178 C 
ENDBRANCH   1   3
BRANCH   1  14
HETATM   14  C   UNL     1       6.824  27.908  55.582  1.00  0.00     0.143 A 
HETATM   15  N   UNL     1       5.489  27.694  55.675  1.00  0.00    -0.223 NA
HETATM   16  C   UNL     1       4.769  28.377  56.577  1.00  0.00     0.236 A 
HETATM   17  N   UNL     1       5.205  29.290  57.446  1.00  0.00    -0.234 NA
HETATM   18  C   UNL     1       6.529  29.487  57.348  1.00  0.00     0.114 A 
HETATM   19  C   UNL     1       7.402  28.849  56.464  1.00  0.00     0.053 A 
HETATM   20  S   UNL     1       7.310  30.629  58.373  1.00  0.00    -0.073 SA
HETATM   21  C   UNL     1       8.726  29.329  56.689  1.00  0.00    -0.028 A 
HETATM   22  C   UNL     1       8.783  30.278  57.674  1.00  0.00    -0.008 A 
HETATM   23  C   UNL     1      10.080  29.067  56.136  1.00  0.00     0.041 C 
HETATM   24  C   UNL     1      10.142  30.804  57.937  1.00  0.00     0.047 C 
HETATM   25  C   UNL     1      11.011  29.755  57.183  1.00  0.00     0.010 C 
ENDBRANCH   1  14
TORSDOF 2
ENDMDL
MODEL 2
REMARK VINA RESULT:      -9.3      4.028      7.036
REMARK  2 active torsions:
REMARK  status: ('A' for Active; 'I' for Inactive)
REMARK    1  A    between atoms: C_2  and  N_3 
REMARK    2  A    between atoms: N_3  and  C_4 
ROOT
HETATM    1  N   UNL     1       7.498  25.630  53.214  1.00  0.00    -0.340 N 
HETATM    2  H   UNL     1       8.259  25.294  52.645  1.00  0.00     0.167 HD
ENDROOT
BRANCH   1   3
HETATM    3  C   UNL     1       6.553  26.403  52.519  1.00  0.00     0.036 A 
HETATM    4  C   UNL     1       6.256  27.733  52.842  1.00  0.00     0.032 A 
HETATM    5  C   UNL     1       5.323  28.467  52.100  1.00  0.00     0.042 A 
HETATM    6  C   UNL     1       4.708  27.897  50.991  1.00  0.00     0.102 A 
HETATM    7  C   UNL     1       4.999  26.579  50.644  1.00  0.00     0.104 A 
HETATM    8  O   UNL     1       3.761  28.650  50.352  1.00  0.00    -0.348 OA
HETATM    9  C   UNL     1       5.900  25.836  51.413  1.00  0.00     0.069 A 
HETATM   10  O   UNL     1       4.376  25.919  49.619  1.00  0.00    -0.348 OA
HETATM   11  C   UNL     1       4.640  26.526  48.353  1.00  0.00     0.178 C 
HETATM   12  C   UNL     1       3.737  27.721  48.091  1.00  0.00     0.053 C 
HETATM   13  C   UNL     1       4.103  28.894  48.988  1.00  0.00     0.178 C 
ENDBRANCH   1   3
BRANCH   1  14
HETATM   14  C   UNL     1       7.603  25.274  54.566  1.00  0.00     0.143 A 
HETATM   15  N   UNL     1       7.511  26.211  55.542  1.00  0.00    -0.223 NA
HETATM   16  C   UNL     1       7.668  25.850  56.824  1.00  0.00     0.236 A 
HETATM   17  N   UNL     1       7.919  24.631  57.303  1.00  0.00    -0.234 NA
HETATM   18  C   UNL     1       8.003  23.713  56.328  1.00  0.00     0.114 A 
HETATM   19  C   UNL     1       7.857  23.940  54.958  1.00  0.00     0.053 A 
HETATM   20  S   UNL     1       8.326  22.067  56.716  1.00  0.00    -0.073 SA
HETATM   21  C   UNL     1       8.002  22.704  54.262  1.00  0.00    -0.028 A 
HETATM   22  C   UNL     1       8.259  21.654  55.102  1.00  0.00    -0.008 A 
HETATM   23  C   UNL     1       7.943  22.242  52.851  1.00  0.00     0.041 C 
HETATM   24  C   UNL     1       8.420  20.350  54.418  1.00  0.00     0.047 C 
HETATM   25  C   UNL     1       7.860  20.691  53.005  1.00  0.00     0.010 C 
ENDBRANCH   1  14
TORSDOF 2
ENDMDL
MODEL 3
REMARK VINA RESULT:      -9.2      3.612      7.681
REMARK  2 active torsions:
REMARK  status: ('A' for Active; 'I' for Inactive)
REMARK    1  A    between atoms: C_2  and  N_3 
REMARK    2  A    between atoms: N_3  and  C_4 
ROOT
HETATM    1  N   UNL     1       7.563  25.846  56.129  1.00  0.00    -0.340 N 
HETATM    2  H   UNL     1       7.657  25.154  56.858  1.00  0.00     0.167 HD
ENDROOT
BRANCH   1   3
HETATM    3  C   UNL     1       7.319  27.148  56.595  1.00  0.00     0.036 A 
HETATM    4  C   UNL     1       6.045  27.622  56.930  1.00  0.00     0.032 A 
HETATM    5  C   UNL     1       5.860  28.922  57.414  1.00  0.00     0.042 A 
HETATM    6  C   UNL     1       6.956  29.754  57.618  1.00  0.00     0.102 A 
HETATM    7  C   UNL     1       8.234  29.298  57.304  1.00  0.00     0.104 A 
HETATM    8  O   UNL     1       6.696  31.031  58.033  1.00  0.00    -0.348 OA
HETATM    9  C   UNL     1       8.410  28.013  56.781  1.00  0.00     0.069 A 
HETATM   10  O   UNL     1       9.354  30.080  57.397  1.00  0.00    -0.348 OA
HETATM   11  C   UNL     1       9.609  30.491  58.742  1.00  0.00     0.178 C 
HETATM   12  C   UNL     1       8.771  31.696  59.142  1.00  0.00     0.053 C 
HETATM   13  C   UNL     1       7.305  31.320  59.291  1.00  0.00     0.178 C 
ENDBRANCH   1   3
BRANCH   1  14
HETATM   14  C   UNL     1       7.656  25.317  54.833  1.00  0.00     0.143 A 
HETATM   15  N   UNL     1       7.566  26.121  53.746  1.00  0.00    -0.223 NA
HETATM   16  C   UNL     1       7.605  25.583  52.518  1.00  0.00     0.236 A 
HETATM   17  N   UNL     1       7.725  24.295  52.196  1.00  0.00    -0.234 NA
HETATM   18  C   UNL     1       7.819  23.510  53.282  1.00  0.00     0.114 A 
HETATM   19  C   UNL     1       7.797  23.928  54.614  1.00  0.00     0.053 A 
HETATM   20  S   UNL     1       7.976  21.805  53.104  1.00  0.00    -0.073 SA
HETATM   21  C   UNL     1       7.937  22.790  55.463  1.00  0.00    -0.028 A 
HETATM   22  C   UNL     1       8.032  21.619  54.761  1.00  0.00    -0.008 A 
HETATM   23  C   UNL     1       8.013  22.532  56.924  1.00  0.00     0.041 C 
HETATM   24  C   UNL     1       8.176  20.411  55.606  1.00  0.00     0.047 C 
HETATM   25  C   UNL     1       8.519  21.057  56.981  1.00  0.00     0.010 C 
ENDBRANCH   1  14
TORSDOF 2
ENDMDL
MODEL 4
REMARK VINA RESULT:      -9.0      1.842      2.237
REMARK  2 active torsions:
REMARK  status: ('A' for Active; 'I' for Inactive)
REMARK    1  A    between atoms: C_2  and  N_3 
REMARK    2  A    between atoms: N_3  and  C_4 
ROOT
HETATM    1  N   UNL     1       7.565  26.527  53.713  1.00  0.00    -0.340 N 
HETATM    2  H   UNL     1       8.474  26.964  53.712  1.00  0.00     0.167 HD
ENDROOT
BRANCH   1   3
HETATM    3  C   UNL     1       7.597  25.123  53.701  1.00  0.00     0.036 A 
HETATM    4  C   UNL     1       7.824  24.365  52.546  1.00  0.00     0.032 A 
HETATM    5  C   UNL     1       7.871  22.967  52.594  1.00  0.00     0.042 A 
HETATM    6  C   UNL     1       7.741  22.305  53.810  1.00  0.00     0.102 A 
HETATM    7  C   UNL     1       7.528  23.040  54.974  1.00  0.00     0.104 A 
HETATM    8  O   UNL     1       7.734  20.938  53.773  1.00  0.00    -0.348 OA
HETATM    9  C   UNL     1       7.440  24.434  54.915  1.00  0.00     0.069 A 
HETATM   10  O   UNL     1       7.308  22.462  56.195  1.00  0.00    -0.348 OA
HETATM   11  C   UNL     1       8.434  21.701  56.638  1.00  0.00     0.178 C 
HETATM   12  C   UNL     1       8.464  20.312  56.020  1.00  0.00     0.053 C 
HETATM   13  C   UNL     1       8.800  20.376  54.538  1.00  0.00     0.178 C 
ENDBRANCH   1   3
BRANCH   1  14
HETATM   14  C   UNL     1       6.500  27.439  53.682  1.00  0.00     0.143 A 
HETATM   15  N   UNL     1       5.635  27.464  52.639  1.00  0.00    -0.223 NA
HETATM   16  C   UNL     1       4.658  28.382  52.609  1.00  0.00     0.236 A 
HETATM   17  N   UNL     1       4.402  29.329  53.512  1.00  0.00    -0.234 NA
HETATM   18  C   UNL     1       5.262  29.290  54.542  1.00  0.00     0.114 A 
HETATM   19  C   UNL     1       6.319  28.393  54.709  1.00  0.00     0.053 A 
HETATM   20  S   UNL     1       5.122  30.427  55.827  1.00  0.00    -0.073 SA
HETATM   21  C   UNL     1       6.981  28.676  55.940  1.00  0.00    -0.028 A 
HETATM   22  C   UNL     1       6.428  29.738  56.603  1.00  0.00    -0.008 A 
HETATM   23  C   UNL     1       8.123  28.117  56.709  1.00  0.00     0.041 C 
HETATM   24  C   UNL     1       7.089  30.068  57.887  1.00  0.00     0.047 C 
HETATM   25  C   UNL     1       7.952  28.790  58.106  1.00  0.00     0.010 C 
ENDBRANCH   1  14
TORSDOF 2
ENDMDL
MODEL 5
REMARK VINA RESULT:      -8.8      2.991      4.606
REMARK  2 active torsions:
REMARK  status: ('A' for Active; 'I' for Inactive)
REMARK    1  A    between atoms: C_2  and  N_3 
REMARK    2  A    between atoms: N_3  and  C_4 
ROOT
HETATM    1  N   UNL     1       5.289  25.534  55.459  1.00  0.00    -0.340 N 
HETATM    2  H   UNL     1       4.390  25.112  55.637  1.00  0.00     0.167 HD
ENDROOT
BRANCH   1   3
HETATM    3  C   UNL     1       6.365  24.632  55.469  1.00  0.00     0.036 A 
HETATM    4  C   UNL     1       7.162  24.394  56.595  1.00  0.00     0.032 A 
HETATM    5  C   UNL     1       8.208  23.465  56.559  1.00  0.00     0.042 A 
HETATM    6  C   UNL     1       8.442  22.721  55.407  1.00  0.00     0.102 A 
HETATM    7  C   UNL     1       7.652  22.933  54.279  1.00  0.00     0.104 A 
HETATM    8  O   UNL     1       9.519  21.878  55.422  1.00  0.00    -0.348 OA
HETATM    9  C   UNL     1       6.635  23.892  54.307  1.00  0.00     0.069 A 
HETATM   10  O   UNL     1       7.870  22.303  53.083  1.00  0.00    -0.348 OA
HETATM   11  C   UNL     1       7.704  20.888  53.185  1.00  0.00     0.178 C 
HETATM   12  C   UNL     1       8.945  20.203  53.736  1.00  0.00     0.053 C 
HETATM   13  C   UNL     1       9.138  20.519  55.212  1.00  0.00     0.178 C 
ENDBRANCH   1   3
BRANCH   1  14
HETATM   14  C   UNL     1       5.235  26.926  55.290  1.00  0.00     0.143 A 
HETATM   15  N   UNL     1       5.327  27.760  56.355  1.00  0.00    -0.223 NA
HETATM   16  C   UNL     1       5.219  29.084  56.171  1.00  0.00     0.236 A 
HETATM   17  N   UNL     1       5.022  29.734  55.023  1.00  0.00    -0.234 NA
HETATM   18  C   UNL     1       4.939  28.897  53.977  1.00  0.00     0.114 A 
HETATM   19  C   UNL     1       5.036  27.505  54.017  1.00  0.00     0.053 A 
HETATM   20  S   UNL     1       4.680  29.518  52.392  1.00  0.00    -0.073 SA
HETATM   21  C   UNL     1       4.910  26.990  52.692  1.00  0.00    -0.028 A 
HETATM   22  C   UNL     1       4.712  27.974  51.762  1.00  0.00    -0.008 A 
HETATM   23  C   UNL     1       4.941  25.655  52.042  1.00  0.00     0.041 C 
HETATM   24  C   UNL     1       4.573  27.482  50.372  1.00  0.00     0.047 C 
HETATM   25  C   UNL     1       5.079  26.017  50.531  1.00  0.00     0.010 C 
ENDBRANCH   1  14
TORSDOF 2
ENDMDL
MODEL 6
REMARK VINA RESULT:      -8.7      4.022      5.741
REMARK  2 active torsions:
REMARK  status: ('A' for Active; 'I' for Inactive)
REMARK    1  A    between atoms: C_2  and  N_3 
REMARK    2  A    between atoms: N_3  and  C_4 
ROOT
HETATM    1  N   UNL     1       4.449  26.073  53.099  1.00  0.00    -0.340 N 
HETATM    2  H   UNL     1       3.701  25.544  52.678  1.00  0.00     0.167 HD
ENDROOT
BRANCH   1   3
HETATM    3  C   UNL     1       5.414  25.290  53.755  1.00  0.00     0.036 A 
HETATM    4  C   UNL     1       5.591  25.287  55.143  1.00  0.00     0.032 A 
HETATM    5  C   UNL     1       6.551  24.468  55.749  1.00  0.00     0.042 A 
HETATM    6  C   UNL     1       7.317  23.601  54.977  1.00  0.00     0.102 A 
HETATM    7  C   UNL     1       7.148  23.579  53.595  1.00  0.00     0.104 A 
HETATM    8  O   UNL     1       8.279  22.878  55.627  1.00  0.00    -0.348 OA
HETATM    9  C   UNL     1       6.217  24.429  52.990  1.00  0.00     0.069 A 
HETATM   10  O   UNL     1       7.918  22.816  52.757  1.00  0.00    -0.348 OA
HETATM   11  C   UNL     1       7.755  21.419  53.005  1.00  0.00     0.178 C 
HETATM   12  C   UNL     1       8.606  20.941  54.172  1.00  0.00     0.053 C 
HETATM   13  C   UNL     1       8.072  21.471  55.494  1.00  0.00     0.178 C 
ENDBRANCH   1   3
BRANCH   1  14
HETATM   14  C   UNL     1       4.310  27.461  52.957  1.00  0.00     0.143 A 
HETATM   15  N   UNL     1       4.188  28.263  54.043  1.00  0.00    -0.223 NA
HETATM   16  C   UNL     1       4.002  29.581  53.877  1.00  0.00     0.236 A 
HETATM   17  N   UNL     1       3.913  30.253  52.729  1.00  0.00    -0.234 NA
HETATM   18  C   UNL     1       4.040  29.448  51.662  1.00  0.00     0.114 A 
HETATM   19  C   UNL     1       4.241  28.067  51.682  1.00  0.00     0.053 A 
HETATM   20  S   UNL     1       3.952  30.102  50.072  1.00  0.00    -0.073 SA
HETATM   21  C   UNL     1       4.339  27.590  50.341  1.00  0.00    -0.028 A 
HETATM   22  C   UNL     1       4.192  28.587  49.416  1.00  0.00    -0.008 A 
HETATM   23  C   UNL     1       4.564  26.283  49.671  1.00  0.00     0.041 C 
HETATM   24  C   UNL     1       4.284  28.134  48.009  1.00  0.00     0.047 C 
HETATM   25  C   UNL     1       4.878  26.707  48.202  1.00  0.00     0.010 C 
ENDBRANCH   1  14
TORSDOF 2
ENDMDL
MODEL 7
REMARK VINA RESULT:      -8.7      2.128      3.651
REMARK  2 active torsions:
REMARK  status: ('A' for Active; 'I' for Inactive)
REMARK    1  A    between atoms: C_2  and  N_3 
REMARK    2  A    between atoms: N_3  and  C_4 
ROOT
HETATM    1  N   UNL     1       7.728  26.496  54.168  1.00  0.00    -0.340 N 
HETATM    2  H   UNL     1       8.267  26.988  53.472  1.00  0.00     0.167 HD
ENDROOT
BRANCH   1   3
HETATM    3  C   UNL     1       7.701  25.101  54.001  1.00  0.00     0.036 A 
HETATM    4  C   UNL     1       7.856  24.470  52.761  1.00  0.00     0.032 A 
HETATM    5  C   UNL     1       7.846  23.074  52.653  1.00  0.00     0.042 A 
HETATM    6  C   UNL     1       7.730  22.286  53.793  1.00  0.00     0.102 A 
HETATM    7  C   UNL     1       7.588  22.894  55.038  1.00  0.00     0.104 A 
HETATM    8  O   UNL     1       7.664  20.933  53.607  1.00  0.00    -0.348 OA
HETATM    9  C   UNL     1       7.556  24.289  55.137  1.00  0.00     0.069 A 
HETATM   10  O   UNL     1       7.386  22.193  56.196  1.00  0.00    -0.348 OA
HETATM   11  C   UNL     1       8.492  21.345  56.509  1.00  0.00     0.178 C 
HETATM   12  C   UNL     1       8.444  20.032  55.741  1.00  0.00     0.053 C 
HETATM   13  C   UNL     1       8.731  20.249  54.264  1.00  0.00     0.178 C 
ENDBRANCH   1   3
BRANCH   1  14
HETATM   14  C   UNL     1       7.108  27.338  55.103  1.00  0.00     0.143 A 
HETATM   15  N   UNL     1       7.603  27.471  56.357  1.00  0.00    -0.223 NA
HETATM   16  C   UNL     1       6.960  28.241  57.246  1.00  0.00     0.236 A 
HETATM   17  N   UNL     1       5.836  28.935  57.062  1.00  0.00    -0.234 NA
HETATM   18  C   UNL     1       5.359  28.799  55.814  1.00  0.00     0.114 A 
HETATM   19  C   UNL     1       5.921  28.038  54.787  1.00  0.00     0.053 A 
HETATM   20  S   UNL     1       3.909  29.604  55.352  1.00  0.00    -0.073 SA
HETATM   21  C   UNL     1       5.119  28.171  53.615  1.00  0.00    -0.028 A 
HETATM   22  C   UNL     1       4.028  28.973  53.812  1.00  0.00    -0.008 A 
HETATM   23  C   UNL     1       5.153  27.668  52.217  1.00  0.00     0.041 C 
HETATM   24  C   UNL     1       3.165  29.135  52.619  1.00  0.00     0.047 C 
HETATM   25  C   UNL     1       4.100  28.575  51.507  1.00  0.00     0.010 C 
ENDBRANCH   1  14
TORSDOF 2
ENDMDL
MODEL 8
REMARK VINA RESULT:      -8.6      1.501      2.331
REMARK  2 active torsions:
REMARK  status: ('A' for Active; 'I' for Inactive)
REMARK    1  A    between atoms: C_2  and  N_3 
REMARK    2  A    between atoms: N_3  and  C_4 
ROOT
HETATM    1  N   UNL     1       7.256  27.015  54.620  1.00  0.00    -0.340 N 
HETATM    2  H   UNL     1       7.934  27.425  53.997  1.00  0.00     0.167 HD
ENDROOT
BRANCH   1   3
HETATM    3  C   UNL     1       7.592  25.730  55.077  1.00  0.00     0.036 A 
HETATM    4  C   UNL     1       7.508  25.342  56.420  1.00  0.00     0.032 A 
HETATM    5  C   UNL     1       7.830  24.040  56.819  1.00  0.00     0.042 A 
HETATM    6  C   UNL     1       8.195  23.089  55.872  1.00  0.00     0.102 A 
HETATM    7  C   UNL     1       8.272  23.450  54.528  1.00  0.00     0.104 A 
HETATM    8  O   UNL     1       8.558  21.856  56.339  1.00  0.00    -0.348 OA
HETATM    9  C   UNL     1       7.989  24.763  54.139  1.00  0.00     0.069 A 
HETATM   10  O   UNL     1       8.702  22.598  53.546  1.00  0.00    -0.348 OA
HETATM   11  C   UNL     1       7.841  21.467  53.404  1.00  0.00     0.178 C 
HETATM   12  C   UNL     1       8.140  20.386  54.431  1.00  0.00     0.053 C 
HETATM   13  C   UNL     1       7.719  20.821  55.826  1.00  0.00     0.178 C 
ENDBRANCH   1   3
BRANCH   1  14
HETATM   14  C   UNL     1       6.127  27.819  54.835  1.00  0.00     0.143 A 
HETATM   15  N   UNL     1       5.005  27.657  54.092  1.00  0.00    -0.223 NA
HETATM   16  C   UNL     1       3.959  28.475  54.282  1.00  0.00     0.236 A 
HETATM   17  N   UNL     1       3.861  29.484  55.148  1.00  0.00    -0.234 NA
HETATM   18  C   UNL     1       4.976  29.630  55.882  1.00  0.00     0.114 A 
HETATM   19  C   UNL     1       6.134  28.855  55.797  1.00  0.00     0.053 A 
HETATM   20  S   UNL     1       5.076  30.878  57.064  1.00  0.00    -0.073 SA
HETATM   21  C   UNL     1       7.081  29.323  56.756  1.00  0.00    -0.028 A 
HETATM   22  C   UNL     1       6.619  30.394  57.471  1.00  0.00    -0.008 A 
HETATM   23  C   UNL     1       8.451  28.951  57.196  1.00  0.00     0.041 C 
HETATM   24  C   UNL     1       7.574  30.914  58.478  1.00  0.00     0.047 C 
HETATM   25  C   UNL     1       8.605  29.748  58.528  1.00  0.00     0.010 C 
ENDBRANCH   1  14
TORSDOF 2
ENDMDL
MODEL 9
REMARK VINA RESULT:      -8.6      3.630      7.656
REMARK  2 active torsions:
REMARK  status: ('A' for Active; 'I' for Inactive)
REMARK    1  A    between atoms: C_2  and  N_3 
REMARK    2  A    between atoms: N_3  and  C_4 
ROOT
HETATM    1  N   UNL     1       7.472  25.649  56.227  1.00  0.00    -0.340 N 
HETATM    2  H   UNL     1       7.658  24.961  56.941  1.00  0.00     0.167 HD
ENDROOT
BRANCH   1   3
HETATM    3  C   UNL     1       7.073  26.902  56.720  1.00  0.00     0.036 A 
HETATM    4  C   UNL     1       7.907  27.738  57.472  1.00  0.00     0.032 A 
HETATM    5  C   UNL     1       7.468  28.989  57.918  1.00  0.00     0.042 A 
HETATM    6  C   UNL     1       6.200  29.447  57.575  1.00  0.00     0.102 A 
HETATM    7  C   UNL     1       5.358  28.638  56.816  1.00  0.00     0.104 A 
HETATM    8  O   UNL     1       5.814  30.651  58.098  1.00  0.00    -0.348 OA
HETATM    9  C   UNL     1       5.786  27.371  56.408  1.00  0.00     0.069 A 
HETATM   10  O   UNL     1       4.069  28.979  56.507  1.00  0.00    -0.348 OA
HETATM   11  C   UNL     1       4.005  30.154  55.697  1.00  0.00     0.178 C 
HETATM   12  C   UNL     1       4.111  31.426  56.524  1.00  0.00     0.053 C 
HETATM   13  C   UNL     1       5.516  31.606  57.079  1.00  0.00     0.178 C 
ENDBRANCH   1   3
BRANCH   1  14
HETATM   14  C   UNL     1       7.618  25.161  54.920  1.00  0.00     0.143 A 
HETATM   15  N   UNL     1       7.528  25.992  53.853  1.00  0.00    -0.223 NA
HETATM   16  C   UNL     1       7.619  25.490  52.612  1.00  0.00     0.236 A 
HETATM   17  N   UNL     1       7.794  24.216  52.259  1.00  0.00    -0.234 NA
HETATM   18  C   UNL     1       7.888  23.405  53.325  1.00  0.00     0.114 A 
HETATM   19  C   UNL     1       7.816  23.785  54.667  1.00  0.00     0.053 A 
HETATM   20  S   UNL     1       8.112  21.713  53.106  1.00  0.00    -0.073 SA
HETATM   21  C   UNL     1       7.975  22.629  55.488  1.00  0.00    -0.028 A 
HETATM   22  C   UNL     1       8.131  21.482  54.758  1.00  0.00    -0.008 A 
HETATM   23  C   UNL     1       8.022  22.333  56.943  1.00  0.00     0.041 C 
HETATM   24  C   UNL     1       8.297  20.257  55.573  1.00  0.00     0.047 C 
HETATM   25  C   UNL     1       8.580  20.876  56.974  1.00  0.00     0.010 C 
ENDBRANCH   1  14
TORSDOF 2
ENDMDL
MODEL 10
REMARK VINA RESULT:      -8.6      4.894      6.964
REMARK  2 active torsions:
REMARK  status: ('A' for Active; 'I' for Inactive)
REMARK    1  A    between atoms: C_2  and  N_3 
REMARK    2  A    between atoms: N_3  and  C_4 
ROOT
HETATM    1  N   UNL     1       5.997  27.725  52.515  1.00  0.00    -0.340 N 
HETATM    2  H   UNL     1       6.843  28.263  52.400  1.00  0.00     0.167 HD
ENDROOT
BRANCH   1   3
HETATM    3  C   UNL     1       5.278  27.516  51.327  1.00  0.00     0.036 A 
HETATM    4  C   UNL     1       5.266  26.298  50.636  1.00  0.00     0.032 A 
HETATM    5  C   UNL     1       4.511  26.135  49.469  1.00  0.00     0.042 A 
HETATM    6  C   UNL     1       3.714  27.175  49.001  1.00  0.00     0.102 A 
HETATM    7  C   UNL     1       3.701  28.390  49.681  1.00  0.00     0.104 A 
HETATM    8  O   UNL     1       3.054  26.967  47.822  1.00  0.00    -0.348 OA
HETATM    9  C   UNL     1       4.489  28.562  50.823  1.00  0.00     0.069 A 
HETATM   10  O   UNL     1       3.009  29.487  49.241  1.00  0.00    -0.348 OA
HETATM   11  C   UNL     1       1.600  29.255  49.210  1.00  0.00     0.178 C 
HETATM   12  C   UNL     1       1.168  28.517  47.952  1.00  0.00     0.053 C 
HETATM   13  C   UNL     1       1.638  27.071  47.975  1.00  0.00     0.178 C 
ENDBRANCH   1   3
BRANCH   1  14
HETATM   14  C   UNL     1       5.735  27.361  53.844  1.00  0.00     0.143 A 
HETATM   15  N   UNL     1       5.005  28.164  54.655  1.00  0.00    -0.223 NA
HETATM   16  C   UNL     1       4.815  27.817  55.936  1.00  0.00     0.236 A 
HETATM   17  N   UNL     1       5.270  26.731  56.562  1.00  0.00    -0.234 NA
HETATM   18  C   UNL     1       5.986  25.942  55.747  1.00  0.00     0.114 A 
HETATM   19  C   UNL     1       6.261  26.172  54.398  1.00  0.00     0.053 A 
HETATM   20  S   UNL     1       6.678  24.483  56.346  1.00  0.00    -0.073 SA
HETATM   21  C   UNL     1       7.040  25.090  53.889  1.00  0.00    -0.028 A 
HETATM   22  C   UNL     1       7.319  24.148  54.843  1.00  0.00    -0.008 A 
HETATM   23  C   UNL     1       7.633  24.703  52.583  1.00  0.00     0.041 C 
HETATM   24  C   UNL     1       8.128  23.007  54.356  1.00  0.00     0.047 C 
HETATM   25  C   UNL     1       8.018  23.209  52.815  1.00  0.00     0.010 C 
ENDBRANCH   1  14
TORSDOF 2
ENDMDL
