MODEL 1
REMARK VINA RESULT:      -9.5      0.000      0.000
REMARK  5 active torsions:
REMARK  status: ('A' for Active; 'I' for Inactive)
REMARK    1  A    between atoms: C_4  and  C_5 
REMARK    2  A    between atoms: C_5  and  C_6 
REMARK    3  A    between atoms: C_6  and  C_7 
REMARK       I    between atoms: C_7  and  N_8 
REMARK    4  A    between atoms: N_8  and  C_9 
REMARK    5  A    between atoms: C_11  and  C_12 
ROOT
HETATM    1  C   UNL     1       6.256  27.226  55.637  1.00  0.00     0.222 C 
HETATM    2  N   UNL     1       7.416  26.559  55.302  1.00  0.00    -0.327 N 
HETATM    3  O   UNL     1       5.165  27.074  55.089  1.00  0.00    -0.273 OA
HETATM    4  H   UNL     1       8.265  26.821  55.786  1.00  0.00     0.169 HD
ENDROOT
BRANCH   2   5
HETATM    5  C   UNL     1       7.573  25.504  54.378  1.00  0.00     0.035 A 
HETATM    6  C   UNL     1       7.869  24.184  54.731  1.00  0.00     0.042 A 
HETATM    7  C   UNL     1       8.059  23.195  53.750  1.00  0.00    -0.021 A 
HETATM    8  C   UNL     1       7.931  23.546  52.401  1.00  0.00     0.012 A 
HETATM    9  C   UNL     1       7.629  24.858  52.038  1.00  0.00     0.003 A 
HETATM   10  C   UNL     1       7.456  25.832  53.021  1.00  0.00     0.029 A 
BRANCH   7  11
HETATM   11  C   UNL     1       8.393  21.827  54.117  1.00  0.00     0.010 A 
HETATM   12  C   UNL     1       8.557  20.666  53.324  1.00  0.00     0.152 A 
HETATM   13  N   UNL     1       8.893  19.589  54.040  1.00  0.00    -0.187 NA
HETATM   14  N   UNL     1       8.940  20.053  55.299  1.00  0.00    -0.289 N 
HETATM   15  H   UNL     1       9.178  19.407  56.043  1.00  0.00     0.188 HD
HETATM   16  C   UNL     1       8.657  21.385  55.397  1.00  0.00     0.123 A 
ENDBRANCH   7  11
ENDBRANCH   2   5
BRANCH   1  17
HETATM   17  C   UNL     1       6.337  28.166  56.839  1.00  0.00     0.108 C 
BRANCH  17  18
HETATM   18  C   UNL     1       7.507  28.018  57.811  1.00  0.00     0.048 C 
BRANCH  18  19
HETATM   19  C   UNL     1       8.488  29.168  57.937  1.00  0.00    -0.057 A 
HETATM   20  C   UNL     1       8.423  30.148  58.939  1.00  0.00     0.013 A 
HETATM   21  C   UNL     1       9.390  31.160  59.029  1.00  0.00    -0.061 A 
HETATM   22  C   UNL     1       9.344  32.171  60.139  1.00  0.00     0.048 C 
HETATM   23  C   UNL     1      10.422  31.206  58.087  1.00  0.00     0.007 A 
HETATM   24  C   UNL     1      10.486  30.257  57.070  1.00  0.00     0.001 A 
HETATM   25  C   UNL     1       9.530  29.244  56.998  1.00  0.00     0.007 A 
ENDBRANCH  18  19
ENDBRANCH  17  18
ENDBRANCH   1  17
TORSDOF 5
ENDMDL
MODEL 2
REMARK VINA RESULT:      -9.4      2.968      9.010
REMARK  5 active torsions:
REMARK  status: ('A' for Active; 'I' for Inactive)
REMARK    1  A    between atoms: C_4  and  C_5 
REMARK    2  A    between atoms: C_5  and  C_6 
REMARK    3  A    between atoms: C_6  and  C_7 
REMARK       I    between atoms: C_7  and  N_8 
REMARK    4  A    between atoms: N_8  and  C_9 
REMARK    5  A    between atoms: C_11  and  C_12 
ROOT
HETATM    1  C   UNL     1       7.707  26.372  57.081  1.00  0.00     0.222 C 
HETATM    2  N   UNL     1       7.857  27.667  56.631  1.00  0.00    -0.327 N 
HETATM    3  O   UNL     1       8.300  25.880  58.041  1.00  0.00    -0.273 OA
HETATM    4  H   UNL     1       7.361  27.932  55.790  1.00  0.00     0.169 HD
ENDROOT
BRANCH   2   5
HETATM    5  C   UNL     1       8.599  28.711  57.224  1.00  0.00     0.035 A 
HETATM    6  C   UNL     1       8.257  29.337  58.426  1.00  0.00     0.042 A 
HETATM    7  C   UNL     1       9.019  30.404  58.933  1.00  0.00    -0.021 A 
HETATM    8  C   UNL     1      10.148  30.828  58.220  1.00  0.00     0.012 A 
HETATM    9  C   UNL     1      10.502  30.206  57.023  1.00  0.00     0.003 A 
HETATM   10  C   UNL     1       9.729  29.156  56.527  1.00  0.00     0.029 A 
BRANCH   7  11
HETATM   11  C   UNL     1       8.647  31.073  60.171  1.00  0.00     0.010 A 
HETATM   12  C   UNL     1       8.968  30.780  61.518  1.00  0.00     0.152 A 
HETATM   13  N   UNL     1       8.448  31.657  62.380  1.00  0.00    -0.187 NA
HETATM   14  N   UNL     1       7.785  32.516  61.589  1.00  0.00    -0.289 N 
HETATM   15  H   UNL     1       7.293  33.290  62.023  1.00  0.00     0.188 HD
HETATM   16  C   UNL     1       7.879  32.215  60.262  1.00  0.00     0.123 A 
ENDBRANCH   7  11
ENDBRANCH   2   5
BRANCH   1  17
HETATM   17  C   UNL     1       6.658  25.523  56.366  1.00  0.00     0.108 C 
BRANCH  17  18
HETATM   18  C   UNL     1       6.892  25.139  54.905  1.00  0.00     0.048 C 
BRANCH  18  19
HETATM   19  C   UNL     1       7.317  23.717  54.592  1.00  0.00    -0.057 A 
HETATM   20  C   UNL     1       7.492  22.720  55.564  1.00  0.00     0.013 A 
HETATM   21  C   UNL     1       7.841  21.410  55.205  1.00  0.00    -0.061 A 
HETATM   22  C   UNL     1       7.969  20.336  56.246  1.00  0.00     0.048 C 
HETATM   23  C   UNL     1       8.044  21.101  53.857  1.00  0.00     0.007 A 
HETATM   24  C   UNL     1       7.902  22.085  52.883  1.00  0.00     0.001 A 
HETATM   25  C   UNL     1       7.537  23.381  53.247  1.00  0.00     0.007 A 
ENDBRANCH  18  19
ENDBRANCH  17  18
ENDBRANCH   1  17
TORSDOF 5
ENDMDL
MODEL 3
REMARK VINA RESULT:      -8.9      1.032      1.730
REMARK  5 active torsions:
REMARK  status: ('A' for Active; 'I' for Inactive)
REMARK    1  A    between atoms: C_4  and  C_5 
REMARK    2  A    between atoms: C_5  and  C_6 
REMARK    3  A    between atoms: C_6  and  C_7 
REMARK       I    between atoms: C_7  and  N_8 
REMARK    4  A    between atoms: N_8  and  C_9 
REMARK    5  A    between atoms: C_11  and  C_12 
ROOT
HETATM    1  C   UNL     1       6.070  27.653  54.941  1.00  0.00     0.222 C 
HETATM    2  N   UNL     1       7.259  27.097  54.517  1.00  0.00    -0.327 N 
HETATM    3  O   UNL     1       4.968  27.111  54.872  1.00  0.00    -0.273 OA
HETATM    4  H   UNL     1       8.091  27.671  54.568  1.00  0.00     0.169 HD
ENDROOT
BRANCH   2   5
HETATM    5  C   UNL     1       7.483  25.785  54.046  1.00  0.00     0.035 A 
HETATM    6  C   UNL     1       7.608  24.662  54.869  1.00  0.00     0.042 A 
HETATM    7  C   UNL     1       7.879  23.393  54.330  1.00  0.00    -0.021 A 
HETATM    8  C   UNL     1       8.008  23.260  52.941  1.00  0.00     0.012 A 
HETATM    9  C   UNL     1       7.878  24.373  52.110  1.00  0.00     0.003 A 
HETATM   10  C   UNL     1       7.621  25.628  52.661  1.00  0.00     0.029 A 
BRANCH   7  11
HETATM   11  C   UNL     1       8.035  22.228  55.189  1.00  0.00     0.010 A 
HETATM   12  C   UNL     1       7.943  20.845  54.905  1.00  0.00     0.152 A 
HETATM   13  N   UNL     1       8.178  20.077  55.971  1.00  0.00    -0.187 NA
HETATM   14  N   UNL     1       8.418  20.966  56.949  1.00  0.00    -0.289 N 
HETATM   15  H   UNL     1       8.627  20.617  57.878  1.00  0.00     0.188 HD
HETATM   16  C   UNL     1       8.352  22.263  56.531  1.00  0.00     0.123 A 
ENDBRANCH   7  11
ENDBRANCH   2   5
BRANCH   1  17
HETATM   17  C   UNL     1       6.164  29.019  55.619  1.00  0.00     0.108 C 
BRANCH  17  18
HETATM   18  C   UNL     1       6.403  29.076  57.127  1.00  0.00     0.048 C 
BRANCH  18  19
HETATM   19  C   UNL     1       7.661  29.757  57.632  1.00  0.00    -0.057 A 
HETATM   20  C   UNL     1       8.957  29.412  57.221  1.00  0.00     0.013 A 
HETATM   21  C   UNL     1      10.079  30.112  57.691  1.00  0.00    -0.061 A 
HETATM   22  C   UNL     1      11.457  29.774  57.201  1.00  0.00     0.048 C 
HETATM   23  C   UNL     1       9.900  31.155  58.605  1.00  0.00     0.007 A 
HETATM   24  C   UNL     1       8.623  31.492  59.044  1.00  0.00     0.001 A 
HETATM   25  C   UNL     1       7.512  30.801  58.559  1.00  0.00     0.007 A 
ENDBRANCH  18  19
ENDBRANCH  17  18
ENDBRANCH   1  17
TORSDOF 5
ENDMDL
MODEL 4
REMARK VINA RESULT:      -8.8      1.429      1.964
REMARK  5 active torsions:
REMARK  status: ('A' for Active; 'I' for Inactive)
REMARK    1  A    between atoms: C_4  and  C_5 
REMARK    2  A    between atoms: C_5  and  C_6 
REMARK    3  A    between atoms: C_6  and  C_7 
REMARK       I    between atoms: C_7  and  N_8 
REMARK    4  A    between atoms: N_8  and  C_9 
REMARK    5  A    between atoms: C_11  and  C_12 
ROOT
HETATM    1  C   UNL     1       7.945  26.752  56.882  1.00  0.00     0.222 C 
HETATM    2  N   UNL     1       7.290  26.571  55.682  1.00  0.00    -0.327 N 
HETATM    3  O   UNL     1       8.785  25.987  57.355  1.00  0.00    -0.273 OA
HETATM    4  H   UNL     1       6.571  27.239  55.434  1.00  0.00     0.169 HD
ENDROOT
BRANCH   2   5
HETATM    5  C   UNL     1       7.519  25.573  54.710  1.00  0.00     0.035 A 
HETATM    6  C   UNL     1       7.818  24.240  55.005  1.00  0.00     0.042 A 
HETATM    7  C   UNL     1       8.082  23.311  53.983  1.00  0.00    -0.021 A 
HETATM    8  C   UNL     1       8.025  23.738  52.650  1.00  0.00     0.012 A 
HETATM    9  C   UNL     1       7.721  25.064  52.345  1.00  0.00     0.003 A 
HETATM   10  C   UNL     1       7.474  25.976  53.370  1.00  0.00     0.029 A 
BRANCH   7  11
HETATM   11  C   UNL     1       8.419  21.929  54.291  1.00  0.00     0.010 A 
HETATM   12  C   UNL     1       8.566  20.799  53.451  1.00  0.00     0.152 A 
HETATM   13  N   UNL     1       8.912  19.695  54.118  1.00  0.00    -0.187 NA
HETATM   14  N   UNL     1       8.984  20.111  55.393  1.00  0.00    -0.289 N 
HETATM   15  H   UNL     1       9.233  19.436  56.107  1.00  0.00     0.188 HD
HETATM   16  C   UNL     1       8.706  21.438  55.547  1.00  0.00     0.123 A 
ENDBRANCH   7  11
ENDBRANCH   2   5
BRANCH   1  17
HETATM   17  C   UNL     1       7.648  28.052  57.628  1.00  0.00     0.108 C 
BRANCH  17  18
HETATM   18  C   UNL     1       8.774  29.068  57.812  1.00  0.00     0.048 C 
BRANCH  18  19
HETATM   19  C   UNL     1       8.497  30.309  58.639  1.00  0.00    -0.057 A 
HETATM   20  C   UNL     1       7.252  30.954  58.691  1.00  0.00     0.013 A 
HETATM   21  C   UNL     1       7.047  32.072  59.512  1.00  0.00    -0.061 A 
HETATM   22  C   UNL     1       5.697  32.721  59.606  1.00  0.00     0.048 C 
HETATM   23  C   UNL     1       8.111  32.567  60.272  1.00  0.00     0.007 A 
HETATM   24  C   UNL     1       9.361  31.955  60.212  1.00  0.00     0.001 A 
HETATM   25  C   UNL     1       9.551  30.833  59.405  1.00  0.00     0.007 A 
ENDBRANCH  18  19
ENDBRANCH  17  18
ENDBRANCH   1  17
TORSDOF 5
ENDMDL
MODEL 5
REMARK VINA RESULT:      -8.8      5.169      8.410
REMARK  5 active torsions:
REMARK  status: ('A' for Active; 'I' for Inactive)
REMARK    1  A    between atoms: C_4  and  C_5 
REMARK    2  A    between atoms: C_5  and  C_6 
REMARK    3  A    between atoms: C_6  and  C_7 
REMARK       I    between atoms: C_7  and  N_8 
REMARK    4  A    between atoms: N_8  and  C_9 
REMARK    5  A    between atoms: C_11  and  C_12 
ROOT
HETATM    1  C   UNL     1       6.203  25.709  53.080  1.00  0.00     0.222 C 
HETATM    2  N   UNL     1       6.402  26.612  52.058  1.00  0.00    -0.327 N 
HETATM    3  O   UNL     1       5.109  25.402  53.554  1.00  0.00    -0.273 OA
HETATM    4  H   UNL     1       7.357  26.828  51.801  1.00  0.00     0.169 HD
ENDROOT
BRANCH   2   5
HETATM    5  C   UNL     1       5.426  27.266  51.275  1.00  0.00     0.035 A 
HETATM    6  C   UNL     1       4.795  26.697  50.166  1.00  0.00     0.042 A 
HETATM    7  C   UNL     1       3.865  27.427  49.404  1.00  0.00    -0.021 A 
HETATM    8  C   UNL     1       3.563  28.741  49.784  1.00  0.00     0.012 A 
HETATM    9  C   UNL     1       4.182  29.316  50.893  1.00  0.00     0.003 A 
HETATM   10  C   UNL     1       5.111  28.584  51.631  1.00  0.00     0.029 A 
BRANCH   7  11
HETATM   11  C   UNL     1       3.228  26.843  48.234  1.00  0.00     0.010 A 
HETATM   12  C   UNL     1       3.462  25.620  47.561  1.00  0.00     0.152 A 
HETATM   13  N   UNL     1       2.640  25.429  46.526  1.00  0.00    -0.187 NA
HETATM   14  N   UNL     1       1.876  26.533  46.526  1.00  0.00    -0.289 N 
HETATM   15  H   UNL     1       1.160  26.624  45.814  1.00  0.00     0.188 HD
HETATM   16  C   UNL     1       2.183  27.405  47.530  1.00  0.00     0.123 A 
ENDBRANCH   7  11
ENDBRANCH   2   5
BRANCH   1  17
HETATM   17  C   UNL     1       7.445  24.982  53.595  1.00  0.00     0.108 C 
BRANCH  17  18
HETATM   18  C   UNL     1       7.932  23.740  52.851  1.00  0.00     0.048 C 
BRANCH  18  19
HETATM   19  C   UNL     1       8.183  22.474  53.648  1.00  0.00    -0.057 A 
HETATM   20  C   UNL     1       8.183  22.418  55.050  1.00  0.00     0.013 A 
HETATM   21  C   UNL     1       8.376  21.206  55.729  1.00  0.00    -0.061 A 
HETATM   22  C   UNL     1       8.316  21.146  57.228  1.00  0.00     0.048 C 
HETATM   23  C   UNL     1       8.597  20.038  54.993  1.00  0.00     0.007 A 
HETATM   24  C   UNL     1       8.628  20.081  53.602  1.00  0.00     0.001 A 
HETATM   25  C   UNL     1       8.418  21.288  52.935  1.00  0.00     0.007 A 
ENDBRANCH  18  19
ENDBRANCH  17  18
ENDBRANCH   1  17
TORSDOF 5
ENDMDL
MODEL 6
REMARK VINA RESULT:      -8.6      5.469      9.400
REMARK  5 active torsions:
REMARK  status: ('A' for Active; 'I' for Inactive)
REMARK    1  A    between atoms: C_4  and  C_5 
REMARK    2  A    between atoms: C_5  and  C_6 
REMARK    3  A    between atoms: C_6  and  C_7 
REMARK       I    between atoms: C_7  and  N_8 
REMARK    4  A    between atoms: N_8  and  C_9 
REMARK    5  A    between atoms: C_11  and  C_12 
ROOT
HETATM    1  C   UNL     1       5.721  25.871  51.394  1.00  0.00     0.222 C 
HETATM    2  N   UNL     1       5.579  26.396  50.127  1.00  0.00    -0.327 N 
HETATM    3  O   UNL     1       4.800  25.653  52.181  1.00  0.00    -0.273 OA
HETATM    4  H   UNL     1       6.422  26.589  49.601  1.00  0.00     0.169 HD
ENDROOT
BRANCH   2   5
HETATM    5  C   UNL     1       4.381  26.671  49.432  1.00  0.00     0.035 A 
HETATM    6  C   UNL     1       3.643  27.850  49.571  1.00  0.00     0.042 A 
HETATM    7  C   UNL     1       2.432  28.034  48.881  1.00  0.00    -0.021 A 
HETATM    8  C   UNL     1       1.977  27.020  48.029  1.00  0.00     0.012 A 
HETATM    9  C   UNL     1       2.710  25.843  47.877  1.00  0.00     0.003 A 
HETATM   10  C   UNL     1       3.903  25.669  48.578  1.00  0.00     0.029 A 
BRANCH   7  11
HETATM   11  C   UNL     1       1.650  29.251  49.046  1.00  0.00     0.010 A 
HETATM   12  C   UNL     1       1.382  30.034  50.194  1.00  0.00     0.152 A 
HETATM   13  N   UNL     1       0.631  31.106  49.930  1.00  0.00    -0.187 NA
HETATM   14  N   UNL     1       0.408  31.013  48.609  1.00  0.00    -0.289 N 
HETATM   15  H   UNL     1      -0.154  31.729  48.162  1.00  0.00     0.188 HD
HETATM   16  C   UNL     1       1.002  29.927  48.034  1.00  0.00     0.123 A 
ENDBRANCH   7  11
ENDBRANCH   2   5
BRANCH   1  17
HETATM   17  C   UNL     1       7.135  25.459  51.803  1.00  0.00     0.108 C 
BRANCH  17  18
HETATM   18  C   UNL     1       7.450  25.285  53.288  1.00  0.00     0.048 C 
BRANCH  18  19
HETATM   19  C   UNL     1       7.594  23.878  53.834  1.00  0.00    -0.057 A 
HETATM   20  C   UNL     1       7.877  22.755  53.042  1.00  0.00     0.013 A 
HETATM   21  C   UNL     1       8.045  21.485  53.614  1.00  0.00    -0.061 A 
HETATM   22  C   UNL     1       8.404  20.301  52.765  1.00  0.00     0.048 C 
HETATM   23  C   UNL     1       7.901  21.334  54.996  1.00  0.00     0.007 A 
HETATM   24  C   UNL     1       7.594  22.433  55.794  1.00  0.00     0.001 A 
HETATM   25  C   UNL     1       7.446  23.695  55.218  1.00  0.00     0.007 A 
ENDBRANCH  18  19
ENDBRANCH  17  18
ENDBRANCH   1  17
TORSDOF 5
ENDMDL
MODEL 7
REMARK VINA RESULT:      -8.6      3.642      7.173
REMARK  5 active torsions:
REMARK  status: ('A' for Active; 'I' for Inactive)
REMARK    1  A    between atoms: C_4  and  C_5 
REMARK    2  A    between atoms: C_5  and  C_6 
REMARK    3  A    between atoms: C_6  and  C_7 
REMARK       I    between atoms: C_7  and  N_8 
REMARK    4  A    between atoms: N_8  and  C_9 
REMARK    5  A    between atoms: C_11  and  C_12 
ROOT
HETATM    1  C   UNL     1       5.304  26.032  53.096  1.00  0.00     0.222 C 
HETATM    2  N   UNL     1       6.514  26.133  53.751  1.00  0.00    -0.327 N 
HETATM    3  O   UNL     1       4.574  25.041  53.102  1.00  0.00    -0.273 OA
HETATM    4  H   UNL     1       7.052  26.980  53.615  1.00  0.00     0.169 HD
ENDROOT
BRANCH   2   5
HETATM    5  C   UNL     1       7.100  25.205  54.638  1.00  0.00     0.035 A 
HETATM    6  C   UNL     1       7.477  23.906  54.285  1.00  0.00     0.042 A 
HETATM    7  C   UNL     1       8.012  23.021  55.236  1.00  0.00    -0.021 A 
HETATM    8  C   UNL     1       8.182  23.465  56.554  1.00  0.00     0.012 A 
HETATM    9  C   UNL     1       7.817  24.761  56.915  1.00  0.00     0.003 A 
HETATM   10  C   UNL     1       7.276  25.624  55.963  1.00  0.00     0.029 A 
BRANCH   7  11
HETATM   11  C   UNL     1       8.379  21.660  54.874  1.00  0.00     0.010 A 
HETATM   12  C   UNL     1       8.400  21.006  53.619  1.00  0.00     0.152 A 
HETATM   13  N   UNL     1       8.826  19.742  53.697  1.00  0.00    -0.187 NA
HETATM   14  N   UNL     1       9.077  19.578  55.006  1.00  0.00    -0.289 N 
HETATM   15  H   UNL     1       9.419  18.677  55.322  1.00  0.00     0.188 HD
HETATM   16  C   UNL     1       8.833  20.695  55.750  1.00  0.00     0.123 A 
ENDBRANCH   7  11
ENDBRANCH   2   5
BRANCH   1  17
HETATM   17  C   UNL     1       4.812  27.290  52.381  1.00  0.00     0.108 C 
BRANCH  17  18
HETATM   18  C   UNL     1       5.510  27.724  51.093  1.00  0.00     0.048 C 
BRANCH  18  19
HETATM   19  C   UNL     1       4.840  27.409  49.769  1.00  0.00    -0.057 A 
HETATM   20  C   UNL     1       4.277  26.164  49.452  1.00  0.00     0.013 A 
HETATM   21  C   UNL     1       3.628  25.950  48.227  1.00  0.00    -0.061 A 
HETATM   22  C   UNL     1       2.978  24.632  47.920  1.00  0.00     0.048 C 
HETATM   23  C   UNL     1       3.566  26.991  47.295  1.00  0.00     0.007 A 
HETATM   24  C   UNL     1       4.144  28.225  47.583  1.00  0.00     0.001 A 
HETATM   25  C   UNL     1       4.772  28.433  48.811  1.00  0.00     0.007 A 
ENDBRANCH  18  19
ENDBRANCH  17  18
ENDBRANCH   1  17
TORSDOF 5
ENDMDL
MODEL 8
REMARK VINA RESULT:      -8.5      2.809      8.810
REMARK  5 active torsions:
REMARK  status: ('A' for Active; 'I' for Inactive)
REMARK    1  A    between atoms: C_4  and  C_5 
REMARK    2  A    between atoms: C_5  and  C_6 
REMARK    3  A    between atoms: C_6  and  C_7 
REMARK       I    between atoms: C_7  and  N_8 
REMARK    4  A    between atoms: N_8  and  C_9 
REMARK    5  A    between atoms: C_11  and  C_12 
ROOT
HETATM    1  C   UNL     1       7.239  27.371  54.563  1.00  0.00     0.222 C 
HETATM    2  N   UNL     1       6.381  27.519  55.632  1.00  0.00    -0.327 N 
HETATM    3  O   UNL     1       7.876  28.281  54.032  1.00  0.00    -0.273 OA
HETATM    4  H   UNL     1       5.865  26.703  55.937  1.00  0.00     0.169 HD
ENDROOT
BRANCH   2   5
HETATM    5  C   UNL     1       6.147  28.678  56.404  1.00  0.00     0.035 A 
HETATM    6  C   UNL     1       7.134  29.359  57.122  1.00  0.00     0.042 A 
HETATM    7  C   UNL     1       6.817  30.481  57.908  1.00  0.00    -0.021 A 
HETATM    8  C   UNL     1       5.489  30.924  57.950  1.00  0.00     0.012 A 
HETATM    9  C   UNL     1       4.498  30.257  57.231  1.00  0.00     0.003 A 
HETATM   10  C   UNL     1       4.825  29.138  56.466  1.00  0.00     0.029 A 
BRANCH   7  11
HETATM   11  C   UNL     1       7.840  31.174  58.677  1.00  0.00     0.010 A 
HETATM   12  C   UNL     1       9.237  31.282  58.479  1.00  0.00     0.152 A 
HETATM   13  N   UNL     1       9.837  32.037  59.403  1.00  0.00    -0.187 NA
HETATM   14  N   UNL     1       8.827  32.413  60.203  1.00  0.00    -0.289 N 
HETATM   15  H   UNL     1       9.036  33.005  60.999  1.00  0.00     0.188 HD
HETATM   16  C   UNL     1       7.613  31.930  59.808  1.00  0.00     0.123 A 
ENDBRANCH   7  11
ENDBRANCH   2   5
BRANCH   1  17
HETATM   17  C   UNL     1       7.465  25.944  54.066  1.00  0.00     0.108 C 
BRANCH  17  18
HETATM   18  C   UNL     1       6.896  24.783  54.881  1.00  0.00     0.048 C 
BRANCH  18  19
HETATM   19  C   UNL     1       7.356  23.376  54.549  1.00  0.00    -0.057 A 
HETATM   20  C   UNL     1       7.606  22.386  55.511  1.00  0.00     0.013 A 
HETATM   21  C   UNL     1       7.985  21.088  55.136  1.00  0.00    -0.061 A 
HETATM   22  C   UNL     1       8.194  20.020  56.170  1.00  0.00     0.048 C 
HETATM   23  C   UNL     1       8.140  20.786  53.780  1.00  0.00     0.007 A 
HETATM   24  C   UNL     1       7.923  21.765  52.814  1.00  0.00     0.001 A 
HETATM   25  C   UNL     1       7.530  23.048  53.195  1.00  0.00     0.007 A 
ENDBRANCH  18  19
ENDBRANCH  17  18
ENDBRANCH   1  17
TORSDOF 5
ENDMDL
MODEL 9
REMARK VINA RESULT:      -8.5      2.825      8.979
REMARK  5 active torsions:
REMARK  status: ('A' for Active; 'I' for Inactive)
REMARK    1  A    between atoms: C_4  and  C_5 
REMARK    2  A    between atoms: C_5  and  C_6 
REMARK    3  A    between atoms: C_6  and  C_7 
REMARK       I    between atoms: C_7  and  N_8 
REMARK    4  A    between atoms: N_8  and  C_9 
REMARK    5  A    between atoms: C_11  and  C_12 
ROOT
HETATM    1  C   UNL     1       7.190  27.401  54.601  1.00  0.00     0.222 C 
HETATM    2  N   UNL     1       7.310  27.434  55.975  1.00  0.00    -0.327 N 
HETATM    3  O   UNL     1       7.405  28.349  53.846  1.00  0.00    -0.273 OA
HETATM    4  H   UNL     1       7.041  26.605  56.490  1.00  0.00     0.169 HD
ENDROOT
BRANCH   2   5
HETATM    5  C   UNL     1       7.807  28.484  56.777  1.00  0.00     0.035 A 
HETATM    6  C   UNL     1       7.005  29.425  57.428  1.00  0.00     0.042 A 
HETATM    7  C   UNL     1       7.573  30.473  58.173  1.00  0.00    -0.021 A 
HETATM    8  C   UNL     1       8.968  30.555  58.270  1.00  0.00     0.012 A 
HETATM    9  C   UNL     1       9.778  29.616  57.631  1.00  0.00     0.003 A 
HETATM   10  C   UNL     1       9.199  28.590  56.886  1.00  0.00     0.029 A 
BRANCH   7  11
HETATM   11  C   UNL     1       6.739  31.469  58.829  1.00  0.00     0.010 A 
HETATM   12  C   UNL     1       6.887  32.135  60.069  1.00  0.00     0.152 A 
HETATM   13  N   UNL     1       5.908  33.010  60.311  1.00  0.00    -0.187 NA
HETATM   14  N   UNL     1       5.122  32.906  59.227  1.00  0.00    -0.289 N 
HETATM   15  H   UNL     1       4.291  33.485  59.177  1.00  0.00     0.188 HD
HETATM   16  C   UNL     1       5.578  32.005  58.310  1.00  0.00     0.123 A 
ENDBRANCH   7  11
ENDBRANCH   2   5
BRANCH   1  17
HETATM   17  C   UNL     1       6.839  26.048  53.983  1.00  0.00     0.108 C 
BRANCH  17  18
HETATM   18  C   UNL     1       6.553  24.867  54.910  1.00  0.00     0.048 C 
BRANCH  18  19
HETATM   19  C   UNL     1       7.146  23.516  54.560  1.00  0.00    -0.057 A 
HETATM   20  C   UNL     1       7.447  22.524  55.506  1.00  0.00     0.013 A 
HETATM   21  C   UNL     1       7.951  21.275  55.113  1.00  0.00    -0.061 A 
HETATM   22  C   UNL     1       8.216  20.200  56.126  1.00  0.00     0.048 C 
HETATM   23  C   UNL     1       8.182  21.027  53.757  1.00  0.00     0.007 A 
HETATM   24  C   UNL     1       7.914  22.010  52.808  1.00  0.00     0.001 A 
HETATM   25  C   UNL     1       7.397  23.243  53.206  1.00  0.00     0.007 A 
ENDBRANCH  18  19
ENDBRANCH  17  18
ENDBRANCH   1  17
TORSDOF 5
ENDMDL
MODEL 10
REMARK VINA RESULT:      -8.3      5.692      9.203
REMARK  5 active torsions:
REMARK  status: ('A' for Active; 'I' for Inactive)
REMARK    1  A    between atoms: C_4  and  C_5 
REMARK    2  A    between atoms: C_5  and  C_6 
REMARK    3  A    between atoms: C_6  and  C_7 
REMARK       I    between atoms: C_7  and  N_8 
REMARK    4  A    between atoms: N_8  and  C_9 
REMARK    5  A    between atoms: C_11  and  C_12 
ROOT
HETATM    1  C   UNL     1       4.908  26.787  52.308  1.00  0.00     0.222 C 
HETATM    2  N   UNL     1       5.260  26.803  50.975  1.00  0.00    -0.327 N 
HETATM    3  O   UNL     1       4.199  27.625  52.865  1.00  0.00    -0.273 OA
HETATM    4  H   UNL     1       5.904  26.092  50.651  1.00  0.00     0.169 HD
ENDROOT
BRANCH   2   5
HETATM    5  C   UNL     1       4.802  27.677  49.966  1.00  0.00     0.035 A 
HETATM    6  C   UNL     1       3.666  27.451  49.184  1.00  0.00     0.042 A 
HETATM    7  C   UNL     1       3.296  28.345  48.164  1.00  0.00    -0.021 A 
HETATM    8  C   UNL     1       4.079  29.486  47.948  1.00  0.00     0.012 A 
HETATM    9  C   UNL     1       5.210  29.726  48.728  1.00  0.00     0.003 A 
HETATM   10  C   UNL     1       5.571  28.823  49.728  1.00  0.00     0.029 A 
BRANCH   7  11
HETATM   11  C   UNL     1       2.129  28.095  47.331  1.00  0.00     0.010 A 
HETATM   12  C   UNL     1       1.194  28.986  46.751  1.00  0.00     0.152 A 
HETATM   13  N   UNL     1       0.263  28.363  46.023  1.00  0.00    -0.187 NA
HETATM   14  N   UNL     1       0.594  27.067  46.138  1.00  0.00    -0.289 N 
HETATM   15  H   UNL     1       0.020  26.379  45.663  1.00  0.00     0.188 HD
HETATM   16  C   UNL     1       1.704  26.855  46.903  1.00  0.00     0.123 A 
ENDBRANCH   7  11
ENDBRANCH   2   5
BRANCH   1  17
HETATM   17  C   UNL     1       5.381  25.583  53.121  1.00  0.00     0.108 C 
BRANCH  17  18
HETATM   18  C   UNL     1       6.796  25.052  52.895  1.00  0.00     0.048 C 
BRANCH  18  19
HETATM   19  C   UNL     1       7.198  23.759  53.578  1.00  0.00    -0.057 A 
HETATM   20  C   UNL     1       7.670  22.627  52.897  1.00  0.00     0.013 A 
HETATM   21  C   UNL     1       8.071  21.476  53.591  1.00  0.00    -0.061 A 
HETATM   22  C   UNL     1       8.629  20.291  52.858  1.00  0.00     0.048 C 
HETATM   23  C   UNL     1       7.972  21.449  54.986  1.00  0.00     0.007 A 
HETATM   24  C   UNL     1       7.479  22.554  55.675  1.00  0.00     0.001 A 
HETATM   25  C   UNL     1       7.099  23.701  54.978  1.00  0.00     0.007 A 
ENDBRANCH  18  19
ENDBRANCH  17  18
ENDBRANCH   1  17
TORSDOF 5
ENDMDL
