MODEL 1
REMARK VINA RESULT:      -8.2      0.000      0.000
REMARK  2 active torsions:
REMARK  status: ('A' for Active; 'I' for Inactive)
REMARK    1  A    between atoms: C_3  and  C_4 
REMARK    2  A    between atoms: C_19  and  O_20 
ROOT
HETATM    1  C   UNL     1       3.885  34.126  64.527  1.00  0.00     0.137 C 
HETATM    2  N   UNL     1       4.346  32.821  63.965  1.00  0.00    -0.278 NA
HETATM    3  C   UNL     1       5.679  32.828  63.459  1.00  0.00     0.036 A 
HETATM    4  C   UNL     1       6.816  32.995  64.284  1.00  0.00     0.053 A 
HETATM    5  N   UNL     1       6.743  33.270  65.670  1.00  0.00    -0.356 N 
HETATM    6  C   UNL     1       5.784  34.051  66.273  1.00  0.00     0.041 A 
HETATM    7  C   UNL     1       4.597  34.450  65.789  1.00  0.00     0.056 A 
HETATM    8  C   UNL     1       3.959  35.265  66.832  1.00  0.00     0.251 A 
HETATM    9  O   UNL     1       2.853  35.767  66.782  1.00  0.00    -0.268 OA
HETATM   10  N   UNL     1       4.835  35.346  67.882  1.00  0.00    -0.351 N 
HETATM   11  C   UNL     1       6.024  34.596  67.655  1.00  0.00     0.180 A 
HETATM   12  C   UNL     1       5.850  32.612  62.083  1.00  0.00     0.026 A 
HETATM   13  C   UNL     1       7.124  32.547  61.520  1.00  0.00     0.002 A 
HETATM   14  C   UNL     1       8.246  32.685  62.328  1.00  0.00     0.002 A 
HETATM   15  C   UNL     1       8.092  32.903  63.698  1.00  0.00     0.031 A 
HETATM   16  H   UNL     1       4.376  32.166  64.752  1.00  0.00     0.128 HD
HETATM   17  H   UNL     1       7.647  33.273  66.131  1.00  0.00     0.166 HD
HETATM   18  H   UNL     1       4.592  35.842  68.729  1.00  0.00     0.163 HD
ENDROOT
BRANCH   1  19
HETATM   19  C   UNL     1       3.812  35.188  63.437  1.00  0.00    -0.002 A 
HETATM   20  C   UNL     1       4.581  36.364  63.465  1.00  0.00     0.012 A 
HETATM   21  C   UNL     1       4.431  37.344  62.477  1.00  0.00     0.001 A 
HETATM   22  C   UNL     1       3.508  37.169  61.448  1.00  0.00     0.003 A 
HETATM   23  C   UNL     1       2.750  36.004  61.389  1.00  0.00     0.037 A 
HETATM   24  C   UNL     1       2.919  35.024  62.363  1.00  0.00     0.073 A 
BRANCH  24  25
HETATM   25  O   UNL     1       2.198  33.869  62.206  1.00  0.00    -0.360 OA
HETATM   26  H   UNL     1       2.039  33.519  63.109  1.00  0.00     0.217 HD
ENDBRANCH  24  25
ENDBRANCH   1  19
TORSDOF 2
ENDMDL
MODEL 2
REMARK VINA RESULT:      -8.1     10.617     13.516
REMARK  2 active torsions:
REMARK  status: ('A' for Active; 'I' for Inactive)
REMARK    1  A    between atoms: C_3  and  C_4 
REMARK    2  A    between atoms: C_19  and  O_20 
ROOT
HETATM    1  C   UNL     1       6.055  25.079  55.598  1.00  0.00     0.137 C 
HETATM    2  N   UNL     1       4.874  25.164  54.687  1.00  0.00    -0.278 NA
HETATM    3  C   UNL     1       5.118  25.841  53.457  1.00  0.00     0.036 A 
HETATM    4  C   UNL     1       5.985  25.338  52.458  1.00  0.00     0.053 A 
HETATM    5  N   UNL     1       6.769  24.171  52.620  1.00  0.00    -0.356 N 
HETATM    6  C   UNL     1       7.358  23.768  53.797  1.00  0.00     0.041 A 
HETATM    7  C   UNL     1       7.093  24.171  55.050  1.00  0.00     0.056 A 
HETATM    8  C   UNL     1       8.001  23.433  55.939  1.00  0.00     0.251 A 
HETATM    9  O   UNL     1       8.032  23.493  57.153  1.00  0.00    -0.268 OA
HETATM   10  N   UNL     1       8.801  22.649  55.150  1.00  0.00    -0.351 N 
HETATM   11  C   UNL     1       8.474  22.759  53.768  1.00  0.00     0.180 A 
HETATM   12  C   UNL     1       4.421  27.037  53.227  1.00  0.00     0.026 A 
HETATM   13  C   UNL     1       4.561  27.729  52.025  1.00  0.00     0.002 A 
HETATM   14  C   UNL     1       5.391  27.228  51.030  1.00  0.00     0.002 A 
HETATM   15  C   UNL     1       6.094  26.041  51.245  1.00  0.00     0.031 A 
HETATM   16  H   UNL     1       4.659  24.202  54.410  1.00  0.00     0.128 HD
HETATM   17  H   UNL     1       7.269  23.898  51.779  1.00  0.00     0.166 HD
HETATM   18  H   UNL     1       9.491  22.031  55.554  1.00  0.00     0.163 HD
ENDROOT
BRANCH   1  19
HETATM   19  C   UNL     1       6.474  26.466  56.070  1.00  0.00    -0.002 A 
HETATM   20  C   UNL     1       7.749  27.003  55.822  1.00  0.00     0.012 A 
HETATM   21  C   UNL     1       8.114  28.254  56.333  1.00  0.00     0.001 A 
HETATM   22  C   UNL     1       7.214  28.988  57.104  1.00  0.00     0.003 A 
HETATM   23  C   UNL     1       5.939  28.485  57.345  1.00  0.00     0.037 A 
HETATM   24  C   UNL     1       5.576  27.250  56.817  1.00  0.00     0.073 A 
BRANCH  24  25
HETATM   25  O   UNL     1       4.283  26.845  57.027  1.00  0.00    -0.360 OA
HETATM   26  H   UNL     1       4.286  26.344  57.870  1.00  0.00     0.217 HD
ENDBRANCH  24  25
ENDBRANCH   1  19
TORSDOF 2
ENDMDL
MODEL 3
REMARK VINA RESULT:      -8.1      1.958      2.573
REMARK  2 active torsions:
REMARK  status: ('A' for Active; 'I' for Inactive)
REMARK    1  A    between atoms: C_3  and  C_4 
REMARK    2  A    between atoms: C_19  and  O_20 
ROOT
HETATM    1  C   UNL     1       5.000  32.382  62.909  1.00  0.00     0.137 C 
HETATM    2  N   UNL     1       5.826  31.242  62.410  1.00  0.00    -0.278 NA
HETATM    3  C   UNL     1       7.050  31.622  61.785  1.00  0.00     0.036 A 
HETATM    4  C   UNL     1       8.119  32.228  62.486  1.00  0.00     0.053 A 
HETATM    5  N   UNL     1       8.045  32.607  63.848  1.00  0.00    -0.356 N 
HETATM    6  C   UNL     1       6.923  33.099  64.474  1.00  0.00     0.041 A 
HETATM    7  C   UNL     1       5.643  33.045  64.071  1.00  0.00     0.056 A 
HETATM    8  C   UNL     1       4.839  33.717  65.101  1.00  0.00     0.251 A 
HETATM    9  O   UNL     1       3.630  33.831  65.114  1.00  0.00    -0.268 OA
HETATM   10  N   UNL     1       5.704  34.181  66.058  1.00  0.00    -0.351 N 
HETATM   11  C   UNL     1       7.056  33.831  65.781  1.00  0.00     0.180 A 
HETATM   12  C   UNL     1       7.197  31.331  60.420  1.00  0.00     0.026 A 
HETATM   13  C   UNL     1       8.384  31.619  59.749  1.00  0.00     0.002 A 
HETATM   14  C   UNL     1       9.447  32.191  60.437  1.00  0.00     0.002 A 
HETATM   15  C   UNL     1       9.316  32.489  61.795  1.00  0.00     0.031 A 
HETATM   16  H   UNL     1       6.117  30.716  63.239  1.00  0.00     0.128 HD
HETATM   17  H   UNL     1       8.925  32.947  64.222  1.00  0.00     0.166 HD
HETATM   18  H   UNL     1       5.365  34.659  66.882  1.00  0.00     0.163 HD
ENDROOT
BRANCH   1  19
HETATM   19  C   UNL     1       4.517  33.246  61.751  1.00  0.00    -0.002 A 
HETATM   20  C   UNL     1       4.901  34.588  61.588  1.00  0.00     0.012 A 
HETATM   21  C   UNL     1       4.378  35.364  60.548  1.00  0.00     0.001 A 
HETATM   22  C   UNL     1       3.460  34.815  59.654  1.00  0.00     0.003 A 
HETATM   23  C   UNL     1       3.080  33.483  59.784  1.00  0.00     0.037 A 
HETATM   24  C   UNL     1       3.619  32.711  60.809  1.00  0.00     0.073 A 
BRANCH  24  25
HETATM   25  O   UNL     1       3.263  31.388  60.836  1.00  0.00    -0.360 OA
HETATM   26  H   UNL     1       3.217  31.096  59.900  1.00  0.00     0.217 HD
ENDBRANCH  24  25
ENDBRANCH   1  19
TORSDOF 2
ENDMDL
MODEL 4
REMARK VINA RESULT:      -8.0      8.459     10.957
REMARK  2 active torsions:
REMARK  status: ('A' for Active; 'I' for Inactive)
REMARK    1  A    between atoms: C_3  and  C_4 
REMARK    2  A    between atoms: C_19  and  O_20 
ROOT
HETATM    1  C   UNL     1       6.932  27.971  57.720  1.00  0.00     0.137 C 
HETATM    2  N   UNL     1       5.691  28.796  57.829  1.00  0.00    -0.278 NA
HETATM    3  C   UNL     1       5.283  29.421  56.614  1.00  0.00     0.036 A 
HETATM    4  C   UNL     1       4.827  28.695  55.489  1.00  0.00     0.053 A 
HETATM    5  N   UNL     1       4.826  27.281  55.419  1.00  0.00    -0.356 N 
HETATM    6  C   UNL     1       5.780  26.459  55.975  1.00  0.00     0.041 A 
HETATM    7  C   UNL     1       6.695  26.748  56.913  1.00  0.00     0.056 A 
HETATM    8  C   UNL     1       7.468  25.521  57.152  1.00  0.00     0.251 A 
HETATM    9  O   UNL     1       8.358  25.374  57.967  1.00  0.00    -0.268 OA
HETATM   10  N   UNL     1       6.991  24.563  56.296  1.00  0.00    -0.351 N 
HETATM   11  C   UNL     1       5.901  25.033  55.510  1.00  0.00     0.180 A 
HETATM   12  C   UNL     1       5.297  30.823  56.570  1.00  0.00     0.026 A 
HETATM   13  C   UNL     1       4.858  31.511  55.440  1.00  0.00     0.002 A 
HETATM   14  C   UNL     1       4.386  30.805  54.340  1.00  0.00     0.002 A 
HETATM   15  C   UNL     1       4.368  29.409  54.367  1.00  0.00     0.031 A 
HETATM   16  H   UNL     1       4.933  28.143  58.047  1.00  0.00     0.128 HD
HETATM   17  H   UNL     1       4.387  26.917  54.579  1.00  0.00     0.166 HD
HETATM   18  H   UNL     1       7.363  23.623  56.304  1.00  0.00     0.163 HD
ENDROOT
BRANCH   1  19
HETATM   19  C   UNL     1       8.134  28.846  57.385  1.00  0.00    -0.002 A 
HETATM   20  C   UNL     1       8.751  28.844  56.122  1.00  0.00     0.012 A 
HETATM   21  C   UNL     1       9.895  29.612  55.880  1.00  0.00     0.001 A 
HETATM   22  C   UNL     1      10.446  30.392  56.895  1.00  0.00     0.003 A 
HETATM   23  C   UNL     1       9.840  30.425  58.148  1.00  0.00     0.037 A 
HETATM   24  C   UNL     1       8.691  29.675  58.376  1.00  0.00     0.073 A 
BRANCH  24  25
HETATM   25  O   UNL     1       8.101  29.809  59.606  1.00  0.00    -0.360 OA
HETATM   26  H   UNL     1       7.530  29.020  59.724  1.00  0.00     0.217 HD
ENDBRANCH  24  25
ENDBRANCH   1  19
TORSDOF 2
ENDMDL
MODEL 5
REMARK VINA RESULT:      -7.5     11.073     13.944
REMARK  2 active torsions:
REMARK  status: ('A' for Active; 'I' for Inactive)
REMARK    1  A    between atoms: C_3  and  C_4 
REMARK    2  A    between atoms: C_19  and  O_20 
ROOT
HETATM    1  C   UNL     1       5.775  25.605  54.422  1.00  0.00     0.137 C 
HETATM    2  N   UNL     1       5.746  26.539  55.587  1.00  0.00    -0.278 NA
HETATM    3  C   UNL     1       6.920  27.333  55.744  1.00  0.00     0.036 A 
HETATM    4  C   UNL     1       7.306  28.331  54.819  1.00  0.00     0.053 A 
HETATM    5  N   UNL     1       6.626  28.573  53.601  1.00  0.00    -0.356 N 
HETATM    6  C   UNL     1       6.040  27.607  52.815  1.00  0.00     0.041 A 
HETATM    7  C   UNL     1       5.713  26.345  53.137  1.00  0.00     0.056 A 
HETATM    8  C   UNL     1       5.115  25.738  51.940  1.00  0.00     0.251 A 
HETATM    9  O   UNL     1       4.653  24.617  51.852  1.00  0.00    -0.268 OA
HETATM   10  N   UNL     1       5.158  26.674  50.940  1.00  0.00    -0.351 N 
HETATM   11  C   UNL     1       5.705  27.912  51.380  1.00  0.00     0.180 A 
HETATM   12  C   UNL     1       7.689  27.129  56.900  1.00  0.00     0.026 A 
HETATM   13  C   UNL     1       8.819  27.904  57.156  1.00  0.00     0.002 A 
HETATM   14  C   UNL     1       9.190  28.903  56.264  1.00  0.00     0.002 A 
HETATM   15  C   UNL     1       8.437  29.116  55.108  1.00  0.00     0.031 A 
HETATM   16  H   UNL     1       5.005  27.218  55.389  1.00  0.00     0.128 HD
HETATM   17  H   UNL     1       6.976  29.380  53.094  1.00  0.00     0.166 HD
HETATM   18  H   UNL     1       4.774  26.480  50.025  1.00  0.00     0.163 HD
ENDROOT
BRANCH   1  19
HETATM   19  C   UNL     1       6.858  24.548  54.604  1.00  0.00    -0.002 A 
HETATM   20  C   UNL     1       7.785  24.224  53.598  1.00  0.00     0.012 A 
HETATM   21  C   UNL     1       8.718  23.199  53.785  1.00  0.00     0.001 A 
HETATM   22  C   UNL     1       8.740  22.476  54.977  1.00  0.00     0.003 A 
HETATM   23  C   UNL     1       7.845  22.793  55.994  1.00  0.00     0.037 A 
HETATM   24  C   UNL     1       6.933  23.828  55.810  1.00  0.00     0.073 A 
BRANCH  24  25
HETATM   25  O   UNL     1       6.130  24.139  56.877  1.00  0.00    -0.360 OA
HETATM   26  H   UNL     1       6.486  23.639  57.643  1.00  0.00     0.217 HD
ENDBRANCH  24  25
ENDBRANCH   1  19
TORSDOF 2
ENDMDL
MODEL 6
REMARK VINA RESULT:      -7.4      2.292      5.322
REMARK  2 active torsions:
REMARK  status: ('A' for Active; 'I' for Inactive)
REMARK    1  A    between atoms: C_3  and  C_4 
REMARK    2  A    between atoms: C_19  and  O_20 
ROOT
HETATM    1  C   UNL     1       3.981  33.575  62.348  1.00  0.00     0.137 C 
HETATM    2  N   UNL     1       3.316  33.505  63.684  1.00  0.00    -0.278 NA
HETATM    3  C   UNL     1       3.898  34.338  64.684  1.00  0.00     0.036 A 
HETATM    4  C   UNL     1       3.866  35.752  64.624  1.00  0.00     0.053 A 
HETATM    5  N   UNL     1       3.345  36.476  63.525  1.00  0.00    -0.356 N 
HETATM    6  C   UNL     1       3.444  36.095  62.207  1.00  0.00     0.041 A 
HETATM    7  C   UNL     1       3.748  34.890  61.700  1.00  0.00     0.056 A 
HETATM    8  C   UNL     1       3.719  35.019  60.236  1.00  0.00     0.251 A 
HETATM    9  O   UNL     1       3.898  34.129  59.428  1.00  0.00    -0.268 OA
HETATM   10  N   UNL     1       3.436  36.328  59.946  1.00  0.00    -0.351 N 
HETATM   11  C   UNL     1       3.219  37.108  61.117  1.00  0.00     0.180 A 
HETATM   12  C   UNL     1       4.485  33.708  65.791  1.00  0.00     0.026 A 
HETATM   13  C   UNL     1       5.024  34.453  66.839  1.00  0.00     0.002 A 
HETATM   14  C   UNL     1       4.974  35.841  66.799  1.00  0.00     0.002 A 
HETATM   15  C   UNL     1       4.396  36.483  65.702  1.00  0.00     0.031 A 
HETATM   16  H   UNL     1       2.374  33.884  63.554  1.00  0.00     0.128 HD
HETATM   17  H   UNL     1       3.316  37.479  63.678  1.00  0.00     0.166 HD
HETATM   18  H   UNL     1       3.341  36.643  58.990  1.00  0.00     0.163 HD
ENDROOT
BRANCH   1  19
HETATM   19  C   UNL     1       5.406  33.041  62.426  1.00  0.00    -0.002 A 
HETATM   20  C   UNL     1       6.532  33.824  62.118  1.00  0.00     0.012 A 
HETATM   21  C   UNL     1       7.817  33.272  62.136  1.00  0.00     0.001 A 
HETATM   22  C   UNL     1       8.001  31.928  62.457  1.00  0.00     0.003 A 
HETATM   23  C   UNL     1       6.903  31.139  62.785  1.00  0.00     0.037 A 
HETATM   24  C   UNL     1       5.629  31.699  62.785  1.00  0.00     0.073 A 
BRANCH  24  25
HETATM   25  O   UNL     1       4.599  30.890  63.189  1.00  0.00    -0.360 OA
HETATM   26  H   UNL     1       3.897  31.487  63.526  1.00  0.00     0.217 HD
ENDBRANCH  24  25
ENDBRANCH   1  19
TORSDOF 2
ENDMDL
MODEL 7
REMARK VINA RESULT:      -7.4     10.068     13.042
REMARK  2 active torsions:
REMARK  status: ('A' for Active; 'I' for Inactive)
REMARK    1  A    between atoms: C_3  and  C_4 
REMARK    2  A    between atoms: C_19  and  O_20 
ROOT
HETATM    1  C   UNL     1       6.124  26.540  54.790  1.00  0.00     0.137 C 
HETATM    2  N   UNL     1       4.777  26.886  55.336  1.00  0.00    -0.278 NA
HETATM    3  C   UNL     1       4.314  28.191  54.998  1.00  0.00     0.036 A 
HETATM    4  C   UNL     1       3.994  28.577  53.675  1.00  0.00     0.053 A 
HETATM    5  N   UNL     1       4.194  27.744  52.548  1.00  0.00    -0.356 N 
HETATM    6  C   UNL     1       5.240  26.865  52.388  1.00  0.00     0.041 A 
HETATM    7  C   UNL     1       6.082  26.382  53.315  1.00  0.00     0.056 A 
HETATM    8  C   UNL     1       7.014  25.481  52.623  1.00  0.00     0.251 A 
HETATM    9  O   UNL     1       7.895  24.820  53.135  1.00  0.00    -0.268 OA
HETATM   10  N   UNL     1       6.699  25.511  51.290  1.00  0.00    -0.351 N 
HETATM   11  C   UNL     1       5.573  26.339  51.018  1.00  0.00     0.180 A 
HETATM   12  C   UNL     1       4.132  29.106  56.046  1.00  0.00     0.026 A 
HETATM   13  C   UNL     1       3.628  30.383  55.805  1.00  0.00     0.002 A 
HETATM   14  C   UNL     1       3.288  30.760  54.512  1.00  0.00     0.002 A 
HETATM   15  C   UNL     1       3.466  29.862  53.457  1.00  0.00     0.031 A 
HETATM   16  H   UNL     1       4.114  26.254  54.879  1.00  0.00     0.128 HD
HETATM   17  H   UNL     1       3.831  28.136  51.684  1.00  0.00     0.166 HD
HETATM   18  H   UNL     1       7.199  24.941  50.621  1.00  0.00     0.163 HD
ENDROOT
BRANCH   1  19
HETATM   19  C   UNL     1       7.199  27.433  55.399  1.00  0.00    -0.002 A 
HETATM   20  C   UNL     1       7.913  28.385  54.652  1.00  0.00     0.012 A 
HETATM   21  C   UNL     1       8.939  29.135  55.237  1.00  0.00     0.001 A 
HETATM   22  C   UNL     1       9.273  28.945  56.576  1.00  0.00     0.003 A 
HETATM   23  C   UNL     1       8.567  28.021  57.341  1.00  0.00     0.037 A 
HETATM   24  C   UNL     1       7.533  27.294  56.758  1.00  0.00     0.073 A 
BRANCH  24  25
HETATM   25  O   UNL     1       6.828  26.456  57.583  1.00  0.00    -0.360 OA
HETATM   26  H   UNL     1       5.886  26.720  57.502  1.00  0.00     0.217 HD
ENDBRANCH  24  25
ENDBRANCH   1  19
TORSDOF 2
ENDMDL
MODEL 8
REMARK VINA RESULT:      -7.3      9.763     12.395
REMARK  2 active torsions:
REMARK  status: ('A' for Active; 'I' for Inactive)
REMARK    1  A    between atoms: C_3  and  C_4 
REMARK    2  A    between atoms: C_19  and  O_20 
ROOT
HETATM    1  C   UNL     1       5.505  26.710  55.394  1.00  0.00     0.137 C 
HETATM    2  N   UNL     1       5.417  25.473  56.226  1.00  0.00    -0.278 NA
HETATM    3  C   UNL     1       6.632  24.735  56.327  1.00  0.00     0.036 A 
HETATM    4  C   UNL     1       7.780  25.227  56.992  1.00  0.00     0.053 A 
HETATM    5  N   UNL     1       7.871  26.532  57.533  1.00  0.00    -0.356 N 
HETATM    6  C   UNL     1       7.302  27.659  56.984  1.00  0.00     0.041 A 
HETATM    7  C   UNL     1       6.335  27.746  56.057  1.00  0.00     0.056 A 
HETATM    8  C   UNL     1       6.094  29.177  55.822  1.00  0.00     0.251 A 
HETATM    9  O   UNL     1       5.258  29.657  55.081  1.00  0.00    -0.268 OA
HETATM   10  N   UNL     1       6.976  29.876  56.603  1.00  0.00    -0.351 N 
HETATM   11  C   UNL     1       7.784  29.021  57.406  1.00  0.00     0.180 A 
HETATM   12  C   UNL     1       6.655  23.446  55.775  1.00  0.00     0.026 A 
HETATM   13  C   UNL     1       7.787  22.638  55.882  1.00  0.00     0.002 A 
HETATM   14  C   UNL     1       8.908  23.106  56.556  1.00  0.00     0.002 A 
HETATM   15  C   UNL     1       8.902  24.388  57.109  1.00  0.00     0.031 A 
HETATM   16  H   UNL     1       5.228  25.786  57.183  1.00  0.00     0.128 HD
HETATM   17  H   UNL     1       8.727  26.697  58.053  1.00  0.00     0.166 HD
HETATM   18  H   UNL     1       6.972  30.887  56.621  1.00  0.00     0.163 HD
ENDROOT
BRANCH   1  19
HETATM   19  C   UNL     1       5.795  26.363  53.939  1.00  0.00    -0.002 A 
HETATM   20  C   UNL     1       7.052  25.912  53.498  1.00  0.00     0.012 A 
HETATM   21  C   UNL     1       7.292  25.671  52.141  1.00  0.00     0.001 A 
HETATM   22  C   UNL     1       6.285  25.878  51.200  1.00  0.00     0.003 A 
HETATM   23  C   UNL     1       5.027  26.305  51.616  1.00  0.00     0.037 A 
HETATM   24  C   UNL     1       4.789  26.524  52.970  1.00  0.00     0.073 A 
BRANCH  24  25
HETATM   25  O   UNL     1       3.510  26.869  53.321  1.00  0.00    -0.360 OA
HETATM   26  H   UNL     1       3.055  26.033  53.562  1.00  0.00     0.217 HD
ENDBRANCH  24  25
ENDBRANCH   1  19
TORSDOF 2
ENDMDL
MODEL 9
REMARK VINA RESULT:      -7.3      9.620     12.557
REMARK  2 active torsions:
REMARK  status: ('A' for Active; 'I' for Inactive)
REMARK    1  A    between atoms: C_3  and  C_4 
REMARK    2  A    between atoms: C_19  and  O_20 
ROOT
HETATM    1  C   UNL     1       7.694  27.844  54.683  1.00  0.00     0.137 C 
HETATM    2  N   UNL     1       7.292  28.548  53.429  1.00  0.00    -0.278 NA
HETATM    3  C   UNL     1       5.886  28.599  53.199  1.00  0.00     0.036 A 
HETATM    4  C   UNL     1       4.996  29.330  54.021  1.00  0.00     0.053 A 
HETATM    5  N   UNL     1       5.394  29.998  55.204  1.00  0.00    -0.356 N 
HETATM    6  C   UNL     1       6.357  29.552  56.080  1.00  0.00     0.041 A 
HETATM    7  C   UNL     1       7.304  28.620  55.886  1.00  0.00     0.056 A 
HETATM    8  C   UNL     1       8.073  28.522  57.134  1.00  0.00     0.251 A 
HETATM    9  O   UNL     1       9.043  27.817  57.333  1.00  0.00    -0.268 OA
HETATM   10  N   UNL     1       7.504  29.384  58.035  1.00  0.00    -0.351 N 
HETATM   11  C   UNL     1       6.417  30.113  57.475  1.00  0.00     0.180 A 
HETATM   12  C   UNL     1       5.388  27.923  52.075  1.00  0.00     0.026 A 
HETATM   13  C   UNL     1       4.034  27.971  51.749  1.00  0.00     0.002 A 
HETATM   14  C   UNL     1       3.158  28.708  52.538  1.00  0.00     0.002 A 
HETATM   15  C   UNL     1       3.637  29.384  53.662  1.00  0.00     0.031 A 
HETATM   16  H   UNL     1       7.565  29.528  53.552  1.00  0.00     0.128 HD
HETATM   17  H   UNL     1       4.653  30.547  55.629  1.00  0.00     0.166 HD
HETATM   18  H   UNL     1       7.890  29.501  58.962  1.00  0.00     0.163 HD
ENDROOT
BRANCH   1  19
HETATM   19  C   UNL     1       7.324  26.367  54.615  1.00  0.00    -0.002 A 
HETATM   20  C   UNL     1       6.590  25.718  55.622  1.00  0.00     0.012 A 
HETATM   21  C   UNL     1       6.332  24.344  55.551  1.00  0.00     0.001 A 
HETATM   22  C   UNL     1       6.806  23.594  54.476  1.00  0.00     0.003 A 
HETATM   23  C   UNL     1       7.518  24.220  53.457  1.00  0.00     0.037 A 
HETATM   24  C   UNL     1       7.754  25.590  53.524  1.00  0.00     0.073 A 
BRANCH  24  25
HETATM   25  O   UNL     1       8.395  26.158  52.454  1.00  0.00    -0.360 OA
HETATM   26  H   UNL     1       9.302  25.785  52.448  1.00  0.00     0.217 HD
ENDBRANCH  24  25
ENDBRANCH   1  19
TORSDOF 2
ENDMDL
MODEL 10
REMARK VINA RESULT:      -7.2     10.422     13.357
REMARK  2 active torsions:
REMARK  status: ('A' for Active; 'I' for Inactive)
REMARK    1  A    between atoms: C_3  and  C_4 
REMARK    2  A    between atoms: C_19  and  O_20 
ROOT
HETATM    1  C   UNL     1       6.708  28.121  53.356  1.00  0.00     0.137 C 
HETATM    2  N   UNL     1       7.880  27.249  53.669  1.00  0.00    -0.278 NA
HETATM    3  C   UNL     1       7.545  25.970  54.201  1.00  0.00     0.036 A 
HETATM    4  C   UNL     1       6.870  24.976  53.454  1.00  0.00     0.053 A 
HETATM    5  N   UNL     1       6.375  25.184  52.145  1.00  0.00    -0.356 N 
HETATM    6  C   UNL     1       5.840  26.364  51.678  1.00  0.00     0.041 A 
HETATM    7  C   UNL     1       5.940  27.597  52.199  1.00  0.00     0.056 A 
HETATM    8  C   UNL     1       5.188  28.499  51.316  1.00  0.00     0.251 A 
HETATM    9  O   UNL     1       5.085  29.704  51.432  1.00  0.00    -0.268 OA
HETATM   10  N   UNL     1       4.634  27.734  50.323  1.00  0.00    -0.351 N 
HETATM   11  C   UNL     1       4.995  26.360  50.433  1.00  0.00     0.180 A 
HETATM   12  C   UNL     1       7.952  25.689  55.514  1.00  0.00     0.026 A 
HETATM   13  C   UNL     1       7.713  24.440  56.088  1.00  0.00     0.002 A 
HETATM   14  C   UNL     1       7.074  23.451  55.351  1.00  0.00     0.002 A 
HETATM   15  C   UNL     1       6.660  23.717  54.044  1.00  0.00     0.031 A 
HETATM   16  H   UNL     1       8.328  27.042  52.772  1.00  0.00     0.128 HD
HETATM   17  H   UNL     1       5.995  24.346  51.716  1.00  0.00     0.166 HD
HETATM   18  H   UNL     1       4.090  28.153  49.582  1.00  0.00     0.163 HD
ENDROOT
BRANCH   1  19
HETATM   19  C   UNL     1       5.953  28.488  54.627  1.00  0.00    -0.002 A 
HETATM   20  C   UNL     1       4.595  28.181  54.824  1.00  0.00     0.012 A 
HETATM   21  C   UNL     1       3.924  28.598  55.979  1.00  0.00     0.001 A 
HETATM   22  C   UNL     1       4.595  29.332  56.955  1.00  0.00     0.003 A 
HETATM   23  C   UNL     1       5.944  29.630  56.791  1.00  0.00     0.037 A 
HETATM   24  C   UNL     1       6.611  29.195  55.650  1.00  0.00     0.073 A 
BRANCH  24  25
HETATM   25  O   UNL     1       7.955  29.456  55.584  1.00  0.00    -0.360 OA
HETATM   26  H   UNL     1       8.040  30.370  55.237  1.00  0.00     0.217 HD
ENDBRANCH  24  25
ENDBRANCH   1  19
TORSDOF 2
ENDMDL
