MODEL 1
REMARK VINA RESULT:      -8.7      0.000      0.000
REMARK  8 active torsions:
REMARK  status: ('A' for Active; 'I' for Inactive)
REMARK    1  A    between atoms: CG_8  and  CB_9 
REMARK    2  A    between atoms: CB_9  and  CA_10 
REMARK    3  A    between atoms: CA_10  and  N_11 
REMARK    4  A    between atoms: CA_10  and  C_14 
REMARK    5  A    between atoms: N_11  and  C_19 
REMARK    6  A    between atoms: C_14  and  O_15 
REMARK    7  A    between atoms: C_19  and  C_20 
REMARK    8  A    between atoms: C_22  and  C_23 
ROOT
ATOM      1  CA  TRP A   1       6.489  26.240  56.371  1.00  0.00     0.214 C 
ENDROOT
BRANCH   1   2
ATOM      2  CB  TRP A   1       7.472  25.066  56.422  1.00  0.00     0.076 C 
BRANCH   2   3
ATOM      3  CG  TRP A   1       7.632  24.394  55.098  1.00  0.00    -0.028 A 
ATOM      4  CD2 TRP A   1       7.759  22.988  54.855  1.00  0.00    -0.002 A 
ATOM      5  CE3 TRP A   1       7.756  21.839  55.675  1.00  0.00     0.014 A 
ATOM      6  CE2 TRP A   1       7.919  22.818  53.479  1.00  0.00     0.042 A 
ATOM      7  CZ3 TRP A   1       7.930  20.577  55.094  1.00  0.00     0.001 A 
ATOM      8  CH2 TRP A   1       8.098  20.445  53.718  1.00  0.00     0.002 A 
ATOM      9  CZ2 TRP A   1       8.092  21.565  52.883  1.00  0.00     0.030 A 
ATOM     10  NE1 TRP A   1       7.859  24.066  52.903  1.00  0.00    -0.365 N 
ATOM     11  HE1 TRP A   1       7.923  24.239  51.908  1.00  0.00     0.165 HD
ATOM     12  CD1 TRP A   1       7.696  25.023  53.870  1.00  0.00     0.096 A 
ENDBRANCH   2   3
ENDBRANCH   1   2
BRANCH   1  13
ATOM     13  N   TRP A   1       7.072  27.467  57.041  1.00  0.00    -0.064 N 
ATOM     14  H1  TRP A   1       6.240  28.057  57.245  1.00  0.00     0.278 HD
ATOM     15  H2  TRP A   1       7.451  27.243  57.968  1.00  0.00     0.278 HD
BRANCH  13  16
HETATM   16  C   UNK A   0       8.049  28.271  56.264  1.00  0.00     0.280 C 
BRANCH  16  17
HETATM   17  C   UNK A   0       8.747  29.253  57.130  1.00  0.00     0.027 A 
HETATM   18  S   UNK A   0       8.054  29.790  58.609  1.00  0.00    -0.076 SA
HETATM   19  C   UNK A   0       9.407  30.815  58.858  1.00  0.00     0.079 A 
HETATM   20  N   UNK A   0      10.328  30.769  57.923  1.00  0.00    -0.257 NA
HETATM   21  C   UNK A   0       9.965  29.871  56.943  1.00  0.00     0.133 A 
BRANCH  19  22
HETATM   22  C   UNK A   0       9.518  31.728  60.080  1.00  0.00     0.045 C 
HETATM   23  C   UNK A   0       8.172  32.383  60.515  1.00  0.00     0.011 C 
HETATM   24  C   UNK A   0       8.609  32.153  61.972  1.00  0.00     0.002 C 
HETATM   25  C   UNK A   0       9.442  30.972  61.443  1.00  0.00     0.011 C 
ENDBRANCH  19  22
ENDBRANCH  16  17
ENDBRANCH  13  16
ENDBRANCH   1  13
BRANCH   1  26
ATOM     26  C   TRP A   1       5.155  25.966  57.095  1.00  0.00     0.197 C 
BRANCH  26  27
ATOM     27  O   TRP A   1       4.307  27.101  56.858  1.00  0.00    -0.399 OA
ATOM     28  H   TRP A   1       3.909  26.973  55.970  1.00  0.00     0.209 HD
ENDBRANCH  26  27
ENDBRANCH   1  26
TORSDOF 8
ENDMDL
MODEL 2
REMARK VINA RESULT:      -8.4      1.692      2.168
REMARK  8 active torsions:
REMARK  status: ('A' for Active; 'I' for Inactive)
REMARK    1  A    between atoms: CG_8  and  CB_9 
REMARK    2  A    between atoms: CB_9  and  CA_10 
REMARK    3  A    between atoms: CA_10  and  N_11 
REMARK    4  A    between atoms: CA_10  and  C_14 
REMARK    5  A    between atoms: N_11  and  C_19 
REMARK    6  A    between atoms: C_14  and  O_15 
REMARK    7  A    between atoms: C_19  and  C_20 
REMARK    8  A    between atoms: C_22  and  C_23 
ROOT
ATOM      1  CA  TRP A   1       6.040  26.791  54.515  1.00  0.00     0.214 C 
ENDROOT
BRANCH   1   2
ATOM      2  CB  TRP A   1       5.730  25.655  55.495  1.00  0.00     0.076 C 
BRANCH   2   3
ATOM      3  CG  TRP A   1       6.910  24.776  55.747  1.00  0.00    -0.028 A 
ATOM      4  CD2 TRP A   1       7.465  23.801  54.856  1.00  0.00    -0.002 A 
ATOM      5  CE3 TRP A   1       7.158  23.371  53.548  1.00  0.00     0.014 A 
ATOM      6  CE2 TRP A   1       8.534  23.196  55.518  1.00  0.00     0.042 A 
ATOM      7  CZ3 TRP A   1       7.915  22.348  52.963  1.00  0.00     0.001 A 
ATOM      8  CH2 TRP A   1       8.969  21.759  53.656  1.00  0.00     0.002 A 
ATOM      9  CZ2 TRP A   1       9.301  22.175  54.948  1.00  0.00     0.030 A 
ATOM     10  NE1 TRP A   1       8.649  23.800  56.749  1.00  0.00    -0.365 N 
ATOM     11  HE1 TRP A   1       9.360  23.574  57.432  1.00  0.00     0.165 HD
ATOM     12  CD1 TRP A   1       7.670  24.747  56.900  1.00  0.00     0.096 A 
ENDBRANCH   2   3
ENDBRANCH   1   2
BRANCH   1  13
ATOM     13  N   TRP A   1       6.449  28.049  55.252  1.00  0.00    -0.064 N 
ATOM     14  H1  TRP A   1       5.892  28.799  54.793  1.00  0.00     0.278 HD
ATOM     15  H2  TRP A   1       6.107  28.044  56.220  1.00  0.00     0.278 HD
BRANCH  13  16
HETATM   16  C   UNK A   0       7.884  28.428  55.213  1.00  0.00     0.280 C 
BRANCH  16  17
HETATM   17  C   UNK A   0       8.296  29.104  56.468  1.00  0.00     0.027 A 
HETATM   18  S   UNK A   0       7.158  29.461  57.706  1.00  0.00    -0.076 SA
HETATM   19  C   UNK A   0       8.407  30.186  58.631  1.00  0.00     0.079 A 
HETATM   20  N   UNK A   0       9.600  30.166  58.080  1.00  0.00    -0.257 NA
HETATM   21  C   UNK A   0       9.547  29.539  56.855  1.00  0.00     0.133 A 
BRANCH  19  22
HETATM   22  C   UNK A   0       8.140  30.824  59.995  1.00  0.00     0.045 C 
HETATM   23  C   UNK A   0       9.220  30.505  61.074  1.00  0.00     0.011 C 
HETATM   24  C   UNK A   0       9.074  31.960  61.552  1.00  0.00     0.002 C 
HETATM   25  C   UNK A   0       8.642  32.296  60.114  1.00  0.00     0.011 C 
ENDBRANCH  19  22
ENDBRANCH  16  17
ENDBRANCH  13  16
ENDBRANCH   1  13
BRANCH   1  26
ATOM     26  C   TRP A   1       4.840  27.198  53.634  1.00  0.00     0.197 C 
BRANCH  26  27
ATOM     27  O   TRP A   1       4.131  25.992  53.308  1.00  0.00    -0.399 OA
ATOM     28  H   TRP A   1       4.806  25.338  53.025  1.00  0.00     0.209 HD
ENDBRANCH  26  27
ENDBRANCH   1  26
TORSDOF 8
ENDMDL
MODEL 3
REMARK VINA RESULT:      -8.4      4.556      7.850
REMARK  8 active torsions:
REMARK  status: ('A' for Active; 'I' for Inactive)
REMARK    1  A    between atoms: CG_8  and  CB_9 
REMARK    2  A    between atoms: CB_9  and  CA_10 
REMARK    3  A    between atoms: CA_10  and  N_11 
REMARK    4  A    between atoms: CA_10  and  C_14 
REMARK    5  A    between atoms: N_11  and  C_19 
REMARK    6  A    between atoms: C_14  and  O_15 
REMARK    7  A    between atoms: C_19  and  C_20 
REMARK    8  A    between atoms: C_22  and  C_23 
ROOT
ATOM      1  CA  TRP A   1       5.836  25.879  55.181  1.00  0.00     0.214 C 
ENDROOT
BRANCH   1   2
ATOM      2  CB  TRP A   1       7.304  25.545  54.894  1.00  0.00     0.076 C 
BRANCH   2   3
ATOM      3  CG  TRP A   1       7.712  24.223  55.454  1.00  0.00    -0.028 A 
ATOM      4  CD2 TRP A   1       7.876  22.995  54.735  1.00  0.00    -0.002 A 
ATOM      5  CE3 TRP A   1       7.751  22.619  53.380  1.00  0.00     0.014 A 
ATOM      6  CE2 TRP A   1       8.232  22.016  55.663  1.00  0.00     0.042 A 
ATOM      7  CZ3 TRP A   1       7.969  21.286  53.011  1.00  0.00     0.001 A 
ATOM      8  CH2 TRP A   1       8.313  20.332  53.966  1.00  0.00     0.002 A 
ATOM      9  CZ2 TRP A   1       8.455  20.681  55.311  1.00  0.00     0.030 A 
ATOM     10  NE1 TRP A   1       8.316  22.627  56.892  1.00  0.00    -0.365 N 
ATOM     11  HE1 TRP A   1       8.582  22.156  57.747  1.00  0.00     0.165 HD
ATOM     12  CD1 TRP A   1       7.996  23.955  56.779  1.00  0.00     0.096 A 
ENDBRANCH   2   3
ENDBRANCH   1   2
BRANCH   1  13
ATOM     13  N   TRP A   1       5.129  26.347  53.927  1.00  0.00    -0.064 N 
ATOM     14  H1  TRP A   1       5.184  25.526  53.290  1.00  0.00     0.278 HD
ATOM     15  H2  TRP A   1       4.123  26.470  54.088  1.00  0.00     0.278 HD
BRANCH  13  16
HETATM   16  C   UNK A   0       5.688  27.532  53.229  1.00  0.00     0.280 C 
BRANCH  16  17
HETATM   17  C   UNK A   0       5.318  27.535  51.792  1.00  0.00     0.027 A 
HETATM   18  S   UNK A   0       5.014  26.069  50.946  1.00  0.00    -0.076 SA
HETATM   19  C   UNK A   0       4.731  26.968  49.512  1.00  0.00     0.079 A 
HETATM   20  N   UNK A   0       4.839  28.272  49.635  1.00  0.00    -0.257 NA
HETATM   21  C   UNK A   0       5.159  28.602  50.933  1.00  0.00     0.133 A 
BRANCH  19  22
HETATM   22  C   UNK A   0       4.392  26.290  48.184  1.00  0.00     0.045 C 
HETATM   23  C   UNK A   0       3.291  25.191  48.289  1.00  0.00     0.011 C 
HETATM   24  C   UNK A   0       2.744  25.708  46.946  1.00  0.00     0.002 C 
HETATM   25  C   UNK A   0       3.349  27.071  47.325  1.00  0.00     0.011 C 
ENDBRANCH  19  22
ENDBRANCH  16  17
ENDBRANCH  13  16
ENDBRANCH   1  13
BRANCH   1  26
ATOM     26  C   TRP A   1       5.646  27.011  56.213  1.00  0.00     0.197 C 
BRANCH  26  27
ATOM     27  O   TRP A   1       4.373  26.796  56.842  1.00  0.00    -0.399 OA
ATOM     28  H   TRP A   1       3.788  26.398  56.162  1.00  0.00     0.209 HD
ENDBRANCH  26  27
ENDBRANCH   1  26
TORSDOF 8
ENDMDL
MODEL 4
REMARK VINA RESULT:      -8.4      5.889      9.072
REMARK  8 active torsions:
REMARK  status: ('A' for Active; 'I' for Inactive)
REMARK    1  A    between atoms: CG_8  and  CB_9 
REMARK    2  A    between atoms: CB_9  and  CA_10 
REMARK    3  A    between atoms: CA_10  and  N_11 
REMARK    4  A    between atoms: CA_10  and  C_14 
REMARK    5  A    between atoms: N_11  and  C_19 
REMARK    6  A    between atoms: C_14  and  O_15 
REMARK    7  A    between atoms: C_19  and  C_20 
REMARK    8  A    between atoms: C_22  and  C_23 
ROOT
ATOM      1  CA  TRP A   1       6.099  25.339  52.147  1.00  0.00     0.214 C 
ENDROOT
BRANCH   1   2
ATOM      2  CB  TRP A   1       7.482  25.390  52.804  1.00  0.00     0.076 C 
BRANCH   2   3
ATOM      3  CG  TRP A   1       7.598  24.466  53.971  1.00  0.00    -0.028 A 
ATOM      4  CD2 TRP A   1       7.775  23.044  53.931  1.00  0.00    -0.002 A 
ATOM      5  CE3 TRP A   1       7.914  22.095  52.897  1.00  0.00     0.014 A 
ATOM      6  CE2 TRP A   1       7.797  22.593  55.252  1.00  0.00     0.042 A 
ATOM      7  CZ3 TRP A   1       8.053  20.739  53.220  1.00  0.00     0.001 A 
ATOM      8  CH2 TRP A   1       8.060  20.322  54.548  1.00  0.00     0.002 A 
ATOM      9  CZ2 TRP A   1       7.936  21.244  55.591  1.00  0.00     0.030 A 
ATOM     10  NE1 TRP A   1       7.673  23.696  56.064  1.00  0.00    -0.365 N 
ATOM     11  HE1 TRP A   1       7.684  23.665  57.075  1.00  0.00     0.165 HD
ATOM     12  CD1 TRP A   1       7.543  24.828  55.303  1.00  0.00     0.096 A 
ENDBRANCH   2   3
ENDBRANCH   1   2
BRANCH   1  13
ATOM     13  N   TRP A   1       6.106  26.047  50.808  1.00  0.00    -0.064 N 
ATOM     14  H1  TRP A   1       7.110  26.272  50.652  1.00  0.00     0.278 HD
ATOM     15  H2  TRP A   1       5.874  25.403  50.043  1.00  0.00     0.278 HD
BRANCH  13  16
HETATM   16  C   UNK A   0       5.311  27.296  50.691  1.00  0.00     0.280 C 
BRANCH  16  17
HETATM   17  C   UNK A   0       4.534  27.323  49.428  1.00  0.00     0.027 A 
HETATM   18  S   UNK A   0       3.255  28.447  49.190  1.00  0.00    -0.076 SA
HETATM   19  C   UNK A   0       2.966  27.774  47.639  1.00  0.00     0.079 A 
HETATM   20  N   UNK A   0       3.762  26.786  47.296  1.00  0.00    -0.257 NA
HETATM   21  C   UNK A   0       4.666  26.534  48.304  1.00  0.00     0.133 A 
BRANCH  19  22
HETATM   22  C   UNK A   0       1.847  28.283  46.730  1.00  0.00     0.045 C 
HETATM   23  C   UNK A   0       0.726  27.236  46.445  1.00  0.00     0.011 C 
HETATM   24  C   UNK A   0      -0.285  28.391  46.556  1.00  0.00     0.002 C 
HETATM   25  C   UNK A   0       0.734  29.078  47.481  1.00  0.00     0.011 C 
ENDBRANCH  19  22
ENDBRANCH  16  17
ENDBRANCH  13  16
ENDBRANCH   1  13
BRANCH   1  26
ATOM     26  C   TRP A   1       4.992  26.026  52.974  1.00  0.00     0.197 C 
BRANCH  26  27
ATOM     27  O   TRP A   1       4.020  25.017  53.293  1.00  0.00    -0.399 OA
ATOM     28  H   TRP A   1       4.443  24.416  53.943  1.00  0.00     0.209 HD
ENDBRANCH  26  27
ENDBRANCH   1  26
TORSDOF 8
ENDMDL
MODEL 5
REMARK VINA RESULT:      -8.3      2.435      9.389
REMARK  8 active torsions:
REMARK  status: ('A' for Active; 'I' for Inactive)
REMARK    1  A    between atoms: CG_8  and  CB_9 
REMARK    2  A    between atoms: CB_9  and  CA_10 
REMARK    3  A    between atoms: CA_10  and  N_11 
REMARK    4  A    between atoms: CA_10  and  C_14 
REMARK    5  A    between atoms: N_11  and  C_19 
REMARK    6  A    between atoms: C_14  and  O_15 
REMARK    7  A    between atoms: C_19  and  C_20 
REMARK    8  A    between atoms: C_22  and  C_23 
ROOT
ATOM      1  CA  TRP A   1       9.190  29.655  57.108  1.00  0.00     0.214 C 
ENDROOT
BRANCH   1   2
ATOM      2  CB  TRP A   1       9.496  30.313  58.457  1.00  0.00     0.076 C 
BRANCH   2   3
ATOM      3  CG  TRP A   1       8.291  30.941  59.076  1.00  0.00    -0.028 A 
ATOM      4  CD2 TRP A   1       8.190  31.504  60.390  1.00  0.00    -0.002 A 
ATOM      5  CE3 TRP A   1       9.091  31.678  61.461  1.00  0.00     0.014 A 
ATOM      6  CE2 TRP A   1       6.876  31.943  60.553  1.00  0.00     0.042 A 
ATOM      7  CZ3 TRP A   1       8.643  32.265  62.651  1.00  0.00     0.001 A 
ATOM      8  CH2 TRP A   1       7.321  32.683  62.783  1.00  0.00     0.002 A 
ATOM      9  CZ2 TRP A   1       6.412  32.532  61.733  1.00  0.00     0.030 A 
ATOM     10  NE1 TRP A   1       6.210  31.691  59.376  1.00  0.00    -0.365 N 
ATOM     11  HE1 TRP A   1       5.243  31.931  59.204  1.00  0.00     0.165 HD
ATOM     12  CD1 TRP A   1       7.051  31.079  58.482  1.00  0.00     0.096 A 
ENDBRANCH   2   3
ENDBRANCH   1   2
BRANCH   1  13
ATOM     13  N   TRP A   1       8.877  28.183  57.280  1.00  0.00    -0.064 N 
ATOM     14  H1  TRP A   1       9.497  27.715  56.587  1.00  0.00     0.278 HD
ATOM     15  H2  TRP A   1       9.210  27.832  58.185  1.00  0.00     0.278 HD
BRANCH  13  16
HETATM   16  C   UNK A   0       7.478  27.749  57.040  1.00  0.00     0.280 C 
BRANCH  16  17
HETATM   17  C   UNK A   0       7.419  26.638  56.059  1.00  0.00     0.027 A 
HETATM   18  S   UNK A   0       7.468  24.995  56.565  1.00  0.00    -0.076 SA
HETATM   19  C   UNK A   0       7.392  24.499  54.925  1.00  0.00     0.079 A 
HETATM   20  N   UNK A   0       7.323  25.472  54.044  1.00  0.00    -0.257 NA
HETATM   21  C   UNK A   0       7.324  26.692  54.684  1.00  0.00     0.133 A 
BRANCH  19  22
HETATM   22  C   UNK A   0       7.418  23.024  54.522  1.00  0.00     0.045 C 
HETATM   23  C   UNK A   0       7.689  22.779  53.006  1.00  0.00     0.011 C 
HETATM   24  C   UNK A   0       8.561  21.582  53.425  1.00  0.00     0.002 C 
HETATM   25  C   UNK A   0       8.798  22.331  54.748  1.00  0.00     0.011 C 
ENDBRANCH  19  22
ENDBRANCH  16  17
ENDBRANCH  13  16
ENDBRANCH   1  13
BRANCH   1  26
ATOM     26  C   TRP A   1      10.361  29.716  56.105  1.00  0.00     0.197 C 
BRANCH  26  27
ATOM     27  O   TRP A   1      11.574  29.639  56.871  1.00  0.00    -0.399 OA
ATOM     28  H   TRP A   1      11.565  30.402  57.489  1.00  0.00     0.209 HD
ENDBRANCH  26  27
ENDBRANCH   1  26
TORSDOF 8
ENDMDL
MODEL 6
REMARK VINA RESULT:      -7.7      5.535      7.785
REMARK  8 active torsions:
REMARK  status: ('A' for Active; 'I' for Inactive)
REMARK    1  A    between atoms: CG_8  and  CB_9 
REMARK    2  A    between atoms: CB_9  and  CA_10 
REMARK    3  A    between atoms: CA_10  and  N_11 
REMARK    4  A    between atoms: CA_10  and  C_14 
REMARK    5  A    between atoms: N_11  and  C_19 
REMARK    6  A    between atoms: C_14  and  O_15 
REMARK    7  A    between atoms: C_19  and  C_20 
REMARK    8  A    between atoms: C_22  and  C_23 
ROOT
ATOM      1  CA  TRP A   1       6.115  25.283  51.920  1.00  0.00     0.214 C 
ENDROOT
BRANCH   1   2
ATOM      2  CB  TRP A   1       7.367  25.457  52.785  1.00  0.00     0.076 C 
BRANCH   2   3
ATOM      3  CG  TRP A   1       7.401  24.512  53.941  1.00  0.00    -0.028 A 
ATOM      4  CD2 TRP A   1       7.665  23.104  53.898  1.00  0.00    -0.002 A 
ATOM      5  CE3 TRP A   1       7.979  22.190  52.870  1.00  0.00     0.014 A 
ATOM      6  CE2 TRP A   1       7.561  22.623  55.203  1.00  0.00     0.042 A 
ATOM      7  CZ3 TRP A   1       8.159  20.837  53.182  1.00  0.00     0.001 A 
ATOM      8  CH2 TRP A   1       8.037  20.388  54.495  1.00  0.00     0.002 A 
ATOM      9  CZ2 TRP A   1       7.739  21.276  55.532  1.00  0.00     0.030 A 
ATOM     10  NE1 TRP A   1       7.279  23.697  56.015  1.00  0.00    -0.365 N 
ATOM     11  HE1 TRP A   1       7.174  23.641  57.020  1.00  0.00     0.165 HD
ATOM     12  CD1 TRP A   1       7.172  24.838  55.264  1.00  0.00     0.096 A 
ENDBRANCH   2   3
ENDBRANCH   1   2
BRANCH   1  13
ATOM     13  N   TRP A   1       5.796  26.556  51.164  1.00  0.00    -0.064 N 
ATOM     14  H1  TRP A   1       5.270  27.130  51.856  1.00  0.00     0.278 HD
ATOM     15  H2  TRP A   1       6.643  27.105  50.980  1.00  0.00     0.278 HD
BRANCH  13  16
HETATM   16  C   UNK A   0       4.981  26.432  49.929  1.00  0.00     0.280 C 
BRANCH  16  17
HETATM   17  C   UNK A   0       4.785  27.751  49.279  1.00  0.00     0.027 A 
HETATM   18  S   UNK A   0       5.343  29.201  50.015  1.00  0.00    -0.076 SA
HETATM   19  C   UNK A   0       4.706  30.101  48.701  1.00  0.00     0.079 A 
HETATM   20  N   UNK A   0       4.124  29.390  47.761  1.00  0.00    -0.257 NA
HETATM   21  C   UNK A   0       4.177  28.051  48.078  1.00  0.00     0.133 A 
BRANCH  19  22
HETATM   22  C   UNK A   0       4.801  31.626  48.640  1.00  0.00     0.045 C 
HETATM   23  C   UNK A   0       6.172  32.201  49.110  1.00  0.00     0.011 C 
HETATM   24  C   UNK A   0       6.057  33.225  47.967  1.00  0.00     0.002 C 
HETATM   25  C   UNK A   0       5.196  32.180  47.236  1.00  0.00     0.011 C 
ENDBRANCH  19  22
ENDBRANCH  16  17
ENDBRANCH  13  16
ENDBRANCH   1  13
BRANCH   1  26
ATOM     26  C   TRP A   1       4.843  24.948  52.725  1.00  0.00     0.197 C 
BRANCH  26  27
ATOM     27  O   TRP A   1       4.291  26.195  53.178  1.00  0.00    -0.399 OA
ATOM     28  H   TRP A   1       5.018  26.675  53.629  1.00  0.00     0.209 HD
ENDBRANCH  26  27
ENDBRANCH   1  26
TORSDOF 8
ENDMDL
MODEL 7
REMARK VINA RESULT:      -7.7      2.533      9.238
REMARK  8 active torsions:
REMARK  status: ('A' for Active; 'I' for Inactive)
REMARK    1  A    between atoms: CG_8  and  CB_9 
REMARK    2  A    between atoms: CB_9  and  CA_10 
REMARK    3  A    between atoms: CA_10  and  N_11 
REMARK    4  A    between atoms: CA_10  and  C_14 
REMARK    5  A    between atoms: N_11  and  C_19 
REMARK    6  A    between atoms: C_14  and  O_15 
REMARK    7  A    between atoms: C_19  and  C_20 
REMARK    8  A    between atoms: C_22  and  C_23 
ROOT
ATOM      1  CA  TRP A   1       5.547  30.417  57.390  1.00  0.00     0.214 C 
ENDROOT
BRANCH   1   2
ATOM      2  CB  TRP A   1       6.155  31.655  58.056  1.00  0.00     0.076 C 
BRANCH   2   3
ATOM      3  CG  TRP A   1       7.070  31.309  59.184  1.00  0.00    -0.028 A 
ATOM      4  CD2 TRP A   1       7.122  31.930  60.474  1.00  0.00    -0.002 A 
ATOM      5  CE3 TRP A   1       6.398  32.966  61.101  1.00  0.00     0.014 A 
ATOM      6  CE2 TRP A   1       8.146  31.310  61.191  1.00  0.00     0.042 A 
ATOM      7  CZ3 TRP A   1       6.734  33.351  62.405  1.00  0.00     0.001 A 
ATOM      8  CH2 TRP A   1       7.769  32.717  63.088  1.00  0.00     0.002 A 
ATOM      9  CZ2 TRP A   1       8.493  31.681  62.494  1.00  0.00     0.030 A 
ATOM     10  NE1 TRP A   1       8.675  30.328  60.386  1.00  0.00    -0.365 N 
ATOM     11  HE1 TRP A   1       9.420  29.702  60.663  1.00  0.00     0.165 HD
ATOM     12  CD1 TRP A   1       8.040  30.325  59.171  1.00  0.00     0.096 A 
ENDBRANCH   2   3
ENDBRANCH   1   2
BRANCH   1  13
ATOM     13  N   TRP A   1       6.006  30.292  55.952  1.00  0.00    -0.064 N 
ATOM     14  H1  TRP A   1       5.882  31.250  55.567  1.00  0.00     0.278 HD
ATOM     15  H2  TRP A   1       7.019  30.131  55.895  1.00  0.00     0.278 HD
BRANCH  13  16
HETATM   16  C   UNK A   0       5.281  29.329  55.084  1.00  0.00     0.280 C 
BRANCH  16  17
HETATM   17  C   UNK A   0       5.904  27.984  55.134  1.00  0.00     0.027 A 
HETATM   18  S   UNK A   0       6.866  27.397  53.835  1.00  0.00    -0.076 SA
HETATM   19  C   UNK A   0       7.094  25.924  54.683  1.00  0.00     0.079 A 
HETATM   20  N   UNK A   0       6.513  25.856  55.860  1.00  0.00    -0.257 NA
HETATM   21  C   UNK A   0       5.846  27.031  56.128  1.00  0.00     0.133 A 
BRANCH  19  22
HETATM   22  C   UNK A   0       7.906  24.768  54.098  1.00  0.00     0.045 C 
HETATM   23  C   UNK A   0       7.135  23.414  54.027  1.00  0.00     0.011 C 
HETATM   24  C   UNK A   0       7.811  23.179  52.665  1.00  0.00     0.002 C 
HETATM   25  C   UNK A   0       7.891  24.710  52.539  1.00  0.00     0.011 C 
ENDBRANCH  19  22
ENDBRANCH  16  17
ENDBRANCH  13  16
ENDBRANCH   1  13
BRANCH   1  26
ATOM     26  C   TRP A   1       4.005  30.436  57.332  1.00  0.00     0.197 C 
BRANCH  26  27
ATOM     27  O   TRP A   1       3.533  30.230  58.673  1.00  0.00    -0.399 OA
ATOM     28  H   TRP A   1       2.923  30.972  58.873  1.00  0.00     0.209 HD
ENDBRANCH  26  27
ENDBRANCH   1  26
TORSDOF 8
ENDMDL
MODEL 8
REMARK VINA RESULT:      -7.6      2.553      2.965
REMARK  8 active torsions:
REMARK  status: ('A' for Active; 'I' for Inactive)
REMARK    1  A    between atoms: CG_8  and  CB_9 
REMARK    2  A    between atoms: CB_9  and  CA_10 
REMARK    3  A    between atoms: CA_10  and  N_11 
REMARK    4  A    between atoms: CA_10  and  C_14 
REMARK    5  A    between atoms: N_11  and  C_19 
REMARK    6  A    between atoms: C_14  and  O_15 
REMARK    7  A    between atoms: C_19  and  C_20 
REMARK    8  A    between atoms: C_22  and  C_23 
ROOT
ATOM      1  CA  TRP A   1       5.781  25.504  55.667  1.00  0.00     0.214 C 
ENDROOT
BRANCH   1   2
ATOM      2  CB  TRP A   1       7.267  25.392  55.312  1.00  0.00     0.076 C 
BRANCH   2   3
ATOM      3  CG  TRP A   1       7.535  24.336  54.292  1.00  0.00    -0.028 A 
ATOM      4  CD2 TRP A   1       7.710  22.933  54.527  1.00  0.00    -0.002 A 
ATOM      5  CE3 TRP A   1       7.675  22.113  55.674  1.00  0.00     0.014 A 
ATOM      6  CE2 TRP A   1       7.972  22.336  53.294  1.00  0.00     0.042 A 
ATOM      7  CZ3 TRP A   1       7.918  20.739  55.548  1.00  0.00     0.001 A 
ATOM      8  CH2 TRP A   1       8.187  20.178  54.302  1.00  0.00     0.002 A 
ATOM      9  CZ2 TRP A   1       8.215  20.966  53.149  1.00  0.00     0.030 A 
ATOM     10  NE1 TRP A   1       7.925  23.326  52.340  1.00  0.00    -0.365 N 
ATOM     11  HE1 TRP A   1       8.054  23.171  51.349  1.00  0.00     0.165 HD
ATOM     12  CD1 TRP A   1       7.671  24.536  52.932  1.00  0.00     0.096 A 
ENDBRANCH   2   3
ENDBRANCH   1   2
BRANCH   1  13
ATOM     13  N   TRP A   1       5.102  26.573  54.837  1.00  0.00    -0.064 N 
ATOM     14  H1  TRP A   1       4.736  26.053  54.013  1.00  0.00     0.278 HD
ATOM     15  H2  TRP A   1       4.258  26.929  55.300  1.00  0.00     0.278 HD
BRANCH  13  16
HETATM   16  C   UNK A   0       5.941  27.700  54.356  1.00  0.00     0.280 C 
BRANCH  16  17
HETATM   17  C   UNK A   0       5.583  28.968  55.038  1.00  0.00     0.027 A 
HETATM   18  S   UNK A   0       6.534  29.586  56.331  1.00  0.00    -0.076 SA
HETATM   19  C   UNK A   0       5.449  30.905  56.485  1.00  0.00     0.079 A 
HETATM   20  N   UNK A   0       4.446  30.912  55.635  1.00  0.00    -0.257 NA
HETATM   21  C   UNK A   0       4.525  29.819  54.800  1.00  0.00     0.133 A 
BRANCH  19  22
HETATM   22  C   UNK A   0       5.634  31.987  57.549  1.00  0.00     0.045 C 
HETATM   23  C   UNK A   0       4.556  31.968  58.676  1.00  0.00     0.011 C 
HETATM   24  C   UNK A   0       5.685  32.295  59.668  1.00  0.00     0.002 C 
HETATM   25  C   UNK A   0       6.636  31.597  58.680  1.00  0.00     0.011 C 
ENDBRANCH  19  22
ENDBRANCH  16  17
ENDBRANCH  13  16
ENDBRANCH   1  13
BRANCH   1  26
ATOM     26  C   TRP A   1       5.520  25.893  57.138  1.00  0.00     0.197 C 
BRANCH  26  27
ATOM     27  O   TRP A   1       4.230  26.524  57.183  1.00  0.00    -0.399 OA
ATOM     28  H   TRP A   1       4.147  27.052  56.360  1.00  0.00     0.209 HD
ENDBRANCH  26  27
ENDBRANCH   1  26
TORSDOF 8
ENDMDL
MODEL 9
REMARK VINA RESULT:      -7.6      1.960      2.214
REMARK  8 active torsions:
REMARK  status: ('A' for Active; 'I' for Inactive)
REMARK    1  A    between atoms: CG_8  and  CB_9 
REMARK    2  A    between atoms: CB_9  and  CA_10 
REMARK    3  A    between atoms: CA_10  and  N_11 
REMARK    4  A    between atoms: CA_10  and  C_14 
REMARK    5  A    between atoms: N_11  and  C_19 
REMARK    6  A    between atoms: C_14  and  O_15 
REMARK    7  A    between atoms: C_19  and  C_20 
REMARK    8  A    between atoms: C_22  and  C_23 
ROOT
ATOM      1  CA  TRP A   1       5.898  27.392  54.040  1.00  0.00     0.214 C 
ENDROOT
BRANCH   1   2
ATOM      2  CB  TRP A   1       5.644  25.959  54.517  1.00  0.00     0.076 C 
BRANCH   2   3
ATOM      3  CG  TRP A   1       6.547  24.967  53.861  1.00  0.00    -0.028 A 
ATOM      4  CD2 TRP A   1       7.301  23.931  54.501  1.00  0.00    -0.002 A 
ATOM      5  CE3 TRP A   1       7.441  23.491  55.835  1.00  0.00     0.014 A 
ATOM      6  CE2 TRP A   1       8.026  23.271  53.508  1.00  0.00     0.042 A 
ATOM      7  CZ3 TRP A   1       8.306  22.429  56.124  1.00  0.00     0.001 A 
ATOM      8  CH2 TRP A   1       9.022  21.799  55.109  1.00  0.00     0.002 A 
ATOM      9  CZ2 TRP A   1       8.892  22.207  53.779  1.00  0.00     0.030 A 
ATOM     10  NE1 TRP A   1       7.702  23.858  52.306  1.00  0.00    -0.365 N 
ATOM     11  HE1 TRP A   1       8.064  23.561  51.410  1.00  0.00     0.165 HD
ATOM     12  CD1 TRP A   1       6.819  24.886  52.509  1.00  0.00     0.096 A 
ENDBRANCH   2   3
ENDBRANCH   1   2
BRANCH   1  13
ATOM     13  N   TRP A   1       6.589  28.208  55.113  1.00  0.00    -0.064 N 
ATOM     14  H1  TRP A   1       7.571  27.864  55.092  1.00  0.00     0.278 HD
ATOM     15  H2  TRP A   1       6.666  29.195  54.842  1.00  0.00     0.278 HD
BRANCH  13  16
HETATM   16  C   UNK A   0       6.070  28.093  56.500  1.00  0.00     0.280 C 
BRANCH  16  17
HETATM   17  C   UNK A   0       6.498  29.244  57.331  1.00  0.00     0.027 A 
HETATM   18  S   UNK A   0       8.086  29.332  57.987  1.00  0.00    -0.076 SA
HETATM   19  C   UNK A   0       7.683  30.820  58.738  1.00  0.00     0.079 A 
HETATM   20  N   UNK A   0       6.459  31.248  58.520  1.00  0.00    -0.257 NA
HETATM   21  C   UNK A   0       5.785  30.362  57.709  1.00  0.00     0.133 A 
BRANCH  19  22
HETATM   22  C   UNK A   0       8.679  31.584  59.611  1.00  0.00     0.045 C 
HETATM   23  C   UNK A   0       8.026  32.375  60.785  1.00  0.00     0.011 C 
HETATM   24  C   UNK A   0       9.222  31.944  61.651  1.00  0.00     0.002 C 
HETATM   25  C   UNK A   0       9.333  30.716  60.731  1.00  0.00     0.011 C 
ENDBRANCH  19  22
ENDBRANCH  16  17
ENDBRANCH  13  16
ENDBRANCH   1  13
BRANCH   1  26
ATOM     26  C   TRP A   1       4.611  28.169  53.692  1.00  0.00     0.197 C 
BRANCH  26  27
ATOM     27  O   TRP A   1       3.556  27.201  53.571  1.00  0.00    -0.399 OA
ATOM     28  H   TRP A   1       3.933  26.435  53.088  1.00  0.00     0.209 HD
ENDBRANCH  26  27
ENDBRANCH   1  26
TORSDOF 8
ENDMDL
MODEL 10
REMARK VINA RESULT:      -7.4      2.570      4.353
REMARK  8 active torsions:
REMARK  status: ('A' for Active; 'I' for Inactive)
REMARK    1  A    between atoms: CG_8  and  CB_9 
REMARK    2  A    between atoms: CB_9  and  CA_10 
REMARK    3  A    between atoms: CA_10  and  N_11 
REMARK    4  A    between atoms: CA_10  and  C_14 
REMARK    5  A    between atoms: N_11  and  C_19 
REMARK    6  A    between atoms: C_14  and  O_15 
REMARK    7  A    between atoms: C_19  and  C_20 
REMARK    8  A    between atoms: C_22  and  C_23 
ROOT
ATOM      1  CA  TRP A   1       8.890  29.180  57.541  1.00  0.00     0.214 C 
ENDROOT
BRANCH   1   2
ATOM      2  CB  TRP A   1       7.730  28.691  56.668  1.00  0.00     0.076 C 
BRANCH   2   3
ATOM      3  CG  TRP A   1       7.568  27.208  56.708  1.00  0.00    -0.028 A 
ATOM      4  CD2 TRP A   1       7.456  26.321  55.588  1.00  0.00    -0.002 A 
ATOM      5  CE3 TRP A   1       7.479  26.492  54.188  1.00  0.00     0.014 A 
ATOM      6  CE2 TRP A   1       7.286  25.032  56.095  1.00  0.00     0.042 A 
ATOM      7  CZ3 TRP A   1       7.316  25.379  53.354  1.00  0.00     0.001 A 
ATOM      8  CH2 TRP A   1       7.138  24.107  53.894  1.00  0.00     0.002 A 
ATOM      9  CZ2 TRP A   1       7.124  23.910  55.277  1.00  0.00     0.030 A 
ATOM     10  NE1 TRP A   1       7.327  25.122  57.467  1.00  0.00    -0.365 N 
ATOM     11  HE1 TRP A   1       7.253  24.332  58.093  1.00  0.00     0.165 HD
ATOM     12  CD1 TRP A   1       7.487  26.429  57.847  1.00  0.00     0.096 A 
ENDBRANCH   2   3
ENDBRANCH   1   2
BRANCH   1  13
ATOM     13  N   TRP A   1       8.625  30.576  58.066  1.00  0.00    -0.064 N 
ATOM     14  H1  TRP A   1       9.372  30.720  58.776  1.00  0.00     0.278 HD
ATOM     15  H2  TRP A   1       8.818  31.288  57.353  1.00  0.00     0.278 HD
BRANCH  13  16
HETATM   16  C   UNK A   0       7.306  30.827  58.702  1.00  0.00     0.280 C 
BRANCH  16  17
HETATM   17  C   UNK A   0       7.464  31.452  60.039  1.00  0.00     0.027 A 
HETATM   18  S   UNK A   0       6.252  32.481  60.692  1.00  0.00    -0.076 SA
HETATM   19  C   UNK A   0       7.222  32.722  62.086  1.00  0.00     0.079 A 
HETATM   20  N   UNK A   0       8.370  32.081  62.091  1.00  0.00    -0.257 NA
HETATM   21  C   UNK A   0       8.507  31.345  60.935  1.00  0.00     0.133 A 
BRANCH  19  22
HETATM   22  C   UNK A   0       6.783  33.633  63.233  1.00  0.00     0.045 C 
HETATM   23  C   UNK A   0       5.610  33.065  64.089  1.00  0.00     0.011 C 
HETATM   24  C   UNK A   0       6.328  33.631  65.326  1.00  0.00     0.002 C 
HETATM   25  C   UNK A   0       7.635  33.473  64.530  1.00  0.00     0.011 C 
ENDBRANCH  19  22
ENDBRANCH  16  17
ENDBRANCH  13  16
ENDBRANCH   1  13
BRANCH   1  26
ATOM     26  C   TRP A   1      10.237  29.268  56.794  1.00  0.00     0.197 C 
BRANCH  26  27
ATOM     27  O   TRP A   1       9.960  29.798  55.488  1.00  0.00    -0.399 OA
ATOM     28  H   TRP A   1       9.018  29.598  55.299  1.00  0.00     0.209 HD
ENDBRANCH  26  27
ENDBRANCH   1  26
TORSDOF 8
ENDMDL
