MODEL 1
REMARK VINA RESULT:      -9.8      0.000      0.000
REMARK  4 active torsions:
REMARK  status: ('A' for Active; 'I' for Inactive)
REMARK    1  A    between atoms: C_4  and  O_5 
REMARK    2  A    between atoms: C_6  and  C_7 
REMARK    3  A    between atoms: C_11  and  C_12 
REMARK       I    between atoms: C_12  and  N_13 
REMARK    4  A    between atoms: C_19  and  O_20 
ROOT
HETATM    1  C   UNL     1       7.931  31.776  61.901  1.00  0.00     0.065 A 
HETATM    2  N   UNL     1       8.063  30.426  61.721  1.00  0.00    -0.277 N 
HETATM    3  H   UNL     1       7.674  29.706  62.325  1.00  0.00     0.189 HD
HETATM    4  N   UNL     1       8.710  30.068  60.598  1.00  0.00    -0.169 NA
HETATM    5  C   UNL     1       9.113  31.240  60.062  1.00  0.00     0.148 A 
HETATM    6  C   UNL     1       8.633  32.327  60.846  1.00  0.00     0.071 A 
ENDROOT
BRANCH   5   7
HETATM    7  C   UNL     1       9.855  31.365  58.780  1.00  0.00     0.299 C 
HETATM    8  N   UNL     1      10.076  30.215  58.066  1.00  0.00    -0.189 NA
HETATM    9  C   UNL     1       9.072  29.563  57.602  1.00  0.00     0.154 C 
HETATM   10  S   UNL     1       9.430  28.164  56.534  1.00  0.00    -0.056 SA
HETATM   11  N   UNL     1       7.707  29.704  57.773  1.00  0.00    -0.236 NA
HETATM   12  C   UNL     1       7.710  27.720  56.494  1.00  0.00     0.032 A 
HETATM   13  C   UNL     1       6.965  28.625  57.257  1.00  0.00     0.032 A 
HETATM   14  C   UNL     1       7.114  26.641  55.866  1.00  0.00     0.057 A 
HETATM   15  C   UNL     1       5.593  28.472  57.377  1.00  0.00     0.028 A 
HETATM   16  C   UNL     1       4.979  27.380  56.751  1.00  0.00     0.038 A 
HETATM   17  C   UNL     1       5.733  26.465  55.998  1.00  0.00     0.069 A 
HETATM   18  H   UNL     1       7.425  30.006  58.704  1.00  0.00     0.136 HD
HETATM   19  O   UNL     1      10.288  32.454  58.418  1.00  0.00    -0.263 OA
BRANCH  17  20
HETATM   20  O   UNL     1       5.236  25.369  55.344  1.00  0.00    -0.356 OA
HETATM   21  C   UNL     1       6.053  24.795  54.331  1.00  0.00     0.210 C 
ENDBRANCH  17  20
ENDBRANCH   5   7
BRANCH   1  22
HETATM   22  C   UNL     1       7.167  32.367  63.007  1.00  0.00     0.025 A 
HETATM   23  C   UNL     1       5.761  32.313  63.071  1.00  0.00     0.078 A 
HETATM   24  C   UNL     1       5.056  32.916  64.119  1.00  0.00     0.044 A 
HETATM   25  C   UNL     1       5.742  33.597  65.130  1.00  0.00    -0.059 A 
HETATM   26  C   UNL     1       5.000  34.232  66.269  1.00  0.00     0.048 C 
HETATM   27  C   UNL     1       7.139  33.636  65.091  1.00  0.00     0.008 A 
HETATM   28  C   UNL     1       7.839  33.033  64.042  1.00  0.00     0.017 A 
BRANCH  23  29
HETATM   29  O   UNL     1       5.053  31.662  62.088  1.00  0.00    -0.360 OA
HETATM   30  H   UNL     1       4.848  30.765  62.406  1.00  0.00     0.217 HD
ENDBRANCH  23  29
ENDBRANCH   1  22
TORSDOF 4
ENDMDL
MODEL 2
REMARK VINA RESULT:      -9.6      3.499      9.753
REMARK  4 active torsions:
REMARK  status: ('A' for Active; 'I' for Inactive)
REMARK    1  A    between atoms: C_4  and  O_5 
REMARK    2  A    between atoms: C_6  and  C_7 
REMARK    3  A    between atoms: C_11  and  C_12 
REMARK       I    between atoms: C_12  and  N_13 
REMARK    4  A    between atoms: C_19  and  O_20 
ROOT
HETATM    1  C   UNL     1       6.021  25.283  55.238  1.00  0.00     0.065 A 
HETATM    2  N   UNL     1       5.665  25.503  56.542  1.00  0.00    -0.277 N 
HETATM    3  H   UNL     1       5.867  24.886  57.324  1.00  0.00     0.189 HD
HETATM    4  N   UNL     1       5.062  26.683  56.769  1.00  0.00    -0.169 NA
HETATM    5  C   UNL     1       4.922  27.224  55.540  1.00  0.00     0.148 A 
HETATM    6  C   UNL     1       5.521  26.380  54.562  1.00  0.00     0.071 A 
ENDROOT
BRANCH   5   7
HETATM    7  C   UNL     1       4.326  28.559  55.274  1.00  0.00     0.299 C 
HETATM    8  N   UNL     1       4.320  29.463  56.306  1.00  0.00    -0.189 NA
HETATM    9  C   UNL     1       5.439  29.883  56.776  1.00  0.00     0.154 C 
HETATM   10  S   UNL     1       5.369  31.189  58.008  1.00  0.00    -0.056 SA
HETATM   11  N   UNL     1       6.750  29.511  56.540  1.00  0.00    -0.236 NA
HETATM   12  C   UNL     1       7.121  31.066  58.277  1.00  0.00     0.032 A 
HETATM   13  C   UNL     1       7.664  30.082  57.445  1.00  0.00     0.032 A 
HETATM   14  C   UNL     1       7.904  31.766  59.178  1.00  0.00     0.057 A 
HETATM   15  C   UNL     1       9.021  29.805  57.488  1.00  0.00     0.028 A 
HETATM   16  C   UNL     1       9.824  30.502  58.401  1.00  0.00     0.038 A 
HETATM   17  C   UNL     1       9.271  31.479  59.245  1.00  0.00     0.069 A 
HETATM   18  H   UNL     1       6.886  28.516  56.371  1.00  0.00     0.136 HD
HETATM   19  O   UNL     1       3.818  28.806  54.185  1.00  0.00    -0.263 OA
BRANCH  17  20
HETATM   20  O   UNL     1       9.961  32.219  60.167  1.00  0.00    -0.356 OA
HETATM   21  C   UNL     1       9.682  31.968  61.538  1.00  0.00     0.210 C 
ENDBRANCH  17  20
ENDBRANCH   5   7
BRANCH   1  22
HETATM   22  C   UNL     1       6.782  24.105  54.803  1.00  0.00     0.025 A 
HETATM   23  C   UNL     1       7.534  23.316  55.695  1.00  0.00     0.078 A 
HETATM   24  C   UNL     1       8.279  22.219  55.248  1.00  0.00     0.044 A 
HETATM   25  C   UNL     1       8.298  21.887  53.889  1.00  0.00    -0.059 A 
HETATM   26  C   UNL     1       9.078  20.704  53.399  1.00  0.00     0.048 C 
HETATM   27  C   UNL     1       7.537  22.648  52.997  1.00  0.00     0.008 A 
HETATM   28  C   UNL     1       6.794  23.743  53.448  1.00  0.00     0.017 A 
BRANCH  23  29
HETATM   29  O   UNL     1       7.547  23.620  57.037  1.00  0.00    -0.360 OA
HETATM   30  H   UNL     1       6.930  24.357  57.187  1.00  0.00     0.217 HD
ENDBRANCH  23  29
ENDBRANCH   1  22
TORSDOF 4
ENDMDL
MODEL 3
REMARK VINA RESULT:      -9.3      2.749      8.992
REMARK  4 active torsions:
REMARK  status: ('A' for Active; 'I' for Inactive)
REMARK    1  A    between atoms: C_4  and  O_5 
REMARK    2  A    between atoms: C_6  and  C_7 
REMARK    3  A    between atoms: C_11  and  C_12 
REMARK       I    between atoms: C_12  and  N_13 
REMARK    4  A    between atoms: C_19  and  O_20 
ROOT
HETATM    1  C   UNL     1       6.963  27.433  56.386  1.00  0.00     0.065 A 
HETATM    2  N   UNL     1       7.996  28.273  56.702  1.00  0.00    -0.277 N 
HETATM    3  H   UNL     1       8.967  27.997  56.832  1.00  0.00     0.189 HD
HETATM    4  N   UNL     1       7.665  29.575  56.765  1.00  0.00    -0.169 NA
HETATM    5  C   UNL     1       6.327  29.583  56.581  1.00  0.00     0.148 A 
HETATM    6  C   UNL     1       5.859  28.261  56.331  1.00  0.00     0.071 A 
ENDROOT
BRANCH   5   7
HETATM    7  C   UNL     1       5.494  30.812  56.539  1.00  0.00     0.299 C 
HETATM    8  N   UNL     1       4.920  31.224  57.714  1.00  0.00    -0.189 NA
HETATM    9  C   UNL     1       5.676  31.582  58.689  1.00  0.00     0.154 C 
HETATM   10  S   UNL     1       4.870  32.271  60.138  1.00  0.00    -0.056 SA
HETATM   11  N   UNL     1       7.045  31.529  58.877  1.00  0.00    -0.236 NA
HETATM   12  C   UNL     1       6.415  32.308  61.014  1.00  0.00     0.032 A 
HETATM   13  C   UNL     1       7.439  31.822  60.195  1.00  0.00     0.032 A 
HETATM   14  C   UNL     1       6.656  32.701  62.319  1.00  0.00     0.057 A 
HETATM   15  C   UNL     1       8.738  31.751  60.673  1.00  0.00     0.028 A 
HETATM   16  C   UNL     1       8.994  32.140  61.995  1.00  0.00     0.038 A 
HETATM   17  C   UNL     1       7.959  32.613  62.818  1.00  0.00     0.069 A 
HETATM   18  H   UNL     1       7.498  30.713  58.470  1.00  0.00     0.136 HD
HETATM   19  O   UNL     1       5.297  31.393  55.476  1.00  0.00    -0.263 OA
BRANCH  17  20
HETATM   20  O   UNL     1       8.097  33.021  64.117  1.00  0.00    -0.356 OA
HETATM   21  C   UNL     1       6.913  33.405  64.804  1.00  0.00     0.210 C 
ENDBRANCH  17  20
ENDBRANCH   5   7
BRANCH   1  22
HETATM   22  C   UNL     1       7.140  25.991  56.166  1.00  0.00     0.025 A 
HETATM   23  C   UNL     1       7.691  25.138  57.142  1.00  0.00     0.078 A 
HETATM   24  C   UNL     1       7.882  23.774  56.893  1.00  0.00     0.044 A 
HETATM   25  C   UNL     1       7.532  23.228  55.654  1.00  0.00    -0.059 A 
HETATM   26  C   UNL     1       7.714  21.765  55.379  1.00  0.00     0.048 C 
HETATM   27  C   UNL     1       6.961  24.060  54.686  1.00  0.00     0.008 A 
HETATM   28  C   UNL     1       6.772  25.422  54.938  1.00  0.00     0.017 A 
BRANCH  23  29
HETATM   29  O   UNL     1       8.058  25.643  58.368  1.00  0.00    -0.360 OA
HETATM   30  H   UNL     1       8.000  24.923  59.021  1.00  0.00     0.217 HD
ENDBRANCH  23  29
ENDBRANCH   1  22
TORSDOF 4
ENDMDL
MODEL 4
REMARK VINA RESULT:      -9.2      3.446      6.003
REMARK  4 active torsions:
REMARK  status: ('A' for Active; 'I' for Inactive)
REMARK    1  A    between atoms: C_4  and  O_5 
REMARK    2  A    between atoms: C_6  and  C_7 
REMARK    3  A    between atoms: C_11  and  C_12 
REMARK       I    between atoms: C_12  and  N_13 
REMARK    4  A    between atoms: C_19  and  O_20 
ROOT
HETATM    1  C   UNL     1       6.739  29.775  56.709  1.00  0.00     0.065 A 
HETATM    2  N   UNL     1       7.632  29.400  55.741  1.00  0.00    -0.277 N 
HETATM    3  H   UNL     1       8.642  29.509  55.792  1.00  0.00     0.189 HD
HETATM    4  N   UNL     1       7.086  28.773  54.684  1.00  0.00    -0.169 NA
HETATM    5  C   UNL     1       5.758  28.827  54.919  1.00  0.00     0.148 A 
HETATM    6  C   UNL     1       5.507  29.437  56.181  1.00  0.00     0.071 A 
ENDROOT
BRANCH   5   7
HETATM    7  C   UNL     1       4.725  28.233  54.031  1.00  0.00     0.299 C 
HETATM    8  N   UNL     1       5.142  27.303  53.114  1.00  0.00    -0.189 NA
HETATM    9  C   UNL     1       5.645  26.197  53.529  1.00  0.00     0.154 C 
HETATM   10  S   UNL     1       6.016  24.951  52.289  1.00  0.00    -0.056 SA
HETATM   11  N   UNL     1       5.999  25.746  54.787  1.00  0.00    -0.236 NA
HETATM   12  C   UNL     1       6.793  23.925  53.513  1.00  0.00     0.032 A 
HETATM   13  C   UNL     1       6.732  24.545  54.765  1.00  0.00     0.032 A 
HETATM   14  C   UNL     1       7.424  22.705  53.338  1.00  0.00     0.057 A 
HETATM   15  C   UNL     1       7.284  23.927  55.875  1.00  0.00     0.028 A 
HETATM   16  C   UNL     1       7.931  22.695  55.711  1.00  0.00     0.038 A 
HETATM   17  C   UNL     1       8.003  22.083  54.449  1.00  0.00     0.069 A 
HETATM   18  H   UNL     1       6.377  26.462  55.405  1.00  0.00     0.136 HD
HETATM   19  O   UNL     1       3.559  28.611  54.096  1.00  0.00    -0.263 OA
BRANCH  17  20
HETATM   20  O   UNL     1       8.605  20.884  54.177  1.00  0.00    -0.356 OA
HETATM   21  C   UNL     1       8.425  20.352  52.871  1.00  0.00     0.210 C 
ENDBRANCH  17  20
ENDBRANCH   5   7
BRANCH   1  22
HETATM   22  C   UNL     1       7.145  30.377  57.985  1.00  0.00     0.025 A 
HETATM   23  C   UNL     1       8.260  29.923  58.716  1.00  0.00     0.078 A 
HETATM   24  C   UNL     1       8.605  30.490  59.948  1.00  0.00     0.044 A 
HETATM   25  C   UNL     1       7.835  31.527  60.486  1.00  0.00    -0.059 A 
HETATM   26  C   UNL     1       8.203  32.157  61.797  1.00  0.00     0.048 C 
HETATM   27  C   UNL     1       6.740  32.004  59.758  1.00  0.00     0.008 A 
HETATM   28  C   UNL     1       6.399  31.433  58.528  1.00  0.00     0.017 A 
BRANCH  23  29
HETATM   29  O   UNL     1       9.033  28.897  58.223  1.00  0.00    -0.360 OA
HETATM   30  H   UNL     1       8.848  28.099  58.748  1.00  0.00     0.217 HD
ENDBRANCH  23  29
ENDBRANCH   1  22
TORSDOF 4
ENDMDL
MODEL 5
REMARK VINA RESULT:      -9.1      2.954      9.351
REMARK  4 active torsions:
REMARK  status: ('A' for Active; 'I' for Inactive)
REMARK    1  A    between atoms: C_4  and  O_5 
REMARK    2  A    between atoms: C_6  and  C_7 
REMARK    3  A    between atoms: C_11  and  C_12 
REMARK       I    between atoms: C_12  and  N_13 
REMARK    4  A    between atoms: C_19  and  O_20 
ROOT
HETATM    1  C   UNL     1       5.259  27.472  55.041  1.00  0.00     0.065 A 
HETATM    2  N   UNL     1       4.489  27.516  56.171  1.00  0.00    -0.277 N 
HETATM    3  H   UNL     1       4.249  26.720  56.758  1.00  0.00     0.189 HD
HETATM    4  N   UNL     1       4.098  28.749  56.539  1.00  0.00    -0.169 NA
HETATM    5  C   UNL     1       4.548  29.547  55.546  1.00  0.00     0.148 A 
HETATM    6  C   UNL     1       5.287  28.781  54.600  1.00  0.00     0.071 A 
ENDROOT
BRANCH   5   7
HETATM    7  C   UNL     1       4.383  31.023  55.516  1.00  0.00     0.299 C 
HETATM    8  N   UNL     1       4.244  31.665  56.719  1.00  0.00    -0.189 NA
HETATM    9  C   UNL     1       5.214  31.634  57.561  1.00  0.00     0.154 C 
HETATM   10  S   UNL     1       5.041  32.633  59.044  1.00  0.00    -0.056 SA
HETATM   11  N   UNL     1       6.413  30.947  57.579  1.00  0.00    -0.236 NA
HETATM   12  C   UNL     1       6.537  31.947  59.713  1.00  0.00     0.032 A 
HETATM   13  C   UNL     1       7.087  31.031  58.811  1.00  0.00     0.032 A 
HETATM   14  C   UNL     1       7.121  32.192  60.943  1.00  0.00     0.057 A 
HETATM   15  C   UNL     1       8.260  30.363  59.125  1.00  0.00     0.028 A 
HETATM   16  C   UNL     1       8.858  30.597  60.371  1.00  0.00     0.038 A 
HETATM   17  C   UNL     1       8.293  31.507  61.280  1.00  0.00     0.069 A 
HETATM   18  H   UNL     1       6.372  30.010  57.181  1.00  0.00     0.136 HD
HETATM   19  O   UNL     1       4.323  31.619  54.445  1.00  0.00    -0.263 OA
BRANCH  17  20
HETATM   20  O   UNL     1       8.793  31.813  62.516  1.00  0.00    -0.356 OA
HETATM   21  C   UNL     1       7.960  32.576  63.380  1.00  0.00     0.210 C 
ENDBRANCH  17  20
ENDBRANCH   5   7
BRANCH   1  22
HETATM   22  C   UNL     1       5.871  26.236  54.536  1.00  0.00     0.025 A 
HETATM   23  C   UNL     1       5.251  25.424  53.566  1.00  0.00     0.078 A 
HETATM   24  C   UNL     1       5.839  24.232  53.128  1.00  0.00     0.044 A 
HETATM   25  C   UNL     1       7.065  23.816  53.658  1.00  0.00    -0.059 A 
HETATM   26  C   UNL     1       7.716  22.550  53.185  1.00  0.00     0.048 C 
HETATM   27  C   UNL     1       7.703  24.625  54.603  1.00  0.00     0.008 A 
HETATM   28  C   UNL     1       7.111  25.815  55.038  1.00  0.00     0.017 A 
BRANCH  23  29
HETATM   29  O   UNL     1       4.039  25.797  53.031  1.00  0.00    -0.360 OA
HETATM   30  H   UNL     1       3.966  26.765  53.093  1.00  0.00     0.217 HD
ENDBRANCH  23  29
ENDBRANCH   1  22
TORSDOF 4
ENDMDL
MODEL 6
REMARK VINA RESULT:      -9.1      3.204      8.635
REMARK  4 active torsions:
REMARK  status: ('A' for Active; 'I' for Inactive)
REMARK    1  A    between atoms: C_4  and  O_5 
REMARK    2  A    between atoms: C_6  and  C_7 
REMARK    3  A    between atoms: C_11  and  C_12 
REMARK       I    between atoms: C_12  and  N_13 
REMARK    4  A    between atoms: C_19  and  O_20 
ROOT
HETATM    1  C   UNL     1       5.650  29.256  57.395  1.00  0.00     0.065 A 
HETATM    2  N   UNL     1       4.448  29.383  58.038  1.00  0.00    -0.277 N 
HETATM    3  H   UNL     1       3.904  28.621  58.436  1.00  0.00     0.189 HD
HETATM    4  N   UNL     1       4.025  30.650  58.196  1.00  0.00    -0.169 NA
HETATM    5  C   UNL     1       4.943  31.388  57.536  1.00  0.00     0.148 A 
HETATM    6  C   UNL     1       5.978  30.548  57.033  1.00  0.00     0.071 A 
ENDROOT
BRANCH   5   7
HETATM    7  C   UNL     1       4.922  32.871  57.450  1.00  0.00     0.299 C 
HETATM    8  N   UNL     1       4.513  33.560  58.562  1.00  0.00    -0.189 NA
HETATM    9  C   UNL     1       5.207  33.477  59.641  1.00  0.00     0.154 C 
HETATM   10  S   UNL     1       4.718  34.532  61.010  1.00  0.00    -0.056 SA
HETATM   11  N   UNL     1       6.290  32.695  59.996  1.00  0.00    -0.236 NA
HETATM   12  C   UNL     1       5.907  33.749  62.073  1.00  0.00     0.032 A 
HETATM   13  C   UNL     1       6.603  32.763  61.366  1.00  0.00     0.032 A 
HETATM   14  C   UNL     1       6.147  33.984  63.415  1.00  0.00     0.057 A 
HETATM   15  C   UNL     1       7.580  32.012  61.998  1.00  0.00     0.028 A 
HETATM   16  C   UNL     1       7.829  32.235  63.359  1.00  0.00     0.038 A 
HETATM   17  C   UNL     1       7.117  33.216  64.069  1.00  0.00     0.069 A 
HETATM   18  H   UNL     1       6.278  31.752  59.609  1.00  0.00     0.136 HD
HETATM   19  O   UNL     1       5.212  33.436  56.400  1.00  0.00    -0.263 OA
BRANCH  17  20
HETATM   20  O   UNL     1       7.282  33.519  65.393  1.00  0.00    -0.356 OA
HETATM   21  C   UNL     1       6.153  34.044  66.081  1.00  0.00     0.210 C 
ENDBRANCH  17  20
ENDBRANCH   5   7
BRANCH   1  22
HETATM   22  C   UNL     1       6.332  27.967  57.218  1.00  0.00     0.025 A 
HETATM   23  C   UNL     1       5.637  26.774  56.941  1.00  0.00     0.078 A 
HETATM   24  C   UNL     1       6.309  25.552  56.813  1.00  0.00     0.044 A 
HETATM   25  C   UNL     1       7.698  25.493  56.967  1.00  0.00    -0.059 A 
HETATM   26  C   UNL     1       8.433  24.194  56.815  1.00  0.00     0.048 C 
HETATM   27  C   UNL     1       8.401  26.674  57.218  1.00  0.00     0.008 A 
HETATM   28  C   UNL     1       7.726  27.892  57.346  1.00  0.00     0.017 A 
BRANCH  23  29
HETATM   29  O   UNL     1       4.270  26.793  56.795  1.00  0.00    -0.360 OA
HETATM   30  H   UNL     1       3.964  25.876  56.679  1.00  0.00     0.217 HD
ENDBRANCH  23  29
ENDBRANCH   1  22
TORSDOF 4
ENDMDL
MODEL 7
REMARK VINA RESULT:      -8.8      3.244      9.356
REMARK  4 active torsions:
REMARK  status: ('A' for Active; 'I' for Inactive)
REMARK    1  A    between atoms: C_4  and  O_5 
REMARK    2  A    between atoms: C_6  and  C_7 
REMARK    3  A    between atoms: C_11  and  C_12 
REMARK       I    between atoms: C_12  and  N_13 
REMARK    4  A    between atoms: C_19  and  O_20 
ROOT
HETATM    1  C   UNL     1       6.971  25.882  55.490  1.00  0.00     0.065 A 
HETATM    2  N   UNL     1       7.817  26.929  55.743  1.00  0.00    -0.277 N 
HETATM    3  H   UNL     1       8.775  26.850  56.076  1.00  0.00     0.189 HD
HETATM    4  N   UNL     1       7.318  28.141  55.444  1.00  0.00    -0.169 NA
HETATM    5  C   UNL     1       6.045  27.890  55.070  1.00  0.00     0.148 A 
HETATM    6  C   UNL     1       5.800  26.488  55.077  1.00  0.00     0.071 A 
ENDROOT
BRANCH   5   7
HETATM    7  C   UNL     1       5.085  28.928  54.614  1.00  0.00     0.299 C 
HETATM    8  N   UNL     1       4.298  29.521  55.567  1.00  0.00    -0.189 NA
HETATM    9  C   UNL     1       4.854  30.219  56.492  1.00  0.00     0.154 C 
HETATM   10  S   UNL     1       3.765  31.108  57.611  1.00  0.00    -0.056 SA
HETATM   11  N   UNL     1       6.176  30.425  56.839  1.00  0.00    -0.236 NA
HETATM   12  C   UNL     1       5.149  31.595  58.613  1.00  0.00     0.032 A 
HETATM   13  C   UNL     1       6.333  31.089  58.070  1.00  0.00     0.032 A 
HETATM   14  C   UNL     1       5.145  32.327  59.787  1.00  0.00     0.057 A 
HETATM   15  C   UNL     1       7.546  31.338  58.692  1.00  0.00     0.028 A 
HETATM   16  C   UNL     1       7.556  32.073  59.885  1.00  0.00     0.038 A 
HETATM   17  C   UNL     1       6.361  32.567  60.434  1.00  0.00     0.069 A 
HETATM   18  H   UNL     1       6.780  29.614  56.715  1.00  0.00     0.136 HD
HETATM   19  O   UNL     1       4.978  29.194  53.420  1.00  0.00    -0.263 OA
BRANCH  17  20
HETATM   20  O   UNL     1       6.256  33.296  61.588  1.00  0.00    -0.356 OA
HETATM   21  C   UNL     1       5.078  34.076  61.754  1.00  0.00     0.210 C 
ENDBRANCH  17  20
ENDBRANCH   5   7
BRANCH   1  22
HETATM   22  C   UNL     1       7.365  24.476  55.650  1.00  0.00     0.025 A 
HETATM   23  C   UNL     1       7.919  23.976  56.844  1.00  0.00     0.078 A 
HETATM   24  C   UNL     1       8.319  22.639  56.957  1.00  0.00     0.044 A 
HETATM   25  C   UNL     1       8.181  21.768  55.871  1.00  0.00    -0.059 A 
HETATM   26  C   UNL     1       8.589  20.329  55.984  1.00  0.00     0.048 C 
HETATM   27  C   UNL     1       7.610  22.247  54.689  1.00  0.00     0.008 A 
HETATM   28  C   UNL     1       7.212  23.583  54.580  1.00  0.00     0.017 A 
BRANCH  23  29
HETATM   29  O   UNL     1       8.080  24.807  57.928  1.00  0.00    -0.360 OA
HETATM   30  H   UNL     1       9.032  24.872  58.121  1.00  0.00     0.217 HD
ENDBRANCH  23  29
ENDBRANCH   1  22
TORSDOF 4
ENDMDL
MODEL 8
REMARK VINA RESULT:      -8.7      3.759      9.810
REMARK  4 active torsions:
REMARK  status: ('A' for Active; 'I' for Inactive)
REMARK    1  A    between atoms: C_4  and  O_5 
REMARK    2  A    between atoms: C_6  and  C_7 
REMARK    3  A    between atoms: C_11  and  C_12 
REMARK       I    between atoms: C_12  and  N_13 
REMARK    4  A    between atoms: C_19  and  O_20 
ROOT
HETATM    1  C   UNL     1       5.234  26.965  53.141  1.00  0.00     0.065 A 
HETATM    2  N   UNL     1       3.877  26.955  53.325  1.00  0.00    -0.277 N 
HETATM    3  H   UNL     1       3.313  26.135  53.534  1.00  0.00     0.189 HD
HETATM    4  N   UNL     1       3.294  28.166  53.287  1.00  0.00    -0.169 NA
HETATM    5  C   UNL     1       4.301  29.005  52.961  1.00  0.00     0.148 A 
HETATM    6  C   UNL     1       5.528  28.288  52.874  1.00  0.00     0.071 A 
ENDROOT
BRANCH   5   7
HETATM    7  C   UNL     1       4.154  30.478  52.826  1.00  0.00     0.299 C 
HETATM    8  N   UNL     1       3.787  31.179  53.946  1.00  0.00    -0.189 NA
HETATM    9  C   UNL     1       4.573  31.194  54.961  1.00  0.00     0.154 C 
HETATM   10  S   UNL     1       4.119  32.264  56.330  1.00  0.00    -0.056 SA
HETATM   11  N   UNL     1       5.741  30.512  55.248  1.00  0.00    -0.236 NA
HETATM   12  C   UNL     1       5.451  31.618  57.313  1.00  0.00     0.032 A 
HETATM   13  C   UNL     1       6.161  30.660  56.583  1.00  0.00     0.032 A 
HETATM   14  C   UNL     1       5.784  31.926  58.620  1.00  0.00     0.057 A 
HETATM   15  C   UNL     1       7.245  30.013  57.153  1.00  0.00     0.028 A 
HETATM   16  C   UNL     1       7.589  30.311  58.479  1.00  0.00     0.038 A 
HETATM   17  C   UNL     1       6.863  31.263  59.213  1.00  0.00     0.069 A 
HETATM   18  H   UNL     1       5.772  29.556  54.897  1.00  0.00     0.136 HD
HETATM   19  O   UNL     1       4.309  31.020  51.736  1.00  0.00    -0.263 OA
BRANCH  17  20
HETATM   20  O   UNL     1       7.113  31.632  60.507  1.00  0.00    -0.356 OA
HETATM   21  C   UNL     1       6.120  32.413  61.160  1.00  0.00     0.210 C 
ENDBRANCH  17  20
ENDBRANCH   5   7
BRANCH   1  22
HETATM   22  C   UNL     1       6.067  25.760  53.252  1.00  0.00     0.025 A 
HETATM   23  C   UNL     1       6.065  24.940  54.397  1.00  0.00     0.078 A 
HETATM   24  C   UNL     1       6.895  23.817  54.490  1.00  0.00     0.044 A 
HETATM   25  C   UNL     1       7.758  23.490  53.440  1.00  0.00    -0.059 A 
HETATM   26  C   UNL     1       8.641  22.280  53.519  1.00  0.00     0.048 C 
HETATM   27  C   UNL     1       7.752  24.282  52.288  1.00  0.00     0.008 A 
HETATM   28  C   UNL     1       6.921  25.403  52.199  1.00  0.00     0.017 A 
BRANCH  23  29
HETATM   29  O   UNL     1       5.237  25.238  55.454  1.00  0.00    -0.360 OA
HETATM   30  H   UNL     1       4.606  25.920  55.162  1.00  0.00     0.217 HD
ENDBRANCH  23  29
ENDBRANCH   1  22
TORSDOF 4
ENDMDL
MODEL 9
REMARK VINA RESULT:      -8.7      6.257      9.938
REMARK  4 active torsions:
REMARK  status: ('A' for Active; 'I' for Inactive)
REMARK    1  A    between atoms: C_4  and  O_5 
REMARK    2  A    between atoms: C_6  and  C_7 
REMARK    3  A    between atoms: C_11  and  C_12 
REMARK       I    between atoms: C_12  and  N_13 
REMARK    4  A    between atoms: C_19  and  O_20 
ROOT
HETATM    1  C   UNL     1       4.471  28.346  52.780  1.00  0.00     0.065 A 
HETATM    2  N   UNL     1       3.617  28.233  53.845  1.00  0.00    -0.277 N 
HETATM    3  H   UNL     1       2.614  28.076  53.787  1.00  0.00     0.189 HD
HETATM    4  N   UNL     1       4.213  28.266  55.050  1.00  0.00    -0.169 NA
HETATM    5  C   UNL     1       5.510  28.515  54.770  1.00  0.00     0.148 A 
HETATM    6  C   UNL     1       5.706  28.560  53.360  1.00  0.00     0.071 A 
ENDROOT
BRANCH   5   7
HETATM    7  C   UNL     1       6.584  28.615  55.791  1.00  0.00     0.299 C 
HETATM    8  N   UNL     1       6.844  27.498  56.543  1.00  0.00    -0.189 NA
HETATM    9  C   UNL     1       7.280  26.439  55.961  1.00  0.00     0.154 C 
HETATM   10  S   UNL     1       7.763  25.067  57.015  1.00  0.00    -0.056 SA
HETATM   11  N   UNL     1       7.448  26.107  54.629  1.00  0.00    -0.236 NA
HETATM   12  C   UNL     1       8.018  24.030  55.595  1.00  0.00     0.032 A 
HETATM   13  C   UNL     1       7.745  24.747  54.426  1.00  0.00     0.032 A 
HETATM   14  C   UNL     1       8.389  22.698  55.558  1.00  0.00     0.057 A 
HETATM   15  C   UNL     1       7.871  24.135  53.189  1.00  0.00     0.028 A 
HETATM   16  C   UNL     1       8.240  22.784  53.138  1.00  0.00     0.038 A 
HETATM   17  C   UNL     1       8.498  22.064  54.316  1.00  0.00     0.069 A 
HETATM   18  H   UNL     1       6.736  26.483  54.005  1.00  0.00     0.136 HD
HETATM   19  O   UNL     1       7.169  29.678  55.975  1.00  0.00    -0.263 OA
BRANCH  17  20
HETATM   20  O   UNL     1       8.868  20.748  54.381  1.00  0.00    -0.356 OA
HETATM   21  C   UNL     1       8.768  19.988  53.183  1.00  0.00     0.210 C 
ENDBRANCH  17  20
ENDBRANCH   5   7
BRANCH   1  22
HETATM   22  C   UNL     1       4.031  28.228  51.384  1.00  0.00     0.025 A 
HETATM   23  C   UNL     1       2.931  28.944  50.873  1.00  0.00     0.078 A 
HETATM   24  C   UNL     1       2.510  28.785  49.547  1.00  0.00     0.044 A 
HETATM   25  C   UNL     1       3.179  27.897  48.698  1.00  0.00    -0.059 A 
HETATM   26  C   UNL     1       2.750  27.731  47.270  1.00  0.00     0.048 C 
HETATM   27  C   UNL     1       4.287  27.200  49.186  1.00  0.00     0.008 A 
HETATM   28  C   UNL     1       4.703  27.361  50.512  1.00  0.00     0.017 A 
BRANCH  23  29
HETATM   29  O   UNL     1       2.243  29.817  51.683  1.00  0.00    -0.360 OA
HETATM   30  H   UNL     1       1.871  30.521  51.123  1.00  0.00     0.217 HD
ENDBRANCH  23  29
ENDBRANCH   1  22
TORSDOF 4
ENDMDL
MODEL 10
REMARK VINA RESULT:      -8.7      7.412     10.625
REMARK  4 active torsions:
REMARK  status: ('A' for Active; 'I' for Inactive)
REMARK    1  A    between atoms: C_4  and  O_5 
REMARK    2  A    between atoms: C_6  and  C_7 
REMARK    3  A    between atoms: C_11  and  C_12 
REMARK       I    between atoms: C_12  and  N_13 
REMARK    4  A    between atoms: C_19  and  O_20 
ROOT
HETATM    1  C   UNL     1       6.758  25.815  54.245  1.00  0.00     0.065 A 
HETATM    2  N   UNL     1       7.500  26.884  53.819  1.00  0.00    -0.277 N 
HETATM    3  H   UNL     1       8.434  26.837  53.420  1.00  0.00     0.189 HD
HETATM    4  N   UNL     1       6.869  28.070  53.889  1.00  0.00    -0.169 NA
HETATM    5  C   UNL     1       5.691  27.782  54.483  1.00  0.00     0.148 A 
HETATM    6  C   UNL     1       5.586  26.380  54.708  1.00  0.00     0.071 A 
ENDROOT
BRANCH   5   7
HETATM    7  C   UNL     1       4.624  28.779  54.755  1.00  0.00     0.299 C 
HETATM    8  N   UNL     1       4.515  29.837  53.889  1.00  0.00    -0.189 NA
HETATM    9  C   UNL     1       4.209  29.612  52.662  1.00  0.00     0.154 C 
HETATM   10  S   UNL     1       3.915  31.044  51.618  1.00  0.00    -0.056 SA
HETATM   11  N   UNL     1       4.071  28.446  51.932  1.00  0.00    -0.236 NA
HETATM   12  C   UNL     1       3.776  30.004  50.184  1.00  0.00     0.032 A 
HETATM   13  C   UNL     1       3.944  28.664  50.548  1.00  0.00     0.032 A 
HETATM   14  C   UNL     1       3.575  30.377  48.867  1.00  0.00     0.057 A 
HETATM   15  C   UNL     1       3.883  27.668  49.586  1.00  0.00     0.028 A 
HETATM   16  C   UNL     1       3.687  28.033  48.248  1.00  0.00     0.038 A 
HETATM   17  C   UNL     1       3.533  29.381  47.885  1.00  0.00     0.069 A 
HETATM   18  H   UNL     1       4.722  27.705  52.187  1.00  0.00     0.136 HD
HETATM   19  O   UNL     1       3.912  28.671  55.749  1.00  0.00    -0.263 OA
BRANCH  17  20
HETATM   20  O   UNL     1       3.333  29.847  46.614  1.00  0.00    -0.356 OA
HETATM   21  C   UNL     1       2.342  30.852  46.442  1.00  0.00     0.210 C 
ENDBRANCH  17  20
ENDBRANCH   5   7
BRANCH   1  22
HETATM   22  C   UNL     1       7.227  24.426  54.151  1.00  0.00     0.025 A 
HETATM   23  C   UNL     1       7.704  23.867  52.949  1.00  0.00     0.078 A 
HETATM   24  C   UNL     1       8.111  22.529  52.879  1.00  0.00     0.044 A 
HETATM   25  C   UNL     1       8.044  21.712  54.012  1.00  0.00    -0.059 A 
HETATM   26  C   UNL     1       8.494  20.282  53.956  1.00  0.00     0.048 C 
HETATM   27  C   UNL     1       7.596  22.262  55.217  1.00  0.00     0.008 A 
HETATM   28  C   UNL     1       7.190  23.599  55.282  1.00  0.00     0.017 A 
BRANCH  23  29
HETATM   29  O   UNL     1       7.772  24.638  51.812  1.00  0.00    -0.360 OA
HETATM   30  H   UNL     1       7.417  24.117  51.071  1.00  0.00     0.217 HD
ENDBRANCH  23  29
ENDBRANCH   1  22
TORSDOF 4
ENDMDL
