MODEL 1
REMARK VINA RESULT:     -10.4      0.000      0.000
REMARK  10 active torsions:
REMARK  status: ('A' for Active; 'I' for Inactive)
REMARK    1  A    between atoms: C_4  and  C_5 
REMARK    2  A    between atoms: C_5  and  N_6 
REMARK    3  A    between atoms: C_7  and  S_8 
REMARK    4  A    between atoms: S_8  and  C_9 
REMARK    5  A    between atoms: C_9  and  C_10 
REMARK       I    between atoms: C_10  and  N_11 
REMARK    6  A    between atoms: N_11  and  C_12 
REMARK    7  A    between atoms: C_12  and  C_13 
REMARK       I    between atoms: C_13  and  N_14 
REMARK    8  A    between atoms: N_14  and  C_15 
REMARK    9  A    between atoms: C_26  and  C_27 
REMARK   10  A    between atoms: C_27  and  N_28 
ROOT
HETATM    1  N   UNL     1       6.068  26.575  53.489  1.00  0.00    -0.306 N 
HETATM    2  C   UNL     1       5.480  27.227  54.543  1.00  0.00     0.192 A 
HETATM    3  N   UNL     1       4.305  27.681  54.179  1.00  0.00    -0.123 NA
HETATM    4  N   UNL     1       4.081  27.284  52.889  1.00  0.00    -0.132 NA
HETATM    5  C   UNL     1       5.111  26.564  52.491  1.00  0.00     0.157 A 
ENDROOT
BRANCH   2   6
HETATM    6  S   UNL     1       6.177  27.339  56.117  1.00  0.00    -0.081 SA
BRANCH   6   7
HETATM    7  C   UNL     1       7.238  28.801  55.946  1.00  0.00     0.185 C 
BRANCH   7   8
HETATM    8  C   UNL     1       8.217  28.913  57.102  1.00  0.00     0.227 C 
HETATM    9  N   UNL     1       9.321  29.698  56.846  1.00  0.00    -0.352 N 
HETATM   10  H   UNL     1       9.552  29.954  55.894  1.00  0.00     0.162 HD
HETATM   11  O   UNL     1       8.054  28.385  58.201  1.00  0.00    -0.273 OA
BRANCH   9  12
HETATM   12  C   UNL     1      10.276  30.047  57.889  1.00  0.00     0.225 C 
BRANCH  12  13
HETATM   13  C   UNL     1       9.804  31.204  58.779  1.00  0.00     0.239 C 
HETATM   14  N   UNL     1       8.966  30.784  59.797  1.00  0.00    -0.326 N 
HETATM   15  H   UNL     1       8.842  29.772  59.871  1.00  0.00     0.169 HD
HETATM   16  O   UNL     1      10.146  32.359  58.544  1.00  0.00    -0.271 OA
BRANCH  14  17
HETATM   17  C   UNL     1       8.299  31.569  60.752  1.00  0.00     0.035 A 
HETATM   18  C   UNL     1       7.148  32.314  60.483  1.00  0.00     0.032 A 
HETATM   19  C   UNL     1       6.538  33.060  61.495  1.00  0.00     0.044 A 
HETATM   20  C   UNL     1       7.085  33.064  62.771  1.00  0.00     0.116 A 
HETATM   21  F   UNL     1       6.508  33.789  63.737  1.00  0.00    -0.206 F 
HETATM   22  C   UNL     1       8.226  32.327  63.059  1.00  0.00     0.044 A 
HETATM   23  C   UNL     1       8.831  31.576  62.051  1.00  0.00     0.032 A 
ENDBRANCH  14  17
ENDBRANCH  12  13
ENDBRANCH   9  12
ENDBRANCH   7   8
ENDBRANCH   6   7
ENDBRANCH   2   6
BRANCH   1  24
HETATM   24  C   UNL     1       7.443  26.110  53.393  1.00  0.00     0.171 C 
BRANCH  24  25
HETATM   25  C   UNL     1       7.582  24.639  53.690  1.00  0.00    -0.040 A 
HETATM   26  C   UNL     1       7.384  24.150  54.991  1.00  0.00     0.009 A 
HETATM   27  C   UNL     1       7.465  22.782  55.256  1.00  0.00     0.001 A 
HETATM   28  C   UNL     1       7.729  21.885  54.222  1.00  0.00     0.000 A 
HETATM   29  C   UNL     1       7.911  22.354  52.925  1.00  0.00     0.001 A 
HETATM   30  C   UNL     1       7.840  23.722  52.660  1.00  0.00     0.009 A 
ENDBRANCH  24  25
ENDBRANCH   1  24
BRANCH   5  31
HETATM   31  C   UNL     1       5.210  25.823  51.202  1.00  0.00     0.315 C 
BRANCH  31  32
HETATM   32  N   UNL     1       5.380  26.705  49.968  1.00  0.00    -0.064 N 
HETATM   33  H   UNL     1       6.310  26.473  49.590  1.00  0.00     0.280 HD
HETATM   34  C   UNL     1       4.331  26.387  48.929  1.00  0.00     0.235 C 
HETATM   35  C   UNL     1       4.595  27.174  47.654  1.00  0.00     0.028 C 
HETATM   36  C   UNL     1       4.687  28.671  47.921  1.00  0.00     0.003 C 
HETATM   37  C   UNL     1       5.708  28.969  49.011  1.00  0.00     0.028 C 
HETATM   38  C   UNL     1       5.414  28.187  50.287  1.00  0.00     0.235 C 
ENDBRANCH  31  32
ENDBRANCH   5  31
TORSDOF 10
ENDMDL
MODEL 2
REMARK VINA RESULT:     -10.0      1.019      1.757
REMARK  10 active torsions:
REMARK  status: ('A' for Active; 'I' for Inactive)
REMARK    1  A    between atoms: C_4  and  C_5 
REMARK    2  A    between atoms: C_5  and  N_6 
REMARK    3  A    between atoms: C_7  and  S_8 
REMARK    4  A    between atoms: S_8  and  C_9 
REMARK    5  A    between atoms: C_9  and  C_10 
REMARK       I    between atoms: C_10  and  N_11 
REMARK    6  A    between atoms: N_11  and  C_12 
REMARK    7  A    between atoms: C_12  and  C_13 
REMARK       I    between atoms: C_13  and  N_14 
REMARK    8  A    between atoms: N_14  and  C_15 
REMARK    9  A    between atoms: C_26  and  C_27 
REMARK   10  A    between atoms: C_27  and  N_28 
ROOT
HETATM    1  N   UNL     1       6.247  26.431  53.803  1.00  0.00    -0.306 N 
HETATM    2  C   UNL     1       5.747  27.006  54.943  1.00  0.00     0.192 A 
HETATM    3  N   UNL     1       4.595  27.575  54.678  1.00  0.00    -0.123 NA
HETATM    4  N   UNL     1       4.297  27.333  53.365  1.00  0.00    -0.132 NA
HETATM    5  C   UNL     1       5.257  26.590  52.851  1.00  0.00     0.157 A 
ENDROOT
BRANCH   2   6
HETATM    6  S   UNL     1       6.506  26.904  56.488  1.00  0.00    -0.081 SA
BRANCH   6   7
HETATM    7  C   UNL     1       5.822  28.358  57.331  1.00  0.00     0.185 C 
BRANCH   7   8
HETATM    8  C   UNL     1       6.834  29.490  57.391  1.00  0.00     0.227 C 
HETATM    9  N   UNL     1       7.917  29.248  58.209  1.00  0.00    -0.352 N 
HETATM   10  H   UNL     1       7.889  28.491  58.879  1.00  0.00     0.162 HD
HETATM   11  O   UNL     1       6.739  30.537  56.753  1.00  0.00    -0.273 OA
BRANCH   9  12
HETATM   12  C   UNL     1       9.059  30.151  58.259  1.00  0.00     0.225 C 
BRANCH  12  13
HETATM   13  C   UNL     1       8.881  31.298  59.263  1.00  0.00     0.239 C 
HETATM   14  N   UNL     1       8.113  30.935  60.355  1.00  0.00    -0.326 N 
HETATM   15  H   UNL     1       7.842  29.950  60.390  1.00  0.00     0.169 HD
HETATM   16  O   UNL     1       9.369  32.404  59.048  1.00  0.00    -0.271 OA
BRANCH  14  17
HETATM   17  C   UNL     1       7.693  31.740  61.427  1.00  0.00     0.035 A 
HETATM   18  C   UNL     1       8.408  31.881  62.620  1.00  0.00     0.032 A 
HETATM   19  C   UNL     1       7.927  32.713  63.635  1.00  0.00     0.044 A 
HETATM   20  C   UNL     1       6.730  33.394  63.456  1.00  0.00     0.116 A 
HETATM   21  F   UNL     1       6.263  34.181  64.434  1.00  0.00    -0.206 F 
HETATM   22  C   UNL     1       6.008  33.270  62.277  1.00  0.00     0.044 A 
HETATM   23  C   UNL     1       6.493  32.446  61.260  1.00  0.00     0.032 A 
ENDBRANCH  14  17
ENDBRANCH  12  13
ENDBRANCH   9  12
ENDBRANCH   7   8
ENDBRANCH   6   7
ENDBRANCH   2   6
BRANCH   1  24
HETATM   24  C   UNL     1       7.581  25.886  53.600  1.00  0.00     0.171 C 
BRANCH  24  25
HETATM   25  C   UNL     1       7.646  24.401  53.844  1.00  0.00    -0.040 A 
HETATM   26  C   UNL     1       7.685  23.499  52.768  1.00  0.00     0.009 A 
HETATM   27  C   UNL     1       7.794  22.126  52.995  1.00  0.00     0.001 A 
HETATM   28  C   UNL     1       7.882  21.639  54.298  1.00  0.00     0.000 A 
HETATM   29  C   UNL     1       7.861  22.521  55.373  1.00  0.00     0.001 A 
HETATM   30  C   UNL     1       7.743  23.893  55.149  1.00  0.00     0.009 A 
ENDBRANCH  24  25
ENDBRANCH   1  24
BRANCH   5  31
HETATM   31  C   UNL     1       5.256  25.984  51.490  1.00  0.00     0.315 C 
BRANCH  31  32
HETATM   32  N   UNL     1       4.500  26.785  50.433  1.00  0.00    -0.064 N 
HETATM   33  H   UNL     1       3.617  27.069  50.882  1.00  0.00     0.280 HD
HETATM   34  C   UNL     1       5.272  28.020  50.036  1.00  0.00     0.235 C 
HETATM   35  C   UNL     1       4.448  28.877  49.087  1.00  0.00     0.028 C 
HETATM   36  C   UNL     1       3.985  28.088  47.869  1.00  0.00     0.003 C 
HETATM   37  C   UNL     1       3.257  26.817  48.287  1.00  0.00     0.028 C 
HETATM   38  C   UNL     1       4.108  25.962  49.221  1.00  0.00     0.235 C 
ENDBRANCH  31  32
ENDBRANCH   5  31
TORSDOF 10
ENDMDL
MODEL 3
REMARK VINA RESULT:      -9.8      1.897      2.680
REMARK  10 active torsions:
REMARK  status: ('A' for Active; 'I' for Inactive)
REMARK    1  A    between atoms: C_4  and  C_5 
REMARK    2  A    between atoms: C_5  and  N_6 
REMARK    3  A    between atoms: C_7  and  S_8 
REMARK    4  A    between atoms: S_8  and  C_9 
REMARK    5  A    between atoms: C_9  and  C_10 
REMARK       I    between atoms: C_10  and  N_11 
REMARK    6  A    between atoms: N_11  and  C_12 
REMARK    7  A    between atoms: C_12  and  C_13 
REMARK       I    between atoms: C_13  and  N_14 
REMARK    8  A    between atoms: N_14  and  C_15 
REMARK    9  A    between atoms: C_26  and  C_27 
REMARK   10  A    between atoms: C_27  and  N_28 
ROOT
HETATM    1  N   UNL     1       6.552  26.139  54.610  1.00  0.00    -0.306 N 
HETATM    2  C   UNL     1       7.314  27.059  55.283  1.00  0.00     0.192 A 
HETATM    3  N   UNL     1       7.602  28.060  54.484  1.00  0.00    -0.123 NA
HETATM    4  N   UNL     1       6.982  27.833  53.286  1.00  0.00    -0.132 NA
HETATM    5  C   UNL     1       6.296  26.711  53.378  1.00  0.00     0.157 A 
ENDROOT
BRANCH   2   6
HETATM    6  S   UNL     1       7.741  26.925  56.948  1.00  0.00    -0.081 SA
BRANCH   6   7
HETATM    7  C   UNL     1       7.122  28.496  57.614  1.00  0.00     0.185 C 
BRANCH   7   8
HETATM    8  C   UNL     1       8.245  29.324  58.214  1.00  0.00     0.227 C 
HETATM    9  N   UNL     1       7.922  29.961  59.394  1.00  0.00    -0.352 N 
HETATM   10  H   UNL     1       6.953  30.050  59.674  1.00  0.00     0.162 HD
HETATM   11  O   UNL     1       9.371  29.417  57.729  1.00  0.00    -0.273 OA
BRANCH   9  12
HETATM   12  C   UNL     1       8.921  30.662  60.189  1.00  0.00     0.225 C 
BRANCH  12  13
HETATM   13  C   UNL     1       8.484  30.897  61.641  1.00  0.00     0.239 C 
HETATM   14  N   UNL     1       7.634  31.981  61.771  1.00  0.00    -0.326 N 
HETATM   15  H   UNL     1       7.349  32.421  60.893  1.00  0.00     0.169 HD
HETATM   16  O   UNL     1       8.901  30.183  62.547  1.00  0.00    -0.271 OA
BRANCH  14  17
HETATM   17  C   UNL     1       7.094  32.524  62.949  1.00  0.00     0.035 A 
HETATM   18  C   UNL     1       7.861  33.104  63.963  1.00  0.00     0.032 A 
HETATM   19  C   UNL     1       7.243  33.633  65.099  1.00  0.00     0.044 A 
HETATM   20  C   UNL     1       5.861  33.574  65.220  1.00  0.00     0.116 A 
HETATM   21  F   UNL     1       5.270  34.069  66.315  1.00  0.00    -0.206 F 
HETATM   22  C   UNL     1       5.082  33.005  64.222  1.00  0.00     0.044 A 
HETATM   23  C   UNL     1       5.698  32.484  63.084  1.00  0.00     0.032 A 
ENDBRANCH  14  17
ENDBRANCH  12  13
ENDBRANCH   9  12
ENDBRANCH   7   8
ENDBRANCH   6   7
ENDBRANCH   2   6
BRANCH   1  24
HETATM   24  C   UNL     1       6.195  24.797  55.047  1.00  0.00     0.171 C 
BRANCH  24  25
HETATM   25  C   UNL     1       7.201  23.760  54.620  1.00  0.00    -0.040 A 
HETATM   26  C   UNL     1       8.179  23.300  55.517  1.00  0.00     0.009 A 
HETATM   27  C   UNL     1       9.080  22.304  55.136  1.00  0.00     0.001 A 
HETATM   28  C   UNL     1       9.005  21.745  53.862  1.00  0.00     0.000 A 
HETATM   29  C   UNL     1       8.031  22.179  52.969  1.00  0.00     0.001 A 
HETATM   30  C   UNL     1       7.135  23.181  53.343  1.00  0.00     0.009 A 
ENDBRANCH  24  25
ENDBRANCH   1  24
BRANCH   5  31
HETATM   31  C   UNL     1       5.366  26.171  52.346  1.00  0.00     0.315 C 
BRANCH  31  32
HETATM   32  N   UNL     1       4.406  27.197  51.748  1.00  0.00    -0.064 N 
HETATM   33  H   UNL     1       3.590  26.657  51.428  1.00  0.00     0.280 HD
HETATM   34  C   UNL     1       3.962  28.193  52.793  1.00  0.00     0.235 C 
HETATM   35  C   UNL     1       2.904  29.124  52.220  1.00  0.00     0.028 C 
HETATM   36  C   UNL     1       3.386  29.817  50.952  1.00  0.00     0.003 C 
HETATM   37  C   UNL     1       3.883  28.801  49.931  1.00  0.00     0.028 C 
HETATM   38  C   UNL     1       4.958  27.892  50.519  1.00  0.00     0.235 C 
ENDBRANCH  31  32
ENDBRANCH   5  31
TORSDOF 10
ENDMDL
MODEL 4
REMARK VINA RESULT:      -9.7      2.580      5.097
REMARK  10 active torsions:
REMARK  status: ('A' for Active; 'I' for Inactive)
REMARK    1  A    between atoms: C_4  and  C_5 
REMARK    2  A    between atoms: C_5  and  N_6 
REMARK    3  A    between atoms: C_7  and  S_8 
REMARK    4  A    between atoms: S_8  and  C_9 
REMARK    5  A    between atoms: C_9  and  C_10 
REMARK       I    between atoms: C_10  and  N_11 
REMARK    6  A    between atoms: N_11  and  C_12 
REMARK    7  A    between atoms: C_12  and  C_13 
REMARK       I    between atoms: C_13  and  N_14 
REMARK    8  A    between atoms: N_14  and  C_15 
REMARK    9  A    between atoms: C_26  and  C_27 
REMARK   10  A    between atoms: C_27  and  N_28 
ROOT
HETATM    1  N   UNL     1       6.579  26.672  56.445  1.00  0.00    -0.306 N 
HETATM    2  C   UNL     1       7.544  27.545  56.877  1.00  0.00     0.192 A 
HETATM    3  N   UNL     1       8.385  26.917  57.664  1.00  0.00    -0.123 NA
HETATM    4  N   UNL     1       8.012  25.603  57.715  1.00  0.00    -0.132 NA
HETATM    5  C   UNL     1       6.964  25.437  56.932  1.00  0.00     0.157 A 
ENDROOT
BRANCH   2   6
HETATM    6  S   UNL     1       7.649  29.192  56.375  1.00  0.00    -0.081 SA
BRANCH   6   7
HETATM    7  C   UNL     1       6.551  30.011  57.565  1.00  0.00     0.185 C 
BRANCH   7   8
HETATM    8  C   UNL     1       7.339  30.828  58.575  1.00  0.00     0.227 C 
HETATM    9  N   UNL     1       8.086  30.080  59.460  1.00  0.00    -0.352 N 
HETATM   10  H   UNL     1       7.911  29.089  59.562  1.00  0.00     0.162 HD
HETATM   11  O   UNL     1       7.355  32.057  58.608  1.00  0.00    -0.273 OA
BRANCH   9  12
HETATM   12  C   UNL     1       9.025  30.698  60.387  1.00  0.00     0.225 C 
BRANCH  12  13
HETATM   13  C   UNL     1       8.439  30.916  61.788  1.00  0.00     0.239 C 
HETATM   14  N   UNL     1       7.610  32.021  61.852  1.00  0.00    -0.326 N 
HETATM   15  H   UNL     1       7.434  32.488  60.959  1.00  0.00     0.169 HD
HETATM   16  O   UNL     1       8.736  30.170  62.717  1.00  0.00    -0.271 OA
BRANCH  14  17
HETATM   17  C   UNL     1       6.959  32.555  62.977  1.00  0.00     0.035 A 
HETATM   18  C   UNL     1       5.573  32.540  63.155  1.00  0.00     0.032 A 
HETATM   19  C   UNL     1       5.005  33.082  64.311  1.00  0.00     0.044 A 
HETATM   20  C   UNL     1       5.825  33.642  65.282  1.00  0.00     0.116 A 
HETATM   21  F   UNL     1       5.279  34.172  66.384  1.00  0.00    -0.206 F 
HETATM   22  C   UNL     1       7.204  33.662  65.126  1.00  0.00     0.044 A 
HETATM   23  C   UNL     1       7.772  33.114  63.975  1.00  0.00     0.032 A 
ENDBRANCH  14  17
ENDBRANCH  12  13
ENDBRANCH   9  12
ENDBRANCH   7   8
ENDBRANCH   6   7
ENDBRANCH   2   6
BRANCH   1  24
HETATM   24  C   UNL     1       5.349  26.993  55.737  1.00  0.00     0.171 C 
BRANCH  24  25
HETATM   25  C   UNL     1       5.453  26.755  54.253  1.00  0.00    -0.040 A 
HETATM   26  C   UNL     1       5.033  25.538  53.692  1.00  0.00     0.009 A 
HETATM   27  C   UNL     1       5.084  25.336  52.312  1.00  0.00     0.001 A 
HETATM   28  C   UNL     1       5.541  26.352  51.475  1.00  0.00     0.000 A 
HETATM   29  C   UNL     1       5.945  27.569  52.015  1.00  0.00     0.001 A 
HETATM   30  C   UNL     1       5.903  27.769  53.394  1.00  0.00     0.009 A 
ENDBRANCH  24  25
ENDBRANCH   1  24
BRANCH   5  31
HETATM   31  C   UNL     1       6.328  24.133  56.592  1.00  0.00     0.315 C 
BRANCH  31  32
HETATM   32  N   UNL     1       7.197  23.193  55.759  1.00  0.00    -0.064 N 
HETATM   33  H   UNL     1       6.543  22.527  55.324  1.00  0.00     0.280 HD
HETATM   34  C   UNL     1       7.925  23.951  54.676  1.00  0.00     0.235 C 
HETATM   35  C   UNL     1       8.678  22.987  53.771  1.00  0.00     0.028 C 
HETATM   36  C   UNL     1       9.621  22.089  54.560  1.00  0.00     0.003 C 
HETATM   37  C   UNL     1       8.881  21.376  55.685  1.00  0.00     0.028 C 
HETATM   38  C   UNL     1       8.152  22.361  56.592  1.00  0.00     0.235 C 
ENDBRANCH  31  32
ENDBRANCH   5  31
TORSDOF 10
ENDMDL
MODEL 5
REMARK VINA RESULT:      -9.5      2.125      4.798
REMARK  10 active torsions:
REMARK  status: ('A' for Active; 'I' for Inactive)
REMARK    1  A    between atoms: C_4  and  C_5 
REMARK    2  A    between atoms: C_5  and  N_6 
REMARK    3  A    between atoms: C_7  and  S_8 
REMARK    4  A    between atoms: S_8  and  C_9 
REMARK    5  A    between atoms: C_9  and  C_10 
REMARK       I    between atoms: C_10  and  N_11 
REMARK    6  A    between atoms: N_11  and  C_12 
REMARK    7  A    between atoms: C_12  and  C_13 
REMARK       I    between atoms: C_13  and  N_14 
REMARK    8  A    between atoms: N_14  and  C_15 
REMARK    9  A    between atoms: C_26  and  C_27 
REMARK   10  A    between atoms: C_27  and  N_28 
ROOT
HETATM    1  N   UNL     1       6.930  26.063  55.302  1.00  0.00    -0.306 N 
HETATM    2  C   UNL     1       5.717  26.391  55.851  1.00  0.00     0.192 A 
HETATM    3  N   UNL     1       5.405  25.521  56.782  1.00  0.00    -0.123 NA
HETATM    4  N   UNL     1       6.442  24.635  56.894  1.00  0.00    -0.132 NA
HETATM    5  C   UNL     1       7.390  24.996  56.051  1.00  0.00     0.157 A 
ENDROOT
BRANCH   2   6
HETATM    6  S   UNL     1       4.808  27.790  55.414  1.00  0.00    -0.081 SA
BRANCH   6   7
HETATM    7  C   UNL     1       4.983  28.821  56.897  1.00  0.00     0.185 C 
BRANCH   7   8
HETATM    8  C   UNL     1       6.383  29.400  57.007  1.00  0.00     0.227 C 
HETATM    9  N   UNL     1       6.755  29.764  58.283  1.00  0.00    -0.352 N 
HETATM   10  H   UNL     1       6.056  29.856  59.009  1.00  0.00     0.162 HD
HETATM   11  O   UNL     1       7.157  29.521  56.059  1.00  0.00    -0.273 OA
BRANCH   9  12
HETATM   12  C   UNL     1       8.114  30.184  58.599  1.00  0.00     0.225 C 
BRANCH  12  13
HETATM   13  C   UNL     1       8.172  31.360  59.581  1.00  0.00     0.239 C 
HETATM   14  N   UNL     1       7.424  31.137  60.724  1.00  0.00    -0.326 N 
HETATM   15  H   UNL     1       7.009  30.205  60.799  1.00  0.00     0.169 HD
HETATM   16  O   UNL     1       8.809  32.374  59.312  1.00  0.00    -0.271 OA
BRANCH  14  17
HETATM   17  C   UNL     1       7.196  32.013  61.798  1.00  0.00     0.035 A 
HETATM   18  C   UNL     1       6.098  32.874  61.882  1.00  0.00     0.032 A 
HETATM   19  C   UNL     1       5.939  33.707  62.993  1.00  0.00     0.044 A 
HETATM   20  C   UNL     1       6.882  33.681  64.012  1.00  0.00     0.116 A 
HETATM   21  F   UNL     1       6.736  34.488  65.070  1.00  0.00    -0.206 F 
HETATM   22  C   UNL     1       7.977  32.830  63.949  1.00  0.00     0.044 A 
HETATM   23  C   UNL     1       8.132  31.992  62.843  1.00  0.00     0.032 A 
ENDBRANCH  14  17
ENDBRANCH  12  13
ENDBRANCH   9  12
ENDBRANCH   7   8
ENDBRANCH   6   7
ENDBRANCH   2   6
BRANCH   1  24
HETATM   24  C   UNL     1       7.544  26.629  54.110  1.00  0.00     0.171 C 
BRANCH  24  25
HETATM   25  C   UNL     1       6.655  26.536  52.897  1.00  0.00    -0.040 A 
HETATM   26  C   UNL     1       6.078  25.311  52.526  1.00  0.00     0.009 A 
HETATM   27  C   UNL     1       5.216  25.236  51.430  1.00  0.00     0.001 A 
HETATM   28  C   UNL     1       4.908  26.384  50.703  1.00  0.00     0.000 A 
HETATM   29  C   UNL     1       5.460  27.607  51.070  1.00  0.00     0.001 A 
HETATM   30  C   UNL     1       6.329  27.684  52.158  1.00  0.00     0.009 A 
ENDBRANCH  24  25
ENDBRANCH   1  24
BRANCH   5  31
HETATM   31  C   UNL     1       8.746  24.386  55.952  1.00  0.00     0.315 C 
BRANCH  31  32
HETATM   32  N   UNL     1       8.792  23.039  55.234  1.00  0.00    -0.064 N 
HETATM   33  H   UNL     1       9.759  22.942  54.893  1.00  0.00     0.280 HD
HETATM   34  C   UNL     1       8.488  21.909  56.188  1.00  0.00     0.235 C 
HETATM   35  C   UNL     1       8.671  20.568  55.494  1.00  0.00     0.028 C 
HETATM   36  C   UNL     1       7.838  20.469  54.223  1.00  0.00     0.003 C 
HETATM   37  C   UNL     1       8.115  21.647  53.297  1.00  0.00     0.028 C 
HETATM   38  C   UNL     1       7.905  22.981  54.006  1.00  0.00     0.235 C 
ENDBRANCH  31  32
ENDBRANCH   5  31
TORSDOF 10
ENDMDL
MODEL 6
REMARK VINA RESULT:      -9.3      2.936      5.363
REMARK  10 active torsions:
REMARK  status: ('A' for Active; 'I' for Inactive)
REMARK    1  A    between atoms: C_4  and  C_5 
REMARK    2  A    between atoms: C_5  and  N_6 
REMARK    3  A    between atoms: C_7  and  S_8 
REMARK    4  A    between atoms: S_8  and  C_9 
REMARK    5  A    between atoms: C_9  and  C_10 
REMARK       I    between atoms: C_10  and  N_11 
REMARK    6  A    between atoms: N_11  and  C_12 
REMARK    7  A    between atoms: C_12  and  C_13 
REMARK       I    between atoms: C_13  and  N_14 
REMARK    8  A    between atoms: N_14  and  C_15 
REMARK    9  A    between atoms: C_26  and  C_27 
REMARK   10  A    between atoms: C_27  and  N_28 
ROOT
HETATM    1  N   UNL     1       6.513  26.720  53.873  1.00  0.00    -0.306 N 
HETATM    2  C   UNL     1       5.217  26.989  53.517  1.00  0.00     0.192 A 
HETATM    3  N   UNL     1       4.568  25.864  53.335  1.00  0.00    -0.123 NA
HETATM    4  N   UNL     1       5.421  24.834  53.625  1.00  0.00    -0.132 NA
HETATM    5  C   UNL     1       6.573  25.345  54.012  1.00  0.00     0.157 A 
ENDROOT
BRANCH   2   6
HETATM    6  S   UNL     1       4.556  28.578  53.413  1.00  0.00    -0.081 SA
BRANCH   6   7
HETATM    7  C   UNL     1       4.166  28.929  55.150  1.00  0.00     0.185 C 
BRANCH   7   8
HETATM    8  C   UNL     1       3.845  30.399  55.361  1.00  0.00     0.227 C 
HETATM    9  N   UNL     1       4.822  31.110  56.025  1.00  0.00    -0.352 N 
HETATM   10  H   UNL     1       5.552  30.622  56.528  1.00  0.00     0.162 HD
HETATM   11  O   UNL     1       2.821  30.948  54.958  1.00  0.00    -0.273 OA
BRANCH   9  12
HETATM   12  C   UNL     1       4.756  32.558  56.169  1.00  0.00     0.225 C 
BRANCH  12  13
HETATM   13  C   UNL     1       5.308  33.060  57.509  1.00  0.00     0.239 C 
HETATM   14  N   UNL     1       6.040  32.095  58.178  1.00  0.00    -0.326 N 
HETATM   15  H   UNL     1       6.185  31.222  57.664  1.00  0.00     0.169 HD
HETATM   16  O   UNL     1       5.066  34.197  57.904  1.00  0.00    -0.271 OA
BRANCH  14  17
HETATM   17  C   UNL     1       6.633  32.179  59.449  1.00  0.00     0.035 A 
HETATM   18  C   UNL     1       5.909  32.278  60.640  1.00  0.00     0.032 A 
HETATM   19  C   UNL     1       6.577  32.345  61.867  1.00  0.00     0.044 A 
HETATM   20  C   UNL     1       7.965  32.321  61.896  1.00  0.00     0.116 A 
HETATM   21  F   UNL     1       8.604  32.399  63.070  1.00  0.00    -0.206 F 
HETATM   22  C   UNL     1       8.701  32.219  60.723  1.00  0.00     0.044 A 
HETATM   23  C   UNL     1       8.034  32.144  59.499  1.00  0.00     0.032 A 
ENDBRANCH  14  17
ENDBRANCH  12  13
ENDBRANCH   9  12
ENDBRANCH   7   8
ENDBRANCH   6   7
ENDBRANCH   2   6
BRANCH   1  24
HETATM   24  C   UNL     1       7.620  27.661  53.962  1.00  0.00     0.171 C 
BRANCH  24  25
HETATM   25  C   UNL     1       7.830  28.181  55.360  1.00  0.00    -0.040 A 
HETATM   26  C   UNL     1       7.044  27.712  56.424  1.00  0.00     0.009 A 
HETATM   27  C   UNL     1       7.272  28.159  57.727  1.00  0.00     0.001 A 
HETATM   28  C   UNL     1       8.297  29.067  57.984  1.00  0.00     0.000 A 
HETATM   29  C   UNL     1       9.094  29.528  56.942  1.00  0.00     0.001 A 
HETATM   30  C   UNL     1       8.863  29.090  55.638  1.00  0.00     0.009 A 
ENDBRANCH  24  25
ENDBRANCH   1  24
BRANCH   5  31
HETATM   31  C   UNL     1       7.731  24.577  54.551  1.00  0.00     0.315 C 
BRANCH  31  32
HETATM   32  N   UNL     1       7.575  23.059  54.494  1.00  0.00    -0.064 N 
HETATM   33  H   UNL     1       6.560  22.886  54.496  1.00  0.00     0.280 HD
HETATM   34  C   UNL     1       8.168  22.504  53.221  1.00  0.00     0.235 C 
HETATM   35  C   UNL     1       7.885  21.013  53.113  1.00  0.00     0.028 C 
HETATM   36  C   UNL     1       8.374  20.253  54.340  1.00  0.00     0.003 C 
HETATM   37  C   UNL     1       7.811  20.862  55.618  1.00  0.00     0.028 C 
HETATM   38  C   UNL     1       8.124  22.352  55.717  1.00  0.00     0.235 C 
ENDBRANCH  31  32
ENDBRANCH   5  31
TORSDOF 10
ENDMDL
MODEL 7
REMARK VINA RESULT:      -9.1      2.357      5.049
REMARK  10 active torsions:
REMARK  status: ('A' for Active; 'I' for Inactive)
REMARK    1  A    between atoms: C_4  and  C_5 
REMARK    2  A    between atoms: C_5  and  N_6 
REMARK    3  A    between atoms: C_7  and  S_8 
REMARK    4  A    between atoms: S_8  and  C_9 
REMARK    5  A    between atoms: C_9  and  C_10 
REMARK       I    between atoms: C_10  and  N_11 
REMARK    6  A    between atoms: N_11  and  C_12 
REMARK    7  A    between atoms: C_12  and  C_13 
REMARK       I    between atoms: C_13  and  N_14 
REMARK    8  A    between atoms: N_14  and  C_15 
REMARK    9  A    between atoms: C_26  and  C_27 
REMARK   10  A    between atoms: C_27  and  N_28 
ROOT
HETATM    1  N   UNL     1       6.618  27.338  55.282  1.00  0.00    -0.306 N 
HETATM    2  C   UNL     1       6.679  28.171  56.369  1.00  0.00     0.192 A 
HETATM    3  N   UNL     1       5.895  27.716  57.317  1.00  0.00    -0.123 NA
HETATM    4  N   UNL     1       5.348  26.540  56.882  1.00  0.00    -0.132 NA
HETATM    5  C   UNL     1       5.830  26.275  55.684  1.00  0.00     0.157 A 
ENDROOT
BRANCH   2   6
HETATM    6  S   UNL     1       7.704  29.554  56.467  1.00  0.00    -0.081 SA
BRANCH   6   7
HETATM    7  C   UNL     1       7.752  29.852  58.256  1.00  0.00     0.185 C 
BRANCH   7   8
HETATM    8  C   UNL     1       7.225  31.234  58.603  1.00  0.00     0.227 C 
HETATM    9  N   UNL     1       5.851  31.345  58.587  1.00  0.00    -0.352 N 
HETATM   10  H   UNL     1       5.288  30.630  58.143  1.00  0.00     0.162 HD
HETATM   11  O   UNL     1       7.937  32.189  58.906  1.00  0.00    -0.273 OA
BRANCH   9  12
HETATM   12  C   UNL     1       5.170  32.547  59.050  1.00  0.00     0.225 C 
BRANCH  12  13
HETATM   13  C   UNL     1       5.057  32.628  60.578  1.00  0.00     0.239 C 
HETATM   14  N   UNL     1       6.084  33.357  61.150  1.00  0.00    -0.326 N 
HETATM   15  H   UNL     1       6.722  33.807  60.489  1.00  0.00     0.169 HD
HETATM   16  O   UNL     1       4.145  32.060  61.172  1.00  0.00    -0.271 OA
BRANCH  14  17
HETATM   17  C   UNL     1       6.335  33.582  62.514  1.00  0.00     0.035 A 
HETATM   18  C   UNL     1       5.604  34.474  63.303  1.00  0.00     0.032 A 
HETATM   19  C   UNL     1       5.910  34.630  64.658  1.00  0.00     0.044 A 
HETATM   20  C   UNL     1       6.950  33.898  65.217  1.00  0.00     0.116 A 
HETATM   21  F   UNL     1       7.251  34.058  66.512  1.00  0.00    -0.206 F 
HETATM   22  C   UNL     1       7.684  33.004  64.450  1.00  0.00     0.044 A 
HETATM   23  C   UNL     1       7.373  32.842  63.099  1.00  0.00     0.032 A 
ENDBRANCH  14  17
ENDBRANCH  12  13
ENDBRANCH   9  12
ENDBRANCH   7   8
ENDBRANCH   6   7
ENDBRANCH   2   6
BRANCH   1  24
HETATM   24  C   UNL     1       7.157  27.577  53.952  1.00  0.00     0.171 C 
BRANCH  24  25
HETATM   25  C   UNL     1       6.083  27.790  52.918  1.00  0.00    -0.040 A 
HETATM   26  C   UNL     1       5.189  28.867  53.025  1.00  0.00     0.009 A 
HETATM   27  C   UNL     1       4.225  29.091  52.041  1.00  0.00     0.001 A 
HETATM   28  C   UNL     1       4.152  28.252  50.931  1.00  0.00     0.000 A 
HETATM   29  C   UNL     1       5.041  27.189  50.804  1.00  0.00     0.001 A 
HETATM   30  C   UNL     1       6.000  26.958  51.790  1.00  0.00     0.009 A 
ENDBRANCH  24  25
ENDBRANCH   1  24
BRANCH   5  31
HETATM   31  C   UNL     1       5.602  25.021  54.911  1.00  0.00     0.315 C 
BRANCH  31  32
HETATM   32  N   UNL     1       6.872  24.271  54.517  1.00  0.00    -0.064 N 
HETATM   33  H   UNL     1       7.608  24.989  54.455  1.00  0.00     0.280 HD
HETATM   34  C   UNL     1       7.252  23.263  55.575  1.00  0.00     0.235 C 
HETATM   35  C   UNL     1       8.589  22.621  55.237  1.00  0.00     0.028 C 
HETATM   36  C   UNL     1       8.584  22.002  53.845  1.00  0.00     0.003 C 
HETATM   37  C   UNL     1       8.144  23.017  52.798  1.00  0.00     0.028 C 
HETATM   38  C   UNL     1       6.792  23.632  53.145  1.00  0.00     0.235 C 
ENDBRANCH  31  32
ENDBRANCH   5  31
TORSDOF 10
ENDMDL
MODEL 8
REMARK VINA RESULT:      -9.0      3.560      5.824
REMARK  10 active torsions:
REMARK  status: ('A' for Active; 'I' for Inactive)
REMARK    1  A    between atoms: C_4  and  C_5 
REMARK    2  A    between atoms: C_5  and  N_6 
REMARK    3  A    between atoms: C_7  and  S_8 
REMARK    4  A    between atoms: S_8  and  C_9 
REMARK    5  A    between atoms: C_9  and  C_10 
REMARK       I    between atoms: C_10  and  N_11 
REMARK    6  A    between atoms: N_11  and  C_12 
REMARK    7  A    between atoms: C_12  and  C_13 
REMARK       I    between atoms: C_13  and  N_14 
REMARK    8  A    between atoms: N_14  and  C_15 
REMARK    9  A    between atoms: C_26  and  C_27 
REMARK   10  A    between atoms: C_27  and  N_28 
ROOT
HETATM    1  N   UNL     1       6.361  27.766  56.290  1.00  0.00    -0.306 N 
HETATM    2  C   UNL     1       5.892  28.769  55.481  1.00  0.00     0.192 A 
HETATM    3  N   UNL     1       5.706  28.304  54.268  1.00  0.00    -0.123 NA
HETATM    4  N   UNL     1       6.000  26.969  54.279  1.00  0.00    -0.132 NA
HETATM    5  C   UNL     1       6.332  26.626  55.508  1.00  0.00     0.157 A 
ENDROOT
BRANCH   2   6
HETATM    6  S   UNL     1       5.537  30.364  56.030  1.00  0.00    -0.081 SA
BRANCH   6   7
HETATM    7  C   UNL     1       3.726  30.325  56.129  1.00  0.00     0.185 C 
BRANCH   7   8
HETATM    8  C   UNL     1       3.163  31.677  56.530  1.00  0.00     0.227 C 
HETATM    9  N   UNL     1       3.846  32.303  57.551  1.00  0.00    -0.352 N 
HETATM   10  H   UNL     1       4.497  31.780  58.122  1.00  0.00     0.162 HD
HETATM   11  O   UNL     1       2.196  32.212  55.990  1.00  0.00    -0.273 OA
BRANCH   9  12
HETATM   12  C   UNL     1       3.546  33.672  57.952  1.00  0.00     0.225 C 
BRANCH  12  13
HETATM   13  C   UNL     1       4.259  34.095  59.243  1.00  0.00     0.239 C 
HETATM   14  N   UNL     1       5.085  33.104  59.744  1.00  0.00    -0.326 N 
HETATM   15  H   UNL     1       5.175  32.271  59.156  1.00  0.00     0.169 HD
HETATM   16  O   UNL     1       4.054  35.196  59.743  1.00  0.00    -0.271 OA
BRANCH  14  17
HETATM   17  C   UNL     1       5.835  33.117  60.932  1.00  0.00     0.035 A 
HETATM   18  C   UNL     1       5.439  33.781  62.096  1.00  0.00     0.032 A 
HETATM   19  C   UNL     1       6.238  33.734  63.241  1.00  0.00     0.044 A 
HETATM   20  C   UNL     1       7.434  33.029  63.216  1.00  0.00     0.116 A 
HETATM   21  F   UNL     1       8.206  32.995  64.309  1.00  0.00    -0.206 F 
HETATM   22  C   UNL     1       7.843  32.359  62.071  1.00  0.00     0.044 A 
HETATM   23  C   UNL     1       7.040  32.399  60.929  1.00  0.00     0.032 A 
ENDBRANCH  14  17
ENDBRANCH  12  13
ENDBRANCH   9  12
ENDBRANCH   7   8
ENDBRANCH   6   7
ENDBRANCH   2   6
BRANCH   1  24
HETATM   24  C   UNL     1       6.895  27.893  57.638  1.00  0.00     0.171 C 
BRANCH  24  25
HETATM   25  C   UNL     1       8.139  28.742  57.694  1.00  0.00    -0.040 A 
HETATM   26  C   UNL     1       9.187  28.536  56.782  1.00  0.00     0.009 A 
HETATM   27  C   UNL     1      10.318  29.354  56.804  1.00  0.00     0.001 A 
HETATM   28  C   UNL     1      10.408  30.395  57.725  1.00  0.00     0.000 A 
HETATM   29  C   UNL     1       9.371  30.621  58.623  1.00  0.00     0.001 A 
HETATM   30  C   UNL     1       8.243  29.800  58.610  1.00  0.00     0.009 A 
ENDBRANCH  24  25
ENDBRANCH   1  24
BRANCH   5  31
HETATM   31  C   UNL     1       6.591  25.238  55.986  1.00  0.00     0.315 C 
BRANCH  31  32
HETATM   32  N   UNL     1       7.483  24.401  55.073  1.00  0.00    -0.064 N 
HETATM   33  H   UNL     1       8.162  25.062  54.671  1.00  0.00     0.280 HD
HETATM   34  C   UNL     1       8.224  23.348  55.861  1.00  0.00     0.235 C 
HETATM   35  C   UNL     1       9.210  22.613  54.965  1.00  0.00     0.028 C 
HETATM   36  C   UNL     1       8.527  22.021  53.739  1.00  0.00     0.003 C 
HETATM   37  C   UNL     1       7.737  23.085  52.987  1.00  0.00     0.028 C 
HETATM   38  C   UNL     1       6.741  23.794  53.899  1.00  0.00     0.235 C 
ENDBRANCH  31  32
ENDBRANCH   5  31
TORSDOF 10
ENDMDL
MODEL 9
REMARK VINA RESULT:      -9.0      4.564      7.836
REMARK  10 active torsions:
REMARK  status: ('A' for Active; 'I' for Inactive)
REMARK    1  A    between atoms: C_4  and  C_5 
REMARK    2  A    between atoms: C_5  and  N_6 
REMARK    3  A    between atoms: C_7  and  S_8 
REMARK    4  A    between atoms: S_8  and  C_9 
REMARK    5  A    between atoms: C_9  and  C_10 
REMARK       I    between atoms: C_10  and  N_11 
REMARK    6  A    between atoms: N_11  and  C_12 
REMARK    7  A    between atoms: C_12  and  C_13 
REMARK       I    between atoms: C_13  and  N_14 
REMARK    8  A    between atoms: N_14  and  C_15 
REMARK    9  A    between atoms: C_26  and  C_27 
REMARK   10  A    between atoms: C_27  and  N_28 
ROOT
HETATM    1  N   UNL     1       4.792  27.859  52.972  1.00  0.00    -0.306 N 
HETATM    2  C   UNL     1       5.681  28.344  53.895  1.00  0.00     0.192 A 
HETATM    3  N   UNL     1       6.835  27.736  53.756  1.00  0.00    -0.123 NA
HETATM    4  N   UNL     1       6.733  26.876  52.696  1.00  0.00    -0.132 NA
HETATM    5  C   UNL     1       5.525  26.994  52.180  1.00  0.00     0.157 A 
ENDROOT
BRANCH   2   6
HETATM    6  S   UNL     1       5.324  29.618  55.001  1.00  0.00    -0.081 SA
BRANCH   6   7
HETATM    7  C   UNL     1       6.539  29.316  56.314  1.00  0.00     0.185 C 
BRANCH   7   8
HETATM    8  C   UNL     1       6.329  27.959  56.964  1.00  0.00     0.227 C 
HETATM    9  N   UNL     1       7.463  27.181  57.049  1.00  0.00    -0.352 N 
HETATM   10  H   UNL     1       8.282  27.415  56.501  1.00  0.00     0.162 HD
HETATM   11  O   UNL     1       5.254  27.568  57.415  1.00  0.00    -0.273 OA
BRANCH   9  12
HETATM   12  C   UNL     1       7.481  25.924  57.785  1.00  0.00     0.225 C 
BRANCH  12  13
HETATM   13  C   UNL     1       8.132  24.774  57.004  1.00  0.00     0.239 C 
HETATM   14  N   UNL     1       7.308  24.269  56.014  1.00  0.00    -0.326 N 
HETATM   15  H   UNL     1       6.427  24.772  55.880  1.00  0.00     0.169 HD
HETATM   16  O   UNL     1       9.255  24.373  57.295  1.00  0.00    -0.271 OA
BRANCH  14  17
HETATM   17  C   UNL     1       7.546  23.183  55.156  1.00  0.00     0.035 A 
HETATM   18  C   UNL     1       7.671  21.860  55.591  1.00  0.00     0.032 A 
HETATM   19  C   UNL     1       7.896  20.834  54.669  1.00  0.00     0.044 A 
HETATM   20  C   UNL     1       8.001  21.135  53.318  1.00  0.00     0.116 A 
HETATM   21  F   UNL     1       8.230  20.153  52.436  1.00  0.00    -0.206 F 
HETATM   22  C   UNL     1       7.876  22.442  52.866  1.00  0.00     0.044 A 
HETATM   23  C   UNL     1       7.643  23.466  53.786  1.00  0.00     0.032 A 
ENDBRANCH  14  17
ENDBRANCH  12  13
ENDBRANCH   9  12
ENDBRANCH   7   8
ENDBRANCH   6   7
ENDBRANCH   2   6
BRANCH   1  24
HETATM   24  C   UNL     1       3.358  28.100  52.913  1.00  0.00     0.171 C 
BRANCH  24  25
HETATM   25  C   UNL     1       2.986  29.158  51.906  1.00  0.00    -0.040 A 
HETATM   26  C   UNL     1       1.989  28.915  50.948  1.00  0.00     0.009 A 
HETATM   27  C   UNL     1       1.612  29.913  50.047  1.00  0.00     0.001 A 
HETATM   28  C   UNL     1       2.214  31.168  50.102  1.00  0.00     0.000 A 
HETATM   29  C   UNL     1       3.193  31.428  51.057  1.00  0.00     0.001 A 
HETATM   30  C   UNL     1       3.578  30.430  51.953  1.00  0.00     0.009 A 
ENDBRANCH  24  25
ENDBRANCH   1  24
BRANCH   5  31
HETATM   31  C   UNL     1       5.044  26.342  50.930  1.00  0.00     0.315 C 
BRANCH  31  32
HETATM   32  N   UNL     1       4.608  27.306  49.830  1.00  0.00    -0.064 N 
HETATM   33  H   UNL     1       3.745  27.749  50.178  1.00  0.00     0.280 HD
HETATM   34  C   UNL     1       5.653  28.372  49.602  1.00  0.00     0.235 C 
HETATM   35  C   UNL     1       5.148  29.403  48.604  1.00  0.00     0.028 C 
HETATM   36  C   UNL     1       4.709  28.757  47.296  1.00  0.00     0.003 C 
HETATM   37  C   UNL     1       3.698  27.646  47.549  1.00  0.00     0.028 C 
HETATM   38  C   UNL     1       4.232  26.613  48.535  1.00  0.00     0.235 C 
ENDBRANCH  31  32
ENDBRANCH   5  31
TORSDOF 10
ENDMDL
MODEL 10
REMARK VINA RESULT:      -9.0      4.510     11.889
REMARK  10 active torsions:
REMARK  status: ('A' for Active; 'I' for Inactive)
REMARK    1  A    between atoms: C_4  and  C_5 
REMARK    2  A    between atoms: C_5  and  N_6 
REMARK    3  A    between atoms: C_7  and  S_8 
REMARK    4  A    between atoms: S_8  and  C_9 
REMARK    5  A    between atoms: C_9  and  C_10 
REMARK       I    between atoms: C_10  and  N_11 
REMARK    6  A    between atoms: N_11  and  C_12 
REMARK    7  A    between atoms: C_12  and  C_13 
REMARK       I    between atoms: C_13  and  N_14 
REMARK    8  A    between atoms: N_14  and  C_15 
REMARK    9  A    between atoms: C_26  and  C_27 
REMARK   10  A    between atoms: C_27  and  N_28 
ROOT
HETATM    1  N   UNL     1       3.575  32.718  60.941  1.00  0.00    -0.306 N 
HETATM    2  C   UNL     1       3.662  32.605  59.577  1.00  0.00     0.192 A 
HETATM    3  N   UNL     1       2.897  33.508  59.012  1.00  0.00    -0.123 NA
HETATM    4  N   UNL     1       2.337  34.266  60.003  1.00  0.00    -0.132 NA
HETATM    5  C   UNL     1       2.793  33.836  61.163  1.00  0.00     0.157 A 
ENDROOT
BRANCH   2   6
HETATM    6  S   UNL     1       4.694  31.486  58.766  1.00  0.00    -0.081 SA
BRANCH   6   7
HETATM    7  C   UNL     1       3.502  30.524  57.794  1.00  0.00     0.185 C 
BRANCH   7   8
HETATM    8  C   UNL     1       4.116  30.030  56.495  1.00  0.00     0.227 C 
HETATM    9  N   UNL     1       3.946  28.683  56.256  1.00  0.00    -0.352 N 
HETATM   10  H   UNL     1       3.656  28.067  57.004  1.00  0.00     0.162 HD
HETATM   11  O   UNL     1       4.699  30.751  55.687  1.00  0.00    -0.273 OA
BRANCH   9  12
HETATM   12  C   UNL     1       4.326  28.073  54.988  1.00  0.00     0.225 C 
BRANCH  12  13
HETATM   13  C   UNL     1       5.551  27.157  55.100  1.00  0.00     0.239 C 
HETATM   14  N   UNL     1       5.518  26.111  54.194  1.00  0.00    -0.326 N 
HETATM   15  H   UNL     1       4.742  26.134  53.528  1.00  0.00     0.169 HD
HETATM   16  O   UNL     1       6.418  27.366  55.943  1.00  0.00    -0.271 OA
BRANCH  14  17
HETATM   17  C   UNL     1       6.431  25.053  54.056  1.00  0.00     0.035 A 
HETATM   18  C   UNL     1       6.753  24.163  55.085  1.00  0.00     0.032 A 
HETATM   19  C   UNL     1       7.664  23.127  54.861  1.00  0.00     0.044 A 
HETATM   20  C   UNL     1       8.254  22.988  53.612  1.00  0.00     0.116 A 
HETATM   21  F   UNL     1       9.137  22.003  53.402  1.00  0.00    -0.206 F 
HETATM   22  C   UNL     1       7.944  23.859  52.577  1.00  0.00     0.044 A 
HETATM   23  C   UNL     1       7.028  24.889  52.797  1.00  0.00     0.032 A 
ENDBRANCH  14  17
ENDBRANCH  12  13
ENDBRANCH   9  12
ENDBRANCH   7   8
ENDBRANCH   6   7
ENDBRANCH   2   6
BRANCH   1  24
HETATM   24  C   UNL     1       4.088  31.792  61.940  1.00  0.00     0.171 C 
BRANCH  24  25
HETATM   25  C   UNL     1       5.387  32.252  62.548  1.00  0.00    -0.040 A 
HETATM   26  C   UNL     1       5.427  32.746  63.862  1.00  0.00     0.009 A 
HETATM   27  C   UNL     1       6.639  33.126  64.441  1.00  0.00     0.001 A 
HETATM   28  C   UNL     1       7.826  33.003  63.721  1.00  0.00     0.000 A 
HETATM   29  C   UNL     1       7.803  32.500  62.424  1.00  0.00     0.001 A 
HETATM   30  C   UNL     1       6.592  32.128  61.840  1.00  0.00     0.009 A 
ENDBRANCH  24  25
ENDBRANCH   1  24
BRANCH   5  31
HETATM   31  C   UNL     1       2.544  34.473  62.487  1.00  0.00     0.315 C 
BRANCH  31  32
HETATM   32  N   UNL     1       3.451  35.659  62.809  1.00  0.00    -0.064 N 
HETATM   33  H   UNL     1       2.888  36.498  62.609  1.00  0.00     0.280 HD
HETATM   34  C   UNL     1       3.840  35.660  64.267  1.00  0.00     0.235 C 
HETATM   35  C   UNL     1       4.628  36.918  64.603  1.00  0.00     0.028 C 
HETATM   36  C   UNL     1       5.841  37.084  63.697  1.00  0.00     0.003 C 
HETATM   37  C   UNL     1       5.438  37.023  62.229  1.00  0.00     0.028 C 
HETATM   38  C   UNL     1       4.669  35.746  61.910  1.00  0.00     0.235 C 
ENDBRANCH  31  32
ENDBRANCH   5  31
TORSDOF 10
ENDMDL
