MODEL 1
REMARK VINA RESULT:      -9.2      0.000      0.000
REMARK  2 active torsions:
REMARK  status: ('A' for Active; 'I' for Inactive)
REMARK    1  A    between atoms: C_2  and  C_3 
REMARK    2  A    between atoms: C_6  and  C_7 
ROOT
HETATM    1  C   UNL     1       8.384  27.471  56.468  1.00  0.00     0.197 C 
HETATM    2  N   UNL     1       7.067  27.595  55.804  1.00  0.00    -0.345 N 
HETATM    3  C   UNL     1       6.422  26.498  55.411  1.00  0.00     0.113 C 
HETATM    4  N   UNL     1       5.238  26.576  54.819  1.00  0.00    -0.376 N 
HETATM    5  H   UNL     1       4.759  25.711  54.598  1.00  0.00     0.161 HD
HETATM    6  C   UNL     1       7.023  25.173  55.646  1.00  0.00     0.029 A 
HETATM    7  C   UNL     1       8.002  25.114  56.645  1.00  0.00     0.025 A 
HETATM    8  N   UNL     1       8.332  26.295  57.318  1.00  0.00    -0.267 NA
HETATM    9  C   UNL     1       6.668  24.002  54.960  1.00  0.00     0.019 A 
HETATM   10  C   UNL     1       7.241  22.778  55.316  1.00  0.00     0.025 A 
HETATM   11  C   UNL     1       8.158  22.721  56.363  1.00  0.00     0.035 A 
HETATM   12 CL   UNL     1       8.837  21.211  56.821  1.00  0.00    -0.084 Cl
HETATM   13  C   UNL     1       8.530  23.881  57.038  1.00  0.00     0.048 A 
HETATM   14  C   UNL     1       6.519  28.936  55.526  1.00  0.00     0.128 C 
HETATM   15  C   UNL     1       5.608  28.903  54.320  1.00  0.00     0.039 C 
HETATM   16  C   UNL     1       4.564  27.844  54.558  1.00  0.00     0.123 C 
HETATM   17  H   UNL     1       9.186  26.204  57.867  1.00  0.00     0.130 HD
ENDROOT
BRANCH   1  18
HETATM   18  C   UNL     1       8.723  28.671  57.332  1.00  0.00    -0.021 A 
HETATM   19  C   UNL     1       7.906  29.050  58.413  1.00  0.00     0.011 A 
HETATM   20  C   UNL     1       8.225  30.163  59.194  1.00  0.00     0.007 A 
HETATM   21  C   UNL     1       9.368  30.920  58.916  1.00  0.00    -0.059 A 
HETATM   22  C   UNL     1      10.192  30.542  57.850  1.00  0.00     0.007 A 
HETATM   23  C   UNL     1       9.874  29.431  57.065  1.00  0.00     0.011 A 
BRANCH  21  24
HETATM   24  C   UNL     1       9.726  32.106  59.778  1.00  0.00     0.034 C 
HETATM   25  C   UNL     1       9.485  31.826  61.254  1.00  0.00     0.010 C 
ENDBRANCH  21  24
ENDBRANCH   1  18
TORSDOF 2
ENDMDL
MODEL 2
REMARK VINA RESULT:      -9.1      2.636      6.786
REMARK  2 active torsions:
REMARK  status: ('A' for Active; 'I' for Inactive)
REMARK    1  A    between atoms: C_2  and  C_3 
REMARK    2  A    between atoms: C_6  and  C_7 
ROOT
HETATM    1  C   UNL     1       6.543  26.597  55.690  1.00  0.00     0.197 C 
HETATM    2  N   UNL     1       5.810  27.555  54.834  1.00  0.00    -0.345 N 
HETATM    3  C   UNL     1       5.758  28.841  55.180  1.00  0.00     0.113 C 
HETATM    4  N   UNL     1       5.113  29.725  54.430  1.00  0.00    -0.376 N 
HETATM    5  H   UNL     1       5.159  30.700  54.702  1.00  0.00     0.161 HD
HETATM    6  C   UNL     1       6.434  29.295  56.408  1.00  0.00     0.029 A 
HETATM    7  C   UNL     1       7.446  28.459  56.894  1.00  0.00     0.025 A 
HETATM    8  N   UNL     1       7.721  27.278  56.195  1.00  0.00    -0.267 NA
HETATM    9  C   UNL     1       6.142  30.488  57.085  1.00  0.00     0.019 A 
HETATM   10  C   UNL     1       6.899  30.868  58.197  1.00  0.00     0.025 A 
HETATM   11  C   UNL     1       7.953  30.065  58.624  1.00  0.00     0.035 A 
HETATM   12 CL   UNL     1       8.904  30.549  59.971  1.00  0.00    -0.084 Cl
HETATM   13  C   UNL     1       8.239  28.869  57.969  1.00  0.00     0.048 A 
HETATM   14  C   UNL     1       5.091  27.061  53.645  1.00  0.00     0.128 C 
HETATM   15  C   UNL     1       3.914  27.955  53.320  1.00  0.00     0.039 C 
HETATM   16  C   UNL     1       4.428  29.366  53.193  1.00  0.00     0.123 C 
HETATM   17  H   UNL     1       8.312  26.641  56.727  1.00  0.00     0.130 HD
ENDROOT
BRANCH   1  18
HETATM   18  C   UNL     1       6.993  25.359  54.938  1.00  0.00    -0.021 A 
HETATM   19  C   UNL     1       7.585  25.451  53.664  1.00  0.00     0.011 A 
HETATM   20  C   UNL     1       7.985  24.302  52.978  1.00  0.00     0.007 A 
HETATM   21  C   UNL     1       7.807  23.037  53.548  1.00  0.00    -0.059 A 
HETATM   22  C   UNL     1       7.230  22.939  54.820  1.00  0.00     0.007 A 
HETATM   23  C   UNL     1       6.826  24.086  55.507  1.00  0.00     0.011 A 
BRANCH  21  24
HETATM   24  C   UNL     1       8.266  21.798  52.818  1.00  0.00     0.034 C 
HETATM   25  C   UNL     1       7.963  20.532  53.605  1.00  0.00     0.010 C 
ENDBRANCH  21  24
ENDBRANCH   1  18
TORSDOF 2
ENDMDL
MODEL 3
REMARK VINA RESULT:      -8.9      4.105      7.504
REMARK  2 active torsions:
REMARK  status: ('A' for Active; 'I' for Inactive)
REMARK    1  A    between atoms: C_2  and  C_3 
REMARK    2  A    between atoms: C_6  and  C_7 
ROOT
HETATM    1  C   UNL     1       7.021  25.621  52.536  1.00  0.00     0.197 C 
HETATM    2  N   UNL     1       6.806  26.771  53.442  1.00  0.00    -0.345 N 
HETATM    3  C   UNL     1       6.116  27.827  53.013  1.00  0.00     0.113 C 
HETATM    4  N   UNL     1       5.903  28.871  53.803  1.00  0.00    -0.376 N 
HETATM    5  H   UNL     1       5.317  29.619  53.452  1.00  0.00     0.161 HD
HETATM    6  C   UNL     1       5.569  27.836  51.645  1.00  0.00     0.029 A 
HETATM    7  C   UNL     1       5.421  26.583  51.036  1.00  0.00     0.025 A 
HETATM    8  N   UNL     1       5.806  25.448  51.759  1.00  0.00    -0.267 NA
HETATM    9  C   UNL     1       5.184  28.990  50.946  1.00  0.00     0.019 A 
HETATM   10  C   UNL     1       4.599  28.883  49.682  1.00  0.00     0.025 A 
HETATM   11  C   UNL     1       4.387  27.627  49.120  1.00  0.00     0.035 A 
HETATM   12 CL   UNL     1       3.638  27.495  47.580  1.00  0.00    -0.084 Cl
HETATM   13  C   UNL     1       4.783  26.476  49.798  1.00  0.00     0.048 A 
HETATM   14  C   UNL     1       7.418  26.761  54.783  1.00  0.00     0.128 C 
HETATM   15  C   UNL     1       7.687  28.170  55.261  1.00  0.00     0.039 C 
HETATM   16  C   UNL     1       6.395  28.941  55.174  1.00  0.00     0.123 C 
HETATM   17  H   UNL     1       5.864  24.617  51.173  1.00  0.00     0.130 HD
ENDROOT
BRANCH   1  18
HETATM   18  C   UNL     1       7.298  24.328  53.280  1.00  0.00    -0.021 A 
HETATM   19  C   UNL     1       6.898  24.153  54.618  1.00  0.00     0.011 A 
HETATM   20  C   UNL     1       7.169  22.962  55.294  1.00  0.00     0.007 A 
HETATM   21  C   UNL     1       7.843  21.918  54.651  1.00  0.00    -0.059 A 
HETATM   22  C   UNL     1       8.234  22.081  53.317  1.00  0.00     0.007 A 
HETATM   23  C   UNL     1       7.966  23.273  52.638  1.00  0.00     0.011 A 
BRANCH  21  24
HETATM   24  C   UNL     1       8.111  20.621  55.374  1.00  0.00     0.034 C 
HETATM   25  C   UNL     1       8.425  20.848  56.845  1.00  0.00     0.010 C 
ENDBRANCH  21  24
ENDBRANCH   1  18
TORSDOF 2
ENDMDL
MODEL 4
REMARK VINA RESULT:      -8.7      2.670      3.979
REMARK  2 active torsions:
REMARK  status: ('A' for Active; 'I' for Inactive)
REMARK    1  A    between atoms: C_2  and  C_3 
REMARK    2  A    between atoms: C_6  and  C_7 
ROOT
HETATM    1  C   UNL     1       7.099  27.570  55.890  1.00  0.00     0.197 C 
HETATM    2  N   UNL     1       7.688  26.217  55.995  1.00  0.00    -0.345 N 
HETATM    3  C   UNL     1       7.480  25.330  55.022  1.00  0.00     0.113 C 
HETATM    4  N   UNL     1       7.998  24.111  55.085  1.00  0.00    -0.376 N 
HETATM    5  H   UNL     1       7.865  23.497  54.291  1.00  0.00     0.161 HD
HETATM    6  C   UNL     1       6.669  25.708  53.851  1.00  0.00     0.029 A 
HETATM    7  C   UNL     1       6.541  27.082  53.613  1.00  0.00     0.025 A 
HETATM    8  N   UNL     1       7.171  27.967  54.495  1.00  0.00    -0.267 NA
HETATM    9  C   UNL     1       6.054  24.798  52.978  1.00  0.00     0.019 A 
HETATM   10  C   UNL     1       5.375  25.259  51.848  1.00  0.00     0.025 A 
HETATM   11  C   UNL     1       5.320  26.625  51.581  1.00  0.00     0.035 A 
HETATM   12 CL   UNL     1       4.513  27.188  50.173  1.00  0.00    -0.084 Cl
HETATM   13  C   UNL     1       5.912  27.537  52.452  1.00  0.00     0.048 A 
HETATM   14  C   UNL     1       8.442  25.846  57.208  1.00  0.00     0.128 C 
HETATM   15  C   UNL     1       8.364  24.356  57.454  1.00  0.00     0.039 C 
HETATM   16  C   UNL     1       8.822  23.657  56.200  1.00  0.00     0.123 C 
HETATM   17  H   UNL     1       6.854  28.928  54.373  1.00  0.00     0.130 HD
ENDROOT
BRANCH   1  18
HETATM   18  C   UNL     1       7.841  28.601  56.719  1.00  0.00    -0.021 A 
HETATM   19  C   UNL     1       7.309  29.090  57.927  1.00  0.00     0.011 A 
HETATM   20  C   UNL     1       7.998  30.048  58.674  1.00  0.00     0.007 A 
HETATM   21  C   UNL     1       9.234  30.537  58.235  1.00  0.00    -0.059 A 
HETATM   22  C   UNL     1       9.774  30.046  57.041  1.00  0.00     0.007 A 
HETATM   23  C   UNL     1       9.086  29.090  56.289  1.00  0.00     0.011 A 
BRANCH  21  24
HETATM   24  C   UNL     1       9.990  31.551  59.058  1.00  0.00     0.034 C 
HETATM   25  C   UNL     1       9.154  32.077  60.215  1.00  0.00     0.010 C 
ENDBRANCH  21  24
ENDBRANCH   1  18
TORSDOF 2
ENDMDL
MODEL 5
REMARK VINA RESULT:      -8.6      2.026      2.831
REMARK  2 active torsions:
REMARK  status: ('A' for Active; 'I' for Inactive)
REMARK    1  A    between atoms: C_2  and  C_3 
REMARK    2  A    between atoms: C_6  and  C_7 
ROOT
HETATM    1  C   UNL     1       7.440  26.225  55.053  1.00  0.00     0.197 C 
HETATM    2  N   UNL     1       6.603  25.999  53.855  1.00  0.00    -0.345 N 
HETATM    3  C   UNL     1       6.522  24.776  53.329  1.00  0.00     0.113 C 
HETATM    4  N   UNL     1       5.776  24.541  52.259  1.00  0.00    -0.376 N 
HETATM    5  H   UNL     1       5.696  23.583  51.938  1.00  0.00     0.161 HD
HETATM    6  C   UNL     1       7.261  23.664  53.951  1.00  0.00     0.029 A 
HETATM    7  C   UNL     1       7.640  23.850  55.286  1.00  0.00     0.025 A 
HETATM    8  N   UNL     1       7.301  25.058  55.906  1.00  0.00    -0.267 NA
HETATM    9  C   UNL     1       7.582  22.459  53.307  1.00  0.00     0.019 A 
HETATM   10  C   UNL     1       8.214  21.432  54.012  1.00  0.00     0.025 A 
HETATM   11  C   UNL     1       8.516  21.602  55.361  1.00  0.00     0.035 A 
HETATM   12 CL   UNL     1       9.265  20.326  56.235  1.00  0.00    -0.084 Cl
HETATM   13  C   UNL     1       8.219  22.801  56.004  1.00  0.00     0.048 A 
HETATM   14  C   UNL     1       5.926  27.143  53.217  1.00  0.00     0.128 C 
HETATM   15  C   UNL     1       5.725  26.892  51.739  1.00  0.00     0.039 C 
HETATM   16  C   UNL     1       5.002  25.579  51.587  1.00  0.00     0.123 C 
HETATM   17  H   UNL     1       7.792  25.192  56.790  1.00  0.00     0.130 HD
ENDROOT
BRANCH   1  18
HETATM   18  C   UNL     1       7.017  27.448  55.845  1.00  0.00    -0.021 A 
HETATM   19  C   UNL     1       5.886  27.423  56.681  1.00  0.00     0.011 A 
HETATM   20  C   UNL     1       5.501  28.560  57.396  1.00  0.00     0.007 A 
HETATM   21  C   UNL     1       6.238  29.745  57.295  1.00  0.00    -0.059 A 
HETATM   22  C   UNL     1       7.372  29.773  56.474  1.00  0.00     0.007 A 
HETATM   23  C   UNL     1       7.757  28.638  55.756  1.00  0.00     0.011 A 
BRANCH  21  24
HETATM   24  C   UNL     1       5.838  30.963  58.090  1.00  0.00     0.034 C 
HETATM   25  C   UNL     1       6.960  31.439  59.000  1.00  0.00     0.010 C 
ENDBRANCH  21  24
ENDBRANCH   1  18
TORSDOF 2
ENDMDL
MODEL 6
REMARK VINA RESULT:      -8.4      3.116      6.804
REMARK  2 active torsions:
REMARK  status: ('A' for Active; 'I' for Inactive)
REMARK    1  A    between atoms: C_2  and  C_3 
REMARK    2  A    between atoms: C_6  and  C_7 
ROOT
HETATM    1  C   UNL     1       6.464  28.181  57.387  1.00  0.00     0.197 C 
HETATM    2  N   UNL     1       5.715  29.238  56.671  1.00  0.00    -0.345 N 
HETATM    3  C   UNL     1       5.816  30.504  57.073  1.00  0.00     0.113 C 
HETATM    4  N   UNL     1       5.161  31.474  56.449  1.00  0.00    -0.376 N 
HETATM    5  H   UNL     1       5.322  32.427  56.753  1.00  0.00     0.161 HD
HETATM    6  C   UNL     1       6.675  30.839  58.223  1.00  0.00     0.029 A 
HETATM    7  C   UNL     1       7.665  29.901  58.541  1.00  0.00     0.025 A 
HETATM    8  N   UNL     1       7.749  28.741  57.764  1.00  0.00    -0.267 NA
HETATM    9  C   UNL     1       6.571  32.015  58.981  1.00  0.00     0.019 A 
HETATM   10  C   UNL     1       7.490  32.276  60.002  1.00  0.00     0.025 A 
HETATM   11  C   UNL     1       8.516  31.370  60.257  1.00  0.00     0.035 A 
HETATM   12 CL   UNL     1       9.664  31.707  61.491  1.00  0.00    -0.084 Cl
HETATM   13  C   UNL     1       8.616  30.191  59.523  1.00  0.00     0.048 A 
HETATM   14  C   UNL     1       4.815  28.865  55.564  1.00  0.00     0.128 C 
HETATM   15  C   UNL     1       3.688  29.865  55.429  1.00  0.00     0.039 C 
HETATM   16  C   UNL     1       4.300  31.235  55.296  1.00  0.00     0.123 C 
HETATM   17  H   UNL     1       8.344  28.031  58.190  1.00  0.00     0.130 HD
ENDROOT
BRANCH   1  18
HETATM   18  C   UNL     1       6.711  26.952  56.532  1.00  0.00    -0.021 A 
HETATM   19  C   UNL     1       7.368  27.043  55.291  1.00  0.00     0.011 A 
HETATM   20  C   UNL     1       7.579  25.905  54.510  1.00  0.00     0.007 A 
HETATM   21  C   UNL     1       7.142  24.651  54.951  1.00  0.00    -0.059 A 
HETATM   22  C   UNL     1       6.498  24.552  56.189  1.00  0.00     0.007 A 
HETATM   23  C   UNL     1       6.283  25.689  56.972  1.00  0.00     0.011 A 
BRANCH  21  24
HETATM   24  C   UNL     1       7.396  23.418  54.118  1.00  0.00     0.034 C 
HETATM   25  C   UNL     1       7.923  23.768  52.735  1.00  0.00     0.010 C 
ENDBRANCH  21  24
ENDBRANCH   1  18
TORSDOF 2
ENDMDL
MODEL 7
REMARK VINA RESULT:      -8.3      2.746      5.839
REMARK  2 active torsions:
REMARK  status: ('A' for Active; 'I' for Inactive)
REMARK    1  A    between atoms: C_2  and  C_3 
REMARK    2  A    between atoms: C_6  and  C_7 
ROOT
HETATM    1  C   UNL     1       5.594  25.974  53.960  1.00  0.00     0.197 C 
HETATM    2  N   UNL     1       6.370  26.402  55.145  1.00  0.00    -0.345 N 
HETATM    3  C   UNL     1       7.282  25.582  55.666  1.00  0.00     0.113 C 
HETATM    4  N   UNL     1       7.997  25.939  56.725  1.00  0.00    -0.376 N 
HETATM    5  H   UNL     1       8.722  25.307  57.042  1.00  0.00     0.161 HD
HETATM    6  C   UNL     1       7.511  24.261  55.054  1.00  0.00     0.029 A 
HETATM    7  C   UNL     1       7.092  24.121  53.726  1.00  0.00     0.025 A 
HETATM    8  N   UNL     1       6.492  25.220  53.103  1.00  0.00    -0.267 NA
HETATM    9  C   UNL     1       8.123  23.177  55.702  1.00  0.00     0.019 A 
HETATM   10  C   UNL     1       8.369  21.991  55.005  1.00  0.00     0.025 A 
HETATM   11  C   UNL     1       8.016  21.891  53.661  1.00  0.00     0.035 A 
HETATM   12 CL   UNL     1       8.348  20.444  52.797  1.00  0.00    -0.084 Cl
HETATM   13  C   UNL     1       7.391  22.956  53.015  1.00  0.00     0.048 A 
HETATM   14  C   UNL     1       6.075  27.703  55.773  1.00  0.00     0.128 C 
HETATM   15  C   UNL     1       6.412  27.676  57.248  1.00  0.00     0.039 C 
HETATM   16  C   UNL     1       7.845  27.231  57.385  1.00  0.00     0.123 C 
HETATM   17  H   UNL     1       6.034  24.968  52.228  1.00  0.00     0.130 HD
ENDROOT
BRANCH   1  18
HETATM   18  C   UNL     1       5.042  27.142  53.164  1.00  0.00    -0.021 A 
HETATM   19  C   UNL     1       3.815  27.742  53.500  1.00  0.00     0.011 A 
HETATM   20  C   UNL     1       3.313  28.809  52.752  1.00  0.00     0.007 A 
HETATM   21  C   UNL     1       4.027  29.304  51.654  1.00  0.00    -0.059 A 
HETATM   22  C   UNL     1       5.255  28.719  51.322  1.00  0.00     0.007 A 
HETATM   23  C   UNL     1       5.757  27.649  52.067  1.00  0.00     0.011 A 
BRANCH  21  24
HETATM   24  C   UNL     1       3.497  30.475  50.864  1.00  0.00     0.034 C 
HETATM   25  C   UNL     1       2.048  30.270  50.452  1.00  0.00     0.010 C 
ENDBRANCH  21  24
ENDBRANCH   1  18
TORSDOF 2
ENDMDL
MODEL 8
REMARK VINA RESULT:      -8.2      4.279      7.268
REMARK  2 active torsions:
REMARK  status: ('A' for Active; 'I' for Inactive)
REMARK    1  A    between atoms: C_2  and  C_3 
REMARK    2  A    between atoms: C_6  and  C_7 
ROOT
HETATM    1  C   UNL     1       5.270  26.685  54.037  1.00  0.00     0.197 C 
HETATM    2  N   UNL     1       5.373  27.595  52.875  1.00  0.00    -0.345 N 
HETATM    3  C   UNL     1       5.014  28.872  53.004  1.00  0.00     0.113 C 
HETATM    4  N   UNL     1       5.100  29.713  51.983  1.00  0.00    -0.376 N 
HETATM    5  H   UNL     1       4.878  30.687  52.150  1.00  0.00     0.161 HD
HETATM    6  C   UNL     1       4.524  29.365  54.304  1.00  0.00     0.029 A 
HETATM    7  C   UNL     1       4.877  28.599  55.422  1.00  0.00     0.025 A 
HETATM    8  N   UNL     1       5.641  27.445  55.217  1.00  0.00    -0.267 NA
HETATM    9  C   UNL     1       3.764  30.531  54.480  1.00  0.00     0.019 A 
HETATM   10  C   UNL     1       3.418  30.956  55.766  1.00  0.00     0.025 A 
HETATM   11  C   UNL     1       3.841  30.226  56.874  1.00  0.00     0.035 A 
HETATM   12 CL   UNL     1       3.443  30.768  58.455  1.00  0.00    -0.084 Cl
HETATM   13  C   UNL     1       4.580  29.057  56.708  1.00  0.00     0.048 A 
HETATM   14  C   UNL     1       5.807  27.059  51.571  1.00  0.00     0.128 C 
HETATM   15  C   UNL     1       5.222  27.871  50.436  1.00  0.00     0.039 C 
HETATM   16  C   UNL     1       5.586  29.314  50.666  1.00  0.00     0.123 C 
HETATM   17  H   UNL     1       5.669  26.847  56.042  1.00  0.00     0.130 HD
ENDROOT
BRANCH   1  18
HETATM   18  C   UNL     1       6.193  25.486  53.931  1.00  0.00    -0.021 A 
HETATM   19  C   UNL     1       5.993  24.492  52.956  1.00  0.00     0.011 A 
HETATM   20  C   UNL     1       6.845  23.388  52.876  1.00  0.00     0.007 A 
HETATM   21  C   UNL     1       7.917  23.254  53.765  1.00  0.00    -0.059 A 
HETATM   22  C   UNL     1       8.130  24.246  54.729  1.00  0.00     0.007 A 
HETATM   23  C   UNL     1       7.278  25.349  54.813  1.00  0.00     0.011 A 
BRANCH  21  24
HETATM   24  C   UNL     1       8.854  22.075  53.659  1.00  0.00     0.034 C 
HETATM   25  C   UNL     1       8.124  20.809  53.234  1.00  0.00     0.010 C 
ENDBRANCH  21  24
ENDBRANCH   1  18
TORSDOF 2
ENDMDL
MODEL 9
REMARK VINA RESULT:      -8.1      3.668      7.034
REMARK  2 active torsions:
REMARK  status: ('A' for Active; 'I' for Inactive)
REMARK    1  A    between atoms: C_2  and  C_3 
REMARK    2  A    between atoms: C_6  and  C_7 
ROOT
HETATM    1  C   UNL     1       5.363  25.884  51.973  1.00  0.00     0.197 C 
HETATM    2  N   UNL     1       5.388  26.642  53.243  1.00  0.00    -0.345 N 
HETATM    3  C   UNL     1       5.989  26.118  54.311  1.00  0.00     0.113 C 
HETATM    4  N   UNL     1       6.032  26.775  55.462  1.00  0.00    -0.376 N 
HETATM    5  H   UNL     1       6.557  26.362  56.224  1.00  0.00     0.161 HD
HETATM    6  C   UNL     1       6.625  24.793  54.214  1.00  0.00     0.029 A 
HETATM    7  C   UNL     1       6.950  24.363  52.921  1.00  0.00     0.025 A 
HETATM    8  N   UNL     1       6.640  25.205  51.848  1.00  0.00    -0.267 NA
HETATM    9  C   UNL     1       6.931  23.971  55.310  1.00  0.00     0.019 A 
HETATM   10  C   UNL     1       7.611  22.766  55.116  1.00  0.00     0.025 A 
HETATM   11  C   UNL     1       7.997  22.387  53.832  1.00  0.00     0.035 A 
HETATM   12 CL   UNL     1       8.862  20.921  53.599  1.00  0.00    -0.084 Cl
HETATM   13  C   UNL     1       7.681  23.187  52.736  1.00  0.00     0.048 A 
HETATM   14  C   UNL     1       4.689  27.937  53.328  1.00  0.00     0.128 C 
HETATM   15  C   UNL     1       4.236  28.211  54.746  1.00  0.00     0.039 C 
HETATM   16  C   UNL     1       5.440  28.095  55.644  1.00  0.00     0.123 C 
HETATM   17  H   UNL     1       6.714  24.730  50.949  1.00  0.00     0.130 HD
ENDROOT
BRANCH   1  18
HETATM   18  C   UNL     1       5.175  26.775  50.759  1.00  0.00    -0.021 A 
HETATM   19  C   UNL     1       5.736  28.064  50.703  1.00  0.00     0.011 A 
HETATM   20  C   UNL     1       5.547  28.877  49.584  1.00  0.00     0.007 A 
HETATM   21  C   UNL     1       4.796  28.421  48.494  1.00  0.00    -0.059 A 
HETATM   22  C   UNL     1       4.245  27.135  48.539  1.00  0.00     0.007 A 
HETATM   23  C   UNL     1       4.431  26.321  49.658  1.00  0.00     0.011 A 
BRANCH  21  24
HETATM   24  C   UNL     1       4.616  29.291  47.274  1.00  0.00     0.034 C 
HETATM   25  C   UNL     1       4.582  30.769  47.632  1.00  0.00     0.010 C 
ENDBRANCH  21  24
ENDBRANCH   1  18
TORSDOF 2
ENDMDL
MODEL 10
REMARK VINA RESULT:      -7.9      3.559      7.399
REMARK  2 active torsions:
REMARK  status: ('A' for Active; 'I' for Inactive)
REMARK    1  A    between atoms: C_2  and  C_3 
REMARK    2  A    between atoms: C_6  and  C_7 
ROOT
HETATM    1  C   UNL     1       6.496  28.458  54.781  1.00  0.00     0.197 C 
HETATM    2  N   UNL     1       7.135  28.821  56.065  1.00  0.00    -0.345 N 
HETATM    3  C   UNL     1       6.638  29.825  56.787  1.00  0.00     0.113 C 
HETATM    4  N   UNL     1       7.186  30.172  57.944  1.00  0.00    -0.376 N 
HETATM    5  H   UNL     1       6.732  30.897  58.486  1.00  0.00     0.161 HD
HETATM    6  C   UNL     1       5.455  30.558  56.302  1.00  0.00     0.029 A 
HETATM    7  C   UNL     1       4.666  29.890  55.358  1.00  0.00     0.025 A 
HETATM    8  N   UNL     1       5.062  28.611  54.952  1.00  0.00    -0.267 NA
HETATM    9  C   UNL     1       5.077  31.839  56.733  1.00  0.00     0.019 A 
HETATM   10  C   UNL     1       3.890  32.413  56.272  1.00  0.00     0.025 A 
HETATM   11  C   UNL     1       3.075  31.705  55.392  1.00  0.00     0.035 A 
HETATM   12 CL   UNL     1       1.599  32.399  54.851  1.00  0.00    -0.084 Cl
HETATM   13  C   UNL     1       3.451  30.441  54.944  1.00  0.00     0.048 A 
HETATM   14  C   UNL     1       8.355  28.112  56.494  1.00  0.00     0.128 C 
HETATM   15  C   UNL     1       9.210  28.998  57.372  1.00  0.00     0.039 C 
HETATM   16  C   UNL     1       8.349  29.494  58.505  1.00  0.00     0.123 C 
HETATM   17  H   UNL     1       4.560  28.295  54.123  1.00  0.00     0.130 HD
ENDROOT
BRANCH   1  18
HETATM   18  C   UNL     1       6.777  27.025  54.368  1.00  0.00    -0.021 A 
HETATM   19  C   UNL     1       6.213  25.939  55.063  1.00  0.00     0.011 A 
HETATM   20  C   UNL     1       6.489  24.625  54.678  1.00  0.00     0.007 A 
HETATM   21  C   UNL     1       7.330  24.366  53.590  1.00  0.00    -0.059 A 
HETATM   22  C   UNL     1       7.885  25.442  52.888  1.00  0.00     0.007 A 
HETATM   23  C   UNL     1       7.613  26.757  53.272  1.00  0.00     0.011 A 
BRANCH  21  24
HETATM   24  C   UNL     1       7.605  22.946  53.159  1.00  0.00     0.034 C 
HETATM   25  C   UNL     1       8.600  22.257  54.080  1.00  0.00     0.010 C 
ENDBRANCH  21  24
ENDBRANCH   1  18
TORSDOF 2
ENDMDL
