MODEL 1
REMARK VINA RESULT:      -9.7      0.000      0.000
REMARK  5 active torsions:
REMARK  status: ('A' for Active; 'I' for Inactive)
REMARK    1  A    between atoms: O_2  and  C_3 
REMARK    2  A    between atoms: C_4  and  O_5 
REMARK    3  A    between atoms: C_10  and  C_11 
REMARK    4  A    between atoms: C_13  and  O_14 
REMARK    5  A    between atoms: O_14  and  C_15 
ROOT
HETATM    1  C   UNL     1       7.323  23.561  54.902  1.00  0.00     0.102 A 
HETATM    2  C   UNL     1       7.870  23.137  53.679  1.00  0.00     0.103 A 
HETATM    3  C   UNL     1       7.558  23.823  52.501  1.00  0.00     0.069 A 
HETATM    4  C   UNL     1       6.767  24.973  52.551  1.00  0.00     0.044 A 
HETATM    5  C   UNL     1       6.269  25.452  53.766  1.00  0.00    -0.020 A 
HETATM    6  C   UNL     1       5.366  26.679  53.765  1.00  0.00     0.063 C 
HETATM    7  C   UNL     1       5.648  27.588  52.566  1.00  0.00     0.117 C 
HETATM    8  C   UNL     1       5.773  26.811  51.282  1.00  0.00     0.223 C 
HETATM    9  O   UNL     1       5.418  27.268  50.198  1.00  0.00    -0.273 OA
HETATM   10  N   UNL     1       6.431  25.616  51.357  1.00  0.00    -0.327 N 
HETATM   11  C   UNL     1       6.524  24.709  54.934  1.00  0.00     0.049 A 
HETATM   12  H   UNL     1       6.640  25.178  50.468  1.00  0.00     0.169 HD
ENDROOT
BRANCH   6  13
HETATM   13  C   UNL     1       5.434  27.506  55.046  1.00  0.00    -0.046 A 
HETATM   14  C   UNL     1       6.561  27.453  55.886  1.00  0.00     0.045 A 
HETATM   15  C   UNL     1       6.571  28.142  57.102  1.00  0.00     0.076 A 
HETATM   16  C   UNL     1       5.500  28.961  57.451  1.00  0.00     0.037 A 
HETATM   17  C   UNL     1       4.392  29.050  56.611  1.00  0.00     0.003 A 
HETATM   18  C   UNL     1       4.353  28.320  55.421  1.00  0.00     0.008 A 
BRANCH  15  19
HETATM   19  O   UNL     1       7.637  28.092  57.969  1.00  0.00    -0.311 OA
BRANCH  19  20
HETATM   20  C   UNL     1       8.626  29.046  57.853  1.00  0.00     0.076 A 
HETATM   21  C   UNL     1       9.664  28.998  56.918  1.00  0.00     0.037 A 
HETATM   22  C   UNL     1      10.627  30.008  56.888  1.00  0.00     0.003 A 
HETATM   23  C   UNL     1      10.574  31.051  57.813  1.00  0.00     0.000 A 
HETATM   24  C   UNL     1       9.560  31.083  58.769  1.00  0.00     0.003 A 
HETATM   25  C   UNL     1       8.588  30.080  58.789  1.00  0.00     0.037 A 
ENDBRANCH  19  20
ENDBRANCH  15  19
ENDBRANCH   6  13
BRANCH   1  26
HETATM   26  O   UNL     1       7.646  22.812  56.005  1.00  0.00    -0.353 OA
HETATM   27  C   UNL     1       8.372  23.460  57.041  1.00  0.00     0.210 C 
ENDBRANCH   1  26
BRANCH   2  28
HETATM   28  O   UNL     1       8.647  22.004  53.707  1.00  0.00    -0.353 OA
HETATM   29  C   UNL     1       8.089  20.854  53.086  1.00  0.00     0.210 C 
ENDBRANCH   2  28
TORSDOF 5
ENDMDL
MODEL 2
REMARK VINA RESULT:      -9.4      3.312      8.303
REMARK  5 active torsions:
REMARK  status: ('A' for Active; 'I' for Inactive)
REMARK    1  A    between atoms: O_2  and  C_3 
REMARK    2  A    between atoms: C_4  and  O_5 
REMARK    3  A    between atoms: C_10  and  C_11 
REMARK    4  A    between atoms: C_13  and  O_14 
REMARK    5  A    between atoms: O_14  and  C_15 
ROOT
HETATM    1  C   UNL     1       3.753  31.063  57.010  1.00  0.00     0.102 A 
HETATM    2  C   UNL     1       4.007  32.152  57.860  1.00  0.00     0.103 A 
HETATM    3  C   UNL     1       5.148  32.154  58.668  1.00  0.00     0.069 A 
HETATM    4  C   UNL     1       6.073  31.111  58.573  1.00  0.00     0.044 A 
HETATM    5  C   UNL     1       5.874  30.052  57.683  1.00  0.00    -0.020 A 
HETATM    6  C   UNL     1       6.882  28.911  57.652  1.00  0.00     0.063 C 
HETATM    7  C   UNL     1       8.271  29.370  58.099  1.00  0.00     0.117 C 
HETATM    8  C   UNL     1       8.216  30.221  59.341  1.00  0.00     0.223 C 
HETATM    9  O   UNL     1       9.108  30.214  60.186  1.00  0.00    -0.273 OA
HETATM   10  N   UNL     1       7.182  31.110  59.422  1.00  0.00    -0.327 N 
HETATM   11  C   UNL     1       4.684  30.021  56.932  1.00  0.00     0.049 A 
HETATM   12  H   UNL     1       7.240  31.777  60.183  1.00  0.00     0.169 HD
ENDROOT
BRANCH   6  13
HETATM   13  C   UNL     1       6.998  28.214  56.298  1.00  0.00    -0.046 A 
HETATM   14  C   UNL     1       6.352  26.988  56.056  1.00  0.00     0.045 A 
HETATM   15  C   UNL     1       6.542  26.315  54.846  1.00  0.00     0.076 A 
HETATM   16  C   UNL     1       7.301  26.896  53.834  1.00  0.00     0.037 A 
HETATM   17  C   UNL     1       7.918  28.128  54.049  1.00  0.00     0.003 A 
HETATM   18  C   UNL     1       7.777  28.779  55.276  1.00  0.00     0.008 A 
BRANCH  15  19
HETATM   19  O   UNL     1       5.958  25.099  54.579  1.00  0.00    -0.311 OA
BRANCH  19  20
HETATM   20  C   UNL     1       6.776  24.011  54.354  1.00  0.00     0.076 A 
HETATM   21  C   UNL     1       7.063  23.488  53.090  1.00  0.00     0.037 A 
HETATM   22  C   UNL     1       7.895  22.373  52.966  1.00  0.00     0.003 A 
HETATM   23  C   UNL     1       8.413  21.759  54.106  1.00  0.00     0.000 A 
HETATM   24  C   UNL     1       8.099  22.257  55.370  1.00  0.00     0.003 A 
HETATM   25  C   UNL     1       7.280  23.381  55.493  1.00  0.00     0.037 A 
ENDBRANCH  19  20
ENDBRANCH  15  19
ENDBRANCH   6  13
BRANCH   1  26
HETATM   26  O   UNL     1       2.592  31.120  56.278  1.00  0.00    -0.353 OA
HETATM   27  C   UNL     1       2.699  31.522  54.919  1.00  0.00     0.210 C 
ENDBRANCH   1  26
BRANCH   2  28
HETATM   28  O   UNL     1       3.059  33.146  57.895  1.00  0.00    -0.353 OA
HETATM   29  C   UNL     1       3.296  34.198  58.821  1.00  0.00     0.210 C 
ENDBRANCH   2  28
TORSDOF 5
ENDMDL
MODEL 3
REMARK VINA RESULT:      -9.3      1.461      2.376
REMARK  5 active torsions:
REMARK  status: ('A' for Active; 'I' for Inactive)
REMARK    1  A    between atoms: O_2  and  C_3 
REMARK    2  A    between atoms: C_4  and  O_5 
REMARK    3  A    between atoms: C_10  and  C_11 
REMARK    4  A    between atoms: C_13  and  O_14 
REMARK    5  A    between atoms: O_14  and  C_15 
ROOT
HETATM    1  C   UNL     1       8.486  23.550  54.932  1.00  0.00     0.102 A 
HETATM    2  C   UNL     1       8.211  22.924  53.705  1.00  0.00     0.103 A 
HETATM    3  C   UNL     1       7.466  23.596  52.731  1.00  0.00     0.069 A 
HETATM    4  C   UNL     1       7.062  24.916  52.949  1.00  0.00     0.044 A 
HETATM    5  C   UNL     1       7.384  25.581  54.135  1.00  0.00    -0.020 A 
HETATM    6  C   UNL     1       6.877  27.001  54.350  1.00  0.00     0.063 C 
HETATM    7  C   UNL     1       6.655  27.730  53.022  1.00  0.00     0.117 C 
HETATM    8  C   UNL     1       5.930  26.872  52.018  1.00  0.00     0.223 C 
HETATM    9  O   UNL     1       5.153  27.341  51.189  1.00  0.00    -0.273 OA
HETATM   10  N   UNL     1       6.280  25.552  51.982  1.00  0.00    -0.327 N 
HETATM   11  C   UNL     1       8.066  24.868  55.139  1.00  0.00     0.049 A 
HETATM   12  H   UNL     1       5.899  25.022  51.207  1.00  0.00     0.169 HD
ENDROOT
BRANCH   6  13
HETATM   13  C   UNL     1       7.770  27.856  55.246  1.00  0.00    -0.046 A 
HETATM   14  C   UNL     1       7.556  27.918  56.635  1.00  0.00     0.045 A 
HETATM   15  C   UNL     1       8.320  28.776  57.430  1.00  0.00     0.076 A 
HETATM   16  C   UNL     1       9.361  29.511  56.868  1.00  0.00     0.037 A 
HETATM   17  C   UNL     1       9.606  29.431  55.498  1.00  0.00     0.003 A 
HETATM   18  C   UNL     1       8.809  28.617  54.689  1.00  0.00     0.008 A 
BRANCH  15  19
HETATM   19  O   UNL     1       8.124  28.895  58.786  1.00  0.00    -0.311 OA
BRANCH  19  20
HETATM   20  C   UNL     1       8.194  30.150  59.354  1.00  0.00     0.076 A 
HETATM   21  C   UNL     1       9.208  30.567  60.222  1.00  0.00     0.037 A 
HETATM   22  C   UNL     1       9.184  31.856  60.758  1.00  0.00     0.003 A 
HETATM   23  C   UNL     1       8.132  32.720  60.453  1.00  0.00     0.000 A 
HETATM   24  C   UNL     1       7.102  32.294  59.615  1.00  0.00     0.003 A 
HETATM   25  C   UNL     1       7.133  31.010  59.068  1.00  0.00     0.037 A 
ENDBRANCH  19  20
ENDBRANCH  15  19
ENDBRANCH   6  13
BRANCH   1  26
HETATM   26  O   UNL     1       9.189  22.809  55.849  1.00  0.00    -0.353 OA
HETATM   27  C   UNL     1       8.444  22.161  56.871  1.00  0.00     0.210 C 
ENDBRANCH   1  26
BRANCH   2  28
HETATM   28  O   UNL     1       8.647  21.629  53.558  1.00  0.00    -0.353 OA
HETATM   29  C   UNL     1       7.678  20.696  53.100  1.00  0.00     0.210 C 
ENDBRANCH   2  28
TORSDOF 5
ENDMDL
MODEL 4
REMARK VINA RESULT:      -9.3      2.192      3.448
REMARK  5 active torsions:
REMARK  status: ('A' for Active; 'I' for Inactive)
REMARK    1  A    between atoms: O_2  and  C_3 
REMARK    2  A    between atoms: C_4  and  O_5 
REMARK    3  A    between atoms: C_10  and  C_11 
REMARK    4  A    between atoms: C_13  and  O_14 
REMARK    5  A    between atoms: O_14  and  C_15 
ROOT
HETATM    1  C   UNL     1       7.834  24.465  55.682  1.00  0.00     0.102 A 
HETATM    2  C   UNL     1       7.013  24.012  54.635  1.00  0.00     0.103 A 
HETATM    3  C   UNL     1       5.996  24.835  54.141  1.00  0.00     0.069 A 
HETATM    4  C   UNL     1       5.846  26.133  54.636  1.00  0.00     0.044 A 
HETATM    5  C   UNL     1       6.695  26.627  55.630  1.00  0.00    -0.020 A 
HETATM    6  C   UNL     1       6.460  28.030  56.175  1.00  0.00     0.063 C 
HETATM    7  C   UNL     1       5.773  28.930  55.146  1.00  0.00     0.117 C 
HETATM    8  C   UNL     1       4.617  28.240  54.469  1.00  0.00     0.223 C 
HETATM    9  O   UNL     1       3.613  28.844  54.100  1.00  0.00    -0.273 OA
HETATM   10  N   UNL     1       4.795  26.920  54.161  1.00  0.00    -0.327 N 
HETATM   11  C   UNL     1       7.665  25.764  56.174  1.00  0.00     0.049 A 
HETATM   12  H   UNL     1       4.077  26.510  53.575  1.00  0.00     0.169 HD
ENDROOT
BRANCH   6  13
HETATM   13  C   UNL     1       7.721  28.724  56.683  1.00  0.00    -0.046 A 
HETATM   14  C   UNL     1       7.903  28.988  58.053  1.00  0.00     0.045 A 
HETATM   15  C   UNL     1       9.017  29.707  58.493  1.00  0.00     0.076 A 
HETATM   16  C   UNL     1      10.005  30.091  57.590  1.00  0.00     0.037 A 
HETATM   17  C   UNL     1       9.854  29.804  56.234  1.00  0.00     0.003 A 
HETATM   18  C   UNL     1       8.715  29.135  55.780  1.00  0.00     0.008 A 
BRANCH  15  19
HETATM   19  O   UNL     1       9.218  30.017  59.818  1.00  0.00    -0.311 OA
BRANCH  19  20
HETATM   20  C   UNL     1       8.427  30.988  60.394  1.00  0.00     0.076 A 
HETATM   21  C   UNL     1       7.401  31.667  59.730  1.00  0.00     0.037 A 
HETATM   22  C   UNL     1       6.662  32.646  60.398  1.00  0.00     0.003 A 
HETATM   23  C   UNL     1       6.969  32.972  61.719  1.00  0.00     0.000 A 
HETATM   24  C   UNL     1       8.015  32.321  62.372  1.00  0.00     0.003 A 
HETATM   25  C   UNL     1       8.743  31.332  61.710  1.00  0.00     0.037 A 
ENDBRANCH  19  20
ENDBRANCH  15  19
ENDBRANCH   6  13
BRANCH   1  26
HETATM   26  O   UNL     1       8.783  23.583  56.136  1.00  0.00    -0.353 OA
HETATM   27  C   UNL     1       8.389  22.667  57.148  1.00  0.00     0.210 C 
ENDBRANCH   1  26
BRANCH   2  28
HETATM   28  O   UNL     1       7.225  22.729  54.193  1.00  0.00    -0.353 OA
HETATM   29  C   UNL     1       7.849  22.606  52.921  1.00  0.00     0.210 C 
ENDBRANCH   2  28
TORSDOF 5
ENDMDL
MODEL 5
REMARK VINA RESULT:      -9.2      2.632      6.700
REMARK  5 active torsions:
REMARK  status: ('A' for Active; 'I' for Inactive)
REMARK    1  A    between atoms: O_2  and  C_3 
REMARK    2  A    between atoms: C_4  and  O_5 
REMARK    3  A    between atoms: C_10  and  C_11 
REMARK    4  A    between atoms: C_13  and  O_14 
REMARK    5  A    between atoms: O_14  and  C_15 
ROOT
HETATM    1  C   UNL     1       4.725  27.360  52.528  1.00  0.00     0.102 A 
HETATM    2  C   UNL     1       4.153  28.609  52.233  1.00  0.00     0.103 A 
HETATM    3  C   UNL     1       3.820  29.485  53.270  1.00  0.00     0.069 A 
HETATM    4  C   UNL     1       4.125  29.151  54.592  1.00  0.00     0.044 A 
HETATM    5  C   UNL     1       4.756  27.944  54.902  1.00  0.00    -0.020 A 
HETATM    6  C   UNL     1       5.022  27.599  56.361  1.00  0.00     0.063 C 
HETATM    7  C   UNL     1       5.163  28.856  57.223  1.00  0.00     0.117 C 
HETATM    8  C   UNL     1       4.090  29.871  56.928  1.00  0.00     0.223 C 
HETATM    9  O   UNL     1       3.631  30.615  57.791  1.00  0.00    -0.273 OA
HETATM   10  N   UNL     1       3.741  30.021  55.615  1.00  0.00    -0.327 N 
HETATM   11  C   UNL     1       5.017  27.036  53.858  1.00  0.00     0.049 A 
HETATM   12  H   UNL     1       3.133  30.806  55.414  1.00  0.00     0.169 HD
ENDROOT
BRANCH   6  13
HETATM   13  C   UNL     1       6.237  26.702  56.582  1.00  0.00    -0.046 A 
HETATM   14  C   UNL     1       6.145  25.306  56.432  1.00  0.00     0.045 A 
HETATM   15  C   UNL     1       7.240  24.490  56.729  1.00  0.00     0.076 A 
HETATM   16  C   UNL     1       8.460  25.057  57.088  1.00  0.00     0.037 A 
HETATM   17  C   UNL     1       8.573  26.441  57.206  1.00  0.00     0.003 A 
HETATM   18  C   UNL     1       7.467  27.260  56.965  1.00  0.00     0.008 A 
BRANCH  15  19
HETATM   19  O   UNL     1       7.186  23.119  56.629  1.00  0.00    -0.311 OA
BRANCH  19  20
HETATM   20  C   UNL     1       7.498  22.534  55.420  1.00  0.00     0.076 A 
HETATM   21  C   UNL     1       7.434  23.189  54.187  1.00  0.00     0.037 A 
HETATM   22  C   UNL     1       7.759  22.505  53.013  1.00  0.00     0.003 A 
HETATM   23  C   UNL     1       8.115  21.157  53.066  1.00  0.00     0.000 A 
HETATM   24  C   UNL     1       8.145  20.493  54.292  1.00  0.00     0.003 A 
HETATM   25  C   UNL     1       7.836  21.180  55.466  1.00  0.00     0.037 A 
ENDBRANCH  19  20
ENDBRANCH  15  19
ENDBRANCH   6  13
BRANCH   1  26
HETATM   26  O   UNL     1       4.988  26.543  51.457  1.00  0.00    -0.353 OA
HETATM   27  C   UNL     1       6.083  25.645  51.577  1.00  0.00     0.210 C 
ENDBRANCH   1  26
BRANCH   2  28
HETATM   28  O   UNL     1       3.891  28.873  50.910  1.00  0.00    -0.353 OA
HETATM   29  C   UNL     1       4.679  29.894  50.313  1.00  0.00     0.210 C 
ENDBRANCH   2  28
TORSDOF 5
ENDMDL
MODEL 6
REMARK VINA RESULT:      -9.2      2.631      7.462
REMARK  5 active torsions:
REMARK  status: ('A' for Active; 'I' for Inactive)
REMARK    1  A    between atoms: O_2  and  C_3 
REMARK    2  A    between atoms: C_4  and  O_5 
REMARK    3  A    between atoms: C_10  and  C_11 
REMARK    4  A    between atoms: C_13  and  O_14 
REMARK    5  A    between atoms: O_14  and  C_15 
ROOT
HETATM    1  C   UNL     1       8.772  30.143  57.966  1.00  0.00     0.102 A 
HETATM    2  C   UNL     1       8.276  31.245  58.683  1.00  0.00     0.103 A 
HETATM    3  C   UNL     1       6.942  31.636  58.525  1.00  0.00     0.069 A 
HETATM    4  C   UNL     1       6.086  30.885  57.717  1.00  0.00     0.044 A 
HETATM    5  C   UNL     1       6.541  29.744  57.049  1.00  0.00    -0.020 A 
HETATM    6  C   UNL     1       5.584  28.988  56.137  1.00  0.00     0.063 C 
HETATM    7  C   UNL     1       4.127  29.173  56.566  1.00  0.00     0.117 C 
HETATM    8  C   UNL     1       3.805  30.611  56.879  1.00  0.00     0.223 C 
HETATM    9  O   UNL     1       2.698  31.100  56.669  1.00  0.00    -0.273 OA
HETATM   10  N   UNL     1       4.770  31.320  57.538  1.00  0.00    -0.327 N 
HETATM   11  C   UNL     1       7.903  29.406  57.153  1.00  0.00     0.049 A 
HETATM   12  H   UNL     1       4.486  32.232  57.875  1.00  0.00     0.169 HD
ENDROOT
BRANCH   6  13
HETATM   13  C   UNL     1       5.883  27.496  56.015  1.00  0.00    -0.046 A 
HETATM   14  C   UNL     1       6.796  27.014  55.058  1.00  0.00     0.045 A 
HETATM   15  C   UNL     1       6.990  25.641  54.894  1.00  0.00     0.076 A 
HETATM   16  C   UNL     1       6.349  24.737  55.738  1.00  0.00     0.037 A 
HETATM   17  C   UNL     1       5.469  25.203  56.714  1.00  0.00     0.003 A 
HETATM   18  C   UNL     1       5.229  26.573  56.846  1.00  0.00     0.008 A 
BRANCH  15  19
HETATM   19  O   UNL     1       7.845  25.125  53.949  1.00  0.00    -0.311 OA
BRANCH  19  20
HETATM   20  C   UNL     1       8.093  23.768  53.956  1.00  0.00     0.076 A 
HETATM   21  C   UNL     1       7.597  22.871  53.005  1.00  0.00     0.037 A 
HETATM   22  C   UNL     1       7.894  21.509  53.106  1.00  0.00     0.003 A 
HETATM   23  C   UNL     1       8.658  21.038  54.173  1.00  0.00     0.000 A 
HETATM   24  C   UNL     1       9.123  21.926  55.142  1.00  0.00     0.003 A 
HETATM   25  C   UNL     1       8.840  23.289  55.034  1.00  0.00     0.037 A 
ENDBRANCH  19  20
ENDBRANCH  15  19
ENDBRANCH   6  13
BRANCH   1  26
HETATM   26  O   UNL     1      10.100  29.847  58.147  1.00  0.00    -0.353 OA
HETATM   27  C   UNL     1      10.908  29.748  56.982  1.00  0.00     0.210 C 
ENDBRANCH   1  26
BRANCH   2  28
HETATM   28  O   UNL     1       9.174  31.930  59.466  1.00  0.00    -0.353 OA
HETATM   29  C   UNL     1       8.785  32.139  60.817  1.00  0.00     0.210 C 
ENDBRANCH   2  28
TORSDOF 5
ENDMDL
MODEL 7
REMARK VINA RESULT:      -9.0      2.401      6.837
REMARK  5 active torsions:
REMARK  status: ('A' for Active; 'I' for Inactive)
REMARK    1  A    between atoms: O_2  and  C_3 
REMARK    2  A    between atoms: C_4  and  O_5 
REMARK    3  A    between atoms: C_10  and  C_11 
REMARK    4  A    between atoms: C_13  and  O_14 
REMARK    5  A    between atoms: O_14  and  C_15 
ROOT
HETATM    1  C   UNL     1       8.401  29.227  57.086  1.00  0.00     0.102 A 
HETATM    2  C   UNL     1       7.920  29.796  58.278  1.00  0.00     0.103 A 
HETATM    3  C   UNL     1       6.617  30.298  58.334  1.00  0.00     0.069 A 
HETATM    4  C   UNL     1       5.769  30.166  57.231  1.00  0.00     0.044 A 
HETATM    5  C   UNL     1       6.205  29.541  56.059  1.00  0.00    -0.020 A 
HETATM    6  C   UNL     1       5.264  29.466  54.864  1.00  0.00     0.063 C 
HETATM    7  C   UNL     1       3.796  29.488  55.298  1.00  0.00     0.117 C 
HETATM    8  C   UNL     1       3.526  30.545  56.337  1.00  0.00     0.223 C 
HETATM    9  O   UNL     1       2.455  31.143  56.406  1.00  0.00    -0.273 OA
HETATM   10  N   UNL     1       4.487  30.716  57.293  1.00  0.00    -0.327 N 
HETATM   11  C   UNL     1       7.543  29.109  55.987  1.00  0.00     0.049 A 
HETATM   12  H   UNL     1       4.229  31.317  58.066  1.00  0.00     0.169 HD
ENDROOT
BRANCH   6  13
HETATM   13  C   UNL     1       5.499  28.263  53.956  1.00  0.00    -0.046 A 
HETATM   14  C   UNL     1       5.388  26.949  54.448  1.00  0.00     0.045 A 
HETATM   15  C   UNL     1       5.697  25.859  53.631  1.00  0.00     0.076 A 
HETATM   16  C   UNL     1       6.031  26.058  52.294  1.00  0.00     0.037 A 
HETATM   17  C   UNL     1       6.109  27.353  51.784  1.00  0.00     0.003 A 
HETATM   18  C   UNL     1       5.856  28.450  52.611  1.00  0.00     0.008 A 
BRANCH  15  19
HETATM   19  O   UNL     1       5.636  24.560  54.080  1.00  0.00    -0.311 OA
BRANCH  19  20
HETATM   20  C   UNL     1       6.810  23.931  54.438  1.00  0.00     0.076 A 
HETATM   21  C   UNL     1       7.481  24.140  55.646  1.00  0.00     0.037 A 
HETATM   22  C   UNL     1       8.673  23.463  55.912  1.00  0.00     0.003 A 
HETATM   23  C   UNL     1       9.215  22.603  54.957  1.00  0.00     0.000 A 
HETATM   24  C   UNL     1       8.566  22.420  53.736  1.00  0.00     0.003 A 
HETATM   25  C   UNL     1       7.366  23.085  53.477  1.00  0.00     0.037 A 
ENDBRANCH  19  20
ENDBRANCH  15  19
ENDBRANCH   6  13
BRANCH   1  26
HETATM   26  O   UNL     1       9.703  28.792  57.102  1.00  0.00    -0.353 OA
HETATM   27  C   UNL     1      10.671  29.614  56.464  1.00  0.00     0.210 C 
ENDBRANCH   1  26
BRANCH   2  28
HETATM   28  O   UNL     1       8.807  29.884  59.324  1.00  0.00    -0.353 OA
HETATM   29  C   UNL     1       9.225  31.197  59.673  1.00  0.00     0.210 C 
ENDBRANCH   2  28
TORSDOF 5
ENDMDL
MODEL 8
REMARK VINA RESULT:      -8.8      4.010      7.454
REMARK  5 active torsions:
REMARK  status: ('A' for Active; 'I' for Inactive)
REMARK    1  A    between atoms: O_2  and  C_3 
REMARK    2  A    between atoms: C_4  and  O_5 
REMARK    3  A    between atoms: C_10  and  C_11 
REMARK    4  A    between atoms: C_13  and  O_14 
REMARK    5  A    between atoms: O_14  and  C_15 
ROOT
HETATM    1  C   UNL     1       4.129  30.253  51.896  1.00  0.00     0.102 A 
HETATM    2  C   UNL     1       3.235  30.669  50.895  1.00  0.00     0.103 A 
HETATM    3  C   UNL     1       3.066  29.892  49.745  1.00  0.00     0.069 A 
HETATM    4  C   UNL     1       3.727  28.667  49.626  1.00  0.00     0.044 A 
HETATM    5  C   UNL     1       4.568  28.201  50.641  1.00  0.00    -0.020 A 
HETATM    6  C   UNL     1       5.308  26.885  50.445  1.00  0.00     0.063 C 
HETATM    7  C   UNL     1       4.558  25.950  49.493  1.00  0.00     0.117 C 
HETATM    8  C   UNL     1       4.067  26.666  48.262  1.00  0.00     0.223 C 
HETATM    9  O   UNL     1       3.991  26.117  47.166  1.00  0.00    -0.273 OA
HETATM   10  N   UNL     1       3.579  27.929  48.449  1.00  0.00    -0.327 N 
HETATM   11  C   UNL     1       4.791  29.028  51.758  1.00  0.00     0.049 A 
HETATM   12  H   UNL     1       3.116  28.339  47.647  1.00  0.00     0.169 HD
ENDROOT
BRANCH   6  13
HETATM   13  C   UNL     1       5.613  26.139  51.741  1.00  0.00    -0.046 A 
HETATM   14  C   UNL     1       6.886  25.587  51.979  1.00  0.00     0.045 A 
HETATM   15  C   UNL     1       7.124  24.827  53.126  1.00  0.00     0.076 A 
HETATM   16  C   UNL     1       6.130  24.683  54.090  1.00  0.00     0.037 A 
HETATM   17  C   UNL     1       4.875  25.254  53.883  1.00  0.00     0.003 A 
HETATM   18  C   UNL     1       4.613  25.969  52.712  1.00  0.00     0.008 A 
BRANCH  15  19
HETATM   19  O   UNL     1       8.342  24.241  53.383  1.00  0.00    -0.311 OA
BRANCH  19  20
HETATM   20  C   UNL     1       8.371  22.904  53.720  1.00  0.00     0.076 A 
HETATM   21  C   UNL     1       7.869  21.877  52.916  1.00  0.00     0.037 A 
HETATM   22  C   UNL     1       7.934  20.551  53.352  1.00  0.00     0.003 A 
HETATM   23  C   UNL     1       8.471  20.254  54.605  1.00  0.00     0.000 A 
HETATM   24  C   UNL     1       8.940  21.281  55.423  1.00  0.00     0.003 A 
HETATM   25  C   UNL     1       8.889  22.604  54.981  1.00  0.00     0.037 A 
ENDBRANCH  19  20
ENDBRANCH  15  19
ENDBRANCH   6  13
BRANCH   1  26
HETATM   26  O   UNL     1       4.267  31.090  52.975  1.00  0.00    -0.353 OA
HETATM   27  C   UNL     1       3.950  30.560  54.254  1.00  0.00     0.210 C 
ENDBRANCH   1  26
BRANCH   2  28
HETATM   28  O   UNL     1       2.613  31.879  51.084  1.00  0.00    -0.353 OA
HETATM   29  C   UNL     1       1.244  31.939  50.706  1.00  0.00     0.210 C 
ENDBRANCH   2  28
TORSDOF 5
ENDMDL
MODEL 9
REMARK VINA RESULT:      -8.8      2.551      4.867
REMARK  5 active torsions:
REMARK  status: ('A' for Active; 'I' for Inactive)
REMARK    1  A    between atoms: O_2  and  C_3 
REMARK    2  A    between atoms: C_4  and  O_5 
REMARK    3  A    between atoms: C_10  and  C_11 
REMARK    4  A    between atoms: C_13  and  O_14 
REMARK    5  A    between atoms: O_14  and  C_15 
ROOT
HETATM    1  C   UNL     1       6.489  27.753  53.087  1.00  0.00     0.102 A 
HETATM    2  C   UNL     1       6.577  26.382  52.791  1.00  0.00     0.103 A 
HETATM    3  C   UNL     1       7.075  25.493  53.749  1.00  0.00     0.069 A 
HETATM    4  C   UNL     1       7.412  25.956  55.023  1.00  0.00     0.044 A 
HETATM    5  C   UNL     1       7.266  27.305  55.361  1.00  0.00    -0.020 A 
HETATM    6  C   UNL     1       7.695  27.773  56.745  1.00  0.00     0.063 C 
HETATM    7  C   UNL     1       7.611  26.645  57.776  1.00  0.00     0.117 C 
HETATM    8  C   UNL     1       8.200  25.358  57.259  1.00  0.00     0.223 C 
HETATM    9  O   UNL     1       8.771  24.554  57.991  1.00  0.00    -0.273 OA
HETATM   10  N   UNL     1       7.950  25.060  55.949  1.00  0.00    -0.327 N 
HETATM   11  C   UNL     1       6.838  28.203  54.365  1.00  0.00     0.049 A 
HETATM   12  H   UNL     1       8.219  24.128  55.657  1.00  0.00     0.169 HD
ENDROOT
BRANCH   6  13
HETATM   13  C   UNL     1       6.923  28.983  57.264  1.00  0.00    -0.046 A 
HETATM   14  C   UNL     1       7.595  30.108  57.777  1.00  0.00     0.045 A 
HETATM   15  C   UNL     1       6.876  31.168  58.336  1.00  0.00     0.076 A 
HETATM   16  C   UNL     1       5.484  31.162  58.307  1.00  0.00     0.037 A 
HETATM   17  C   UNL     1       4.806  30.069  57.769  1.00  0.00     0.003 A 
HETATM   18  C   UNL     1       5.519  28.981  57.260  1.00  0.00     0.008 A 
BRANCH  15  19
HETATM   19  O   UNL     1       7.492  32.271  58.879  1.00  0.00    -0.311 OA
BRANCH  19  20
HETATM   20  C   UNL     1       7.710  32.299  60.240  1.00  0.00     0.076 A 
HETATM   21  C   UNL     1       6.802  32.804  61.175  1.00  0.00     0.037 A 
HETATM   22  C   UNL     1       7.121  32.801  62.535  1.00  0.00     0.003 A 
HETATM   23  C   UNL     1       8.361  32.323  62.960  1.00  0.00     0.000 A 
HETATM   24  C   UNL     1       9.283  31.851  62.025  1.00  0.00     0.003 A 
HETATM   25  C   UNL     1       8.958  31.841  60.668  1.00  0.00     0.037 A 
ENDBRANCH  19  20
ENDBRANCH  15  19
ENDBRANCH   6  13
BRANCH   1  26
HETATM   26  O   UNL     1       6.026  28.564  52.080  1.00  0.00    -0.353 OA
HETATM   27  C   UNL     1       4.743  29.148  52.254  1.00  0.00     0.210 C 
ENDBRANCH   1  26
BRANCH   2  28
HETATM   28  O   UNL     1       6.220  25.998  51.521  1.00  0.00    -0.353 OA
HETATM   29  C   UNL     1       4.987  25.300  51.409  1.00  0.00     0.210 C 
ENDBRANCH   2  28
TORSDOF 5
ENDMDL
MODEL 10
REMARK VINA RESULT:      -8.7      2.351      6.560
REMARK  5 active torsions:
REMARK  status: ('A' for Active; 'I' for Inactive)
REMARK    1  A    between atoms: O_2  and  C_3 
REMARK    2  A    between atoms: C_4  and  O_5 
REMARK    3  A    between atoms: C_10  and  C_11 
REMARK    4  A    between atoms: C_13  and  O_14 
REMARK    5  A    between atoms: O_14  and  C_15 
ROOT
HETATM    1  C   UNL     1       7.251  23.539  54.466  1.00  0.00     0.102 A 
HETATM    2  C   UNL     1       7.628  23.100  55.746  1.00  0.00     0.103 A 
HETATM    3  C   UNL     1       7.866  24.033  56.760  1.00  0.00     0.069 A 
HETATM    4  C   UNL     1       7.655  25.393  56.522  1.00  0.00     0.044 A 
HETATM    5  C   UNL     1       7.213  25.845  55.275  1.00  0.00    -0.020 A 
HETATM    6  C   UNL     1       7.046  27.342  55.045  1.00  0.00     0.063 C 
HETATM    7  C   UNL     1       6.754  28.086  56.350  1.00  0.00     0.117 C 
HETATM    8  C   UNL     1       7.661  27.647  57.470  1.00  0.00     0.223 C 
HETATM    9  O   UNL     1       8.036  28.413  58.354  1.00  0.00    -0.273 OA
HETATM   10  N   UNL     1       7.942  26.311  57.535  1.00  0.00    -0.327 N 
HETATM   11  C   UNL     1       7.052  24.905  54.240  1.00  0.00     0.049 A 
HETATM   12  H   UNL     1       8.425  26.009  58.372  1.00  0.00     0.169 HD
ENDROOT
BRANCH   6  13
HETATM   13  C   UNL     1       5.979  27.702  54.015  1.00  0.00    -0.046 A 
HETATM   14  C   UNL     1       6.311  27.881  52.659  1.00  0.00     0.045 A 
HETATM   15  C   UNL     1       5.343  28.302  51.744  1.00  0.00     0.076 A 
HETATM   16  C   UNL     1       4.020  28.462  52.147  1.00  0.00     0.037 A 
HETATM   17  C   UNL     1       3.671  28.254  53.481  1.00  0.00     0.003 A 
HETATM   18  C   UNL     1       4.646  27.887  54.412  1.00  0.00     0.008 A 
BRANCH  15  19
HETATM   19  O   UNL     1       5.629  28.522  50.417  1.00  0.00    -0.311 OA
BRANCH  19  20
HETATM   20  C   UNL     1       4.802  27.965  49.464  1.00  0.00     0.076 A 
HETATM   21  C   UNL     1       4.051  28.701  48.543  1.00  0.00     0.037 A 
HETATM   22  C   UNL     1       3.231  28.044  47.623  1.00  0.00     0.003 A 
HETATM   23  C   UNL     1       3.135  26.653  47.643  1.00  0.00     0.000 A 
HETATM   24  C   UNL     1       3.856  25.918  48.583  1.00  0.00     0.003 A 
HETATM   25  C   UNL     1       4.687  26.574  49.493  1.00  0.00     0.037 A 
ENDBRANCH  19  20
ENDBRANCH  15  19
ENDBRANCH   6  13
BRANCH   1  26
HETATM   26  O   UNL     1       7.074  22.564  53.516  1.00  0.00    -0.353 OA
HETATM   27  C   UNL     1       8.221  22.149  52.788  1.00  0.00     0.210 C 
ENDBRANCH   1  26
BRANCH   2  28
HETATM   28  O   UNL     1       7.808  21.748  55.910  1.00  0.00    -0.353 OA
HETATM   29  C   UNL     1       8.392  21.345  57.142  1.00  0.00     0.210 C 
ENDBRANCH   2  28
TORSDOF 5
ENDMDL
