MODEL 1
REMARK VINA RESULT:      -9.0      0.000      0.000
REMARK  4 active torsions:
REMARK  status: ('A' for Active; 'I' for Inactive)
REMARK       I    between atoms: C_2  and  N_3 
REMARK    1  A    between atoms: N_3  and  C_4 
REMARK    2  A    between atoms: C_7  and  C_8 
REMARK    3  A    between atoms: C_12  and  N_13 
REMARK    4  A    between atoms: C_20  and  C_21 
ROOT
HETATM    1  C   UNL     1       6.005  34.434  62.170  1.00  0.00     0.105 C 
HETATM    2  C   UNL     1       5.868  33.087  61.464  1.00  0.00     0.067 C 
HETATM    3  C   UNL     1       7.074  32.167  61.555  1.00  0.00     0.020 C 
HETATM    4  N   UNL     1       8.074  31.403  61.631  1.00  0.00    -0.096 N 
HETATM    5  C   UNL     1       4.817  32.764  60.665  1.00  0.00     0.139 C 
HETATM    6  O   UNL     1       3.766  33.670  60.427  1.00  0.00    -0.279 OA
HETATM    7  C   UNL     1       3.948  34.906  60.884  1.00  0.00     0.175 A 
HETATM    8  C   UNL     1       4.960  35.375  61.682  1.00  0.00     0.040 A 
HETATM    9  N   UNL     1       3.140  35.959  60.614  1.00  0.00    -0.256 N 
HETATM   10  H   UNL     1       2.297  35.979  60.051  1.00  0.00     0.191 HD
HETATM   11  N   UNL     1       3.572  37.103  61.177  1.00  0.00    -0.172 NA
HETATM   12  C   UNL     1       4.716  36.769  61.810  1.00  0.00     0.099 A 
ENDROOT
BRANCH   1  13
HETATM   13  C   UNL     1       5.822  34.310  63.678  1.00  0.00    -0.044 A 
HETATM   14  C   UNL     1       6.939  34.081  64.495  1.00  0.00     0.010 A 
HETATM   15  C   UNL     1       6.808  33.917  65.883  1.00  0.00     0.030 A 
HETATM   16  C   UNL     1       5.559  33.980  66.494  1.00  0.00     0.034 A 
HETATM   17  C   UNL     1       4.439  34.197  65.681  1.00  0.00     0.030 A 
HETATM   18  C   UNL     1       4.564  34.351  64.297  1.00  0.00     0.010 A 
BRANCH  16  19
HETATM   19  N   UNL     1       5.298  33.832  67.868  1.00  0.00    -0.328 N 
HETATM   20  C   UNL     1       5.837  34.345  69.008  1.00  0.00     0.218 C 
HETATM   21  C   UNL     1       6.970  35.324  68.981  1.00  0.00     0.117 C 
HETATM   22  O   UNL     1       5.361  33.977  70.086  1.00  0.00    -0.274 OA
HETATM   23  H   UNL     1       4.536  33.208  68.107  1.00  0.00     0.169 HD
ENDBRANCH  16  19
ENDBRANCH   1  13
BRANCH   5  24
HETATM   24  N   UNL     1       4.664  31.575  59.990  1.00  0.00    -0.282 NA
HETATM   25  H   UNL     1       3.937  30.958  60.342  1.00  0.00     0.126 HD
HETATM   26  H   UNL     1       4.618  31.709  58.982  1.00  0.00     0.126 HD
ENDBRANCH   5  24
BRANCH  12  27
HETATM   27  C   UNL     1       5.507  37.781  62.508  1.00  0.00    -0.005 A 
HETATM   28  C   UNL     1       6.468  38.524  61.809  1.00  0.00     0.014 A 
HETATM   29  C   UNL     1       7.236  39.490  62.465  1.00  0.00     0.001 A 
HETATM   30  C   UNL     1       7.054  39.718  63.827  1.00  0.00     0.000 A 
HETATM   31  C   UNL     1       6.111  38.975  64.537  1.00  0.00     0.001 A 
HETATM   32  C   UNL     1       5.345  38.007  63.882  1.00  0.00     0.014 A 
ENDBRANCH  12  27
TORSDOF 4
ENDMDL
MODEL 2
REMARK VINA RESULT:      -8.9      9.136     13.182
REMARK  4 active torsions:
REMARK  status: ('A' for Active; 'I' for Inactive)
REMARK       I    between atoms: C_2  and  N_3 
REMARK    1  A    between atoms: N_3  and  C_4 
REMARK    2  A    between atoms: C_7  and  C_8 
REMARK    3  A    between atoms: C_12  and  N_13 
REMARK    4  A    between atoms: C_20  and  C_21 
ROOT
HETATM    1  C   UNL     1       5.455  27.374  54.490  1.00  0.00     0.105 C 
HETATM    2  C   UNL     1       4.487  28.547  54.360  1.00  0.00     0.067 C 
HETATM    3  C   UNL     1       3.834  29.013  55.651  1.00  0.00     0.020 C 
HETATM    4  N   UNL     1       3.295  29.400  56.723  1.00  0.00    -0.096 N 
HETATM    5  C   UNL     1       4.088  29.062  53.166  1.00  0.00     0.139 C 
HETATM    6  O   UNL     1       4.548  28.532  51.946  1.00  0.00    -0.279 OA
HETATM    7  C   UNL     1       5.247  27.404  52.027  1.00  0.00     0.175 A 
HETATM    8  C   UNL     1       5.704  26.768  53.153  1.00  0.00     0.040 A 
HETATM    9  N   UNL     1       5.631  26.651  50.968  1.00  0.00    -0.256 N 
HETATM   10  H   UNL     1       5.464  26.819  49.982  1.00  0.00     0.191 HD
HETATM   11  N   UNL     1       6.303  25.543  51.334  1.00  0.00    -0.172 NA
HETATM   12  C   UNL     1       6.324  25.579  52.682  1.00  0.00     0.099 A 
ENDROOT
BRANCH   1  13
HETATM   13  C   UNL     1       6.808  27.808  55.040  1.00  0.00    -0.044 A 
HETATM   14  C   UNL     1       7.092  27.631  56.402  1.00  0.00     0.010 A 
HETATM   15  C   UNL     1       8.309  28.057  56.957  1.00  0.00     0.030 A 
HETATM   16  C   UNL     1       9.277  28.670  56.166  1.00  0.00     0.034 A 
HETATM   17  C   UNL     1       8.994  28.860  54.807  1.00  0.00     0.030 A 
HETATM   18  C   UNL     1       7.779  28.446  54.253  1.00  0.00     0.010 A 
BRANCH  16  19
HETATM   19  N   UNL     1      10.529  29.139  56.602  1.00  0.00    -0.328 N 
HETATM   20  C   UNL     1      10.947  30.154  57.406  1.00  0.00     0.218 C 
HETATM   21  C   UNL     1       9.984  31.079  58.085  1.00  0.00     0.117 C 
HETATM   22  O   UNL     1      12.163  30.297  57.568  1.00  0.00    -0.274 OA
HETATM   23  H   UNL     1      11.334  28.626  56.261  1.00  0.00     0.169 HD
ENDBRANCH  16  19
ENDBRANCH   1  13
BRANCH   5  24
HETATM   24  N   UNL     1       3.199  30.099  53.001  1.00  0.00    -0.282 NA
HETATM   25  H   UNL     1       3.561  31.026  53.209  1.00  0.00     0.126 HD
HETATM   26  H   UNL     1       2.715  30.052  52.107  1.00  0.00     0.126 HD
ENDBRANCH   5  24
BRANCH  12  27
HETATM   27  C   UNL     1       6.938  24.496  53.449  1.00  0.00    -0.005 A 
HETATM   28  C   UNL     1       7.829  23.613  52.825  1.00  0.00     0.014 A 
HETATM   29  C   UNL     1       8.418  22.570  53.544  1.00  0.00     0.001 A 
HETATM   30  C   UNL     1       8.118  22.397  54.893  1.00  0.00     0.000 A 
HETATM   31  C   UNL     1       7.222  23.260  55.523  1.00  0.00     0.001 A 
HETATM   32  C   UNL     1       6.630  24.302  54.803  1.00  0.00     0.014 A 
ENDBRANCH  12  27
TORSDOF 4
ENDMDL
MODEL 3
REMARK VINA RESULT:      -8.7      9.436     12.769
REMARK  4 active torsions:
REMARK  status: ('A' for Active; 'I' for Inactive)
REMARK       I    between atoms: C_2  and  N_3 
REMARK    1  A    between atoms: N_3  and  C_4 
REMARK    2  A    between atoms: C_7  and  C_8 
REMARK    3  A    between atoms: C_12  and  N_13 
REMARK    4  A    between atoms: C_20  and  C_21 
ROOT
HETATM    1  C   UNL     1       5.992  28.191  53.707  1.00  0.00     0.105 C 
HETATM    2  C   UNL     1       4.821  28.145  52.728  1.00  0.00     0.067 C 
HETATM    3  C   UNL     1       5.172  27.781  51.294  1.00  0.00     0.020 C 
HETATM    4  N   UNL     1       5.463  27.477  50.105  1.00  0.00    -0.096 N 
HETATM    5  C   UNL     1       3.563  28.552  53.044  1.00  0.00     0.139 C 
HETATM    6  O   UNL     1       3.252  29.057  54.320  1.00  0.00    -0.279 OA
HETATM    7  C   UNL     1       4.284  29.273  55.130  1.00  0.00     0.175 A 
HETATM    8  C   UNL     1       5.598  28.931  54.938  1.00  0.00     0.040 A 
HETATM    9  N   UNL     1       4.214  29.907  56.324  1.00  0.00    -0.256 N 
HETATM   10  H   UNL     1       3.399  30.298  56.783  1.00  0.00     0.191 HD
HETATM   11  N   UNL     1       5.413  30.018  56.925  1.00  0.00    -0.172 NA
HETATM   12  C   UNL     1       6.287  29.454  56.065  1.00  0.00     0.099 A 
ENDROOT
BRANCH   1  13
HETATM   13  C   UNL     1       6.424  26.798  54.146  1.00  0.00    -0.044 A 
HETATM   14  C   UNL     1       7.534  26.193  53.538  1.00  0.00     0.010 A 
HETATM   15  C   UNL     1       7.939  24.894  53.882  1.00  0.00     0.030 A 
HETATM   16  C   UNL     1       7.248  24.163  54.845  1.00  0.00     0.034 A 
HETATM   17  C   UNL     1       6.131  24.758  55.446  1.00  0.00     0.030 A 
HETATM   18  C   UNL     1       5.719  26.047  55.099  1.00  0.00     0.010 A 
BRANCH  16  19
HETATM   19  N   UNL     1       7.553  22.859  55.274  1.00  0.00    -0.328 N 
HETATM   20  C   UNL     1       7.828  21.682  54.649  1.00  0.00     0.218 C 
HETATM   21  C   UNL     1       7.877  21.567  53.156  1.00  0.00     0.117 C 
HETATM   22  O   UNL     1       8.042  20.691  55.354  1.00  0.00    -0.274 OA
HETATM   23  H   UNL     1       7.589  22.723  56.278  1.00  0.00     0.169 HD
ENDBRANCH  16  19
ENDBRANCH   1  13
BRANCH   5  24
HETATM   24  N   UNL     1       2.486  28.553  52.187  1.00  0.00    -0.282 NA
HETATM   25  H   UNL     1       2.687  28.282  51.228  1.00  0.00     0.126 HD
HETATM   26  H   UNL     1       1.683  28.065  52.578  1.00  0.00     0.126 HD
ENDBRANCH   5  24
BRANCH  12  27
HETATM   27  C   UNL     1       7.718  29.430  56.361  1.00  0.00    -0.005 A 
HETATM   28  C   UNL     1       8.166  29.649  57.671  1.00  0.00     0.014 A 
HETATM   29  C   UNL     1       9.532  29.635  57.967  1.00  0.00     0.001 A 
HETATM   30  C   UNL     1      10.462  29.408  56.956  1.00  0.00     0.000 A 
HETATM   31  C   UNL     1      10.030  29.204  55.646  1.00  0.00     0.001 A 
HETATM   32  C   UNL     1       8.664  29.220  55.348  1.00  0.00     0.014 A 
ENDBRANCH  12  27
TORSDOF 4
ENDMDL
MODEL 4
REMARK VINA RESULT:      -8.4      3.970      7.421
REMARK  4 active torsions:
REMARK  status: ('A' for Active; 'I' for Inactive)
REMARK       I    between atoms: C_2  and  N_3 
REMARK    1  A    between atoms: N_3  and  C_4 
REMARK    2  A    between atoms: C_7  and  C_8 
REMARK    3  A    between atoms: C_12  and  N_13 
REMARK    4  A    between atoms: C_20  and  C_21 
ROOT
HETATM    1  C   UNL     1       3.864  34.405  60.234  1.00  0.00     0.105 C 
HETATM    2  C   UNL     1       2.803  35.199  59.477  1.00  0.00     0.067 C 
HETATM    3  C   UNL     1       3.276  35.896  58.211  1.00  0.00     0.020 C 
HETATM    4  N   UNL     1       3.669  36.472  57.161  1.00  0.00    -0.096 N 
HETATM    5  C   UNL     1       1.550  35.424  59.955  1.00  0.00     0.139 C 
HETATM    6  O   UNL     1       1.143  34.932  61.210  1.00  0.00    -0.279 OA
HETATM    7  C   UNL     1       2.096  34.393  61.962  1.00  0.00     0.175 A 
HETATM    8  C   UNL     1       3.396  34.121  61.619  1.00  0.00     0.040 A 
HETATM    9  N   UNL     1       1.946  34.018  63.256  1.00  0.00    -0.256 N 
HETATM   10  H   UNL     1       1.116  34.077  63.836  1.00  0.00     0.191 HD
HETATM   11  N   UNL     1       3.080  33.529  63.791  1.00  0.00    -0.172 NA
HETATM   12  C   UNL     1       3.997  33.620  62.805  1.00  0.00     0.099 A 
ENDROOT
BRANCH   1  13
HETATM   13  C   UNL     1       4.148  33.060  59.577  1.00  0.00    -0.044 A 
HETATM   14  C   UNL     1       5.353  32.867  58.886  1.00  0.00     0.010 A 
HETATM   15  C   UNL     1       5.634  31.659  58.229  1.00  0.00     0.030 A 
HETATM   16  C   UNL     1       4.721  30.608  58.247  1.00  0.00     0.034 A 
HETATM   17  C   UNL     1       3.511  30.800  58.926  1.00  0.00     0.030 A 
HETATM   18  C   UNL     1       3.222  32.005  59.572  1.00  0.00     0.010 A 
BRANCH  16  19
HETATM   19  N   UNL     1       4.886  29.355  57.630  1.00  0.00    -0.328 N 
HETATM   20  C   UNL     1       4.644  28.858  56.387  1.00  0.00     0.218 C 
HETATM   21  C   UNL     1       4.089  29.707  55.284  1.00  0.00     0.117 C 
HETATM   22  O   UNL     1       4.898  27.667  56.183  1.00  0.00    -0.274 OA
HETATM   23  H   UNL     1       5.275  28.624  58.215  1.00  0.00     0.169 HD
ENDBRANCH  16  19
ENDBRANCH   1  13
BRANCH   5  24
HETATM   24  N   UNL     1       0.573  36.155  59.321  1.00  0.00    -0.282 NA
HETATM   25  H   UNL     1       0.614  37.161  59.462  1.00  0.00     0.126 HD
HETATM   26  H   UNL     1       0.473  35.895  58.342  1.00  0.00     0.126 HD
ENDBRANCH   5  24
BRANCH  12  27
HETATM   27  C   UNL     1       5.384  33.219  63.035  1.00  0.00    -0.005 A 
HETATM   28  C   UNL     1       5.913  32.110  62.362  1.00  0.00     0.014 A 
HETATM   29  C   UNL     1       7.235  31.711  62.577  1.00  0.00     0.001 A 
HETATM   30  C   UNL     1       8.038  32.415  63.471  1.00  0.00     0.000 A 
HETATM   31  C   UNL     1       7.519  33.512  64.158  1.00  0.00     0.001 A 
HETATM   32  C   UNL     1       6.197  33.909  63.946  1.00  0.00     0.014 A 
ENDBRANCH  12  27
TORSDOF 4
ENDMDL
MODEL 5
REMARK VINA RESULT:      -8.3      7.637     10.686
REMARK  4 active torsions:
REMARK  status: ('A' for Active; 'I' for Inactive)
REMARK       I    between atoms: C_2  and  N_3 
REMARK    1  A    between atoms: N_3  and  C_4 
REMARK    2  A    between atoms: C_7  and  C_8 
REMARK    3  A    between atoms: C_12  and  N_13 
REMARK    4  A    between atoms: C_20  and  C_21 
ROOT
HETATM    1  C   UNL     1       5.680  30.346  55.903  1.00  0.00     0.105 C 
HETATM    2  C   UNL     1       4.276  30.781  55.489  1.00  0.00     0.067 C 
HETATM    3  C   UNL     1       4.011  30.823  53.993  1.00  0.00     0.020 C 
HETATM    4  N   UNL     1       3.790  30.857  52.752  1.00  0.00    -0.096 N 
HETATM    5  C   UNL     1       3.350  31.258  56.363  1.00  0.00     0.139 C 
HETATM    6  O   UNL     1       3.634  31.391  57.736  1.00  0.00    -0.279 OA
HETATM    7  C   UNL     1       4.899  31.189  58.092  1.00  0.00     0.175 A 
HETATM    8  C   UNL     1       5.934  30.726  57.320  1.00  0.00     0.040 A 
HETATM    9  N   UNL     1       5.406  31.430  59.325  1.00  0.00    -0.256 N 
HETATM   10  H   UNL     1       4.926  31.782  60.145  1.00  0.00     0.191 HD
HETATM   11  N   UNL     1       6.724  31.168  59.405  1.00  0.00    -0.172 NA
HETATM   12  C   UNL     1       7.076  30.768  58.165  1.00  0.00     0.099 A 
ENDROOT
BRANCH   1  13
HETATM   13  C   UNL     1       5.862  28.837  55.808  1.00  0.00    -0.044 A 
HETATM   14  C   UNL     1       5.288  28.007  56.782  1.00  0.00     0.010 A 
HETATM   15  C   UNL     1       5.469  26.615  56.756  1.00  0.00     0.030 A 
HETATM   16  C   UNL     1       6.227  26.013  55.755  1.00  0.00     0.034 A 
HETATM   17  C   UNL     1       6.812  26.839  54.786  1.00  0.00     0.030 A 
HETATM   18  C   UNL     1       6.643  28.226  54.815  1.00  0.00     0.010 A 
BRANCH  16  19
HETATM   19  N   UNL     1       6.481  24.637  55.621  1.00  0.00    -0.328 N 
HETATM   20  C   UNL     1       7.461  23.795  56.049  1.00  0.00     0.218 C 
HETATM   21  C   UNL     1       8.609  24.271  56.885  1.00  0.00     0.117 C 
HETATM   22  O   UNL     1       7.381  22.606  55.726  1.00  0.00    -0.274 OA
HETATM   23  H   UNL     1       5.795  24.112  55.090  1.00  0.00     0.169 HD
ENDBRANCH  16  19
ENDBRANCH   1  13
BRANCH   5  24
HETATM   24  N   UNL     1       2.086  31.685  56.032  1.00  0.00    -0.282 NA
HETATM   25  H   UNL     1       1.999  32.146  55.130  1.00  0.00     0.126 HD
HETATM   26  H   UNL     1       1.385  30.962  56.178  1.00  0.00     0.126 HD
ENDBRANCH   5  24
BRANCH  12  27
HETATM   27  C   UNL     1       8.465  30.437  57.852  1.00  0.00    -0.005 A 
HETATM   28  C   UNL     1       8.771  29.224  57.222  1.00  0.00     0.014 A 
HETATM   29  C   UNL     1      10.095  28.891  56.923  1.00  0.00     0.001 A 
HETATM   30  C   UNL     1      11.125  29.767  57.255  1.00  0.00     0.000 A 
HETATM   31  C   UNL     1      10.835  30.972  57.895  1.00  0.00     0.001 A 
HETATM   32  C   UNL     1       9.512  31.303  58.198  1.00  0.00     0.014 A 
ENDBRANCH  12  27
TORSDOF 4
ENDMDL
MODEL 6
REMARK VINA RESULT:      -7.9      4.768      8.276
REMARK  4 active torsions:
REMARK  status: ('A' for Active; 'I' for Inactive)
REMARK       I    between atoms: C_2  and  N_3 
REMARK    1  A    between atoms: N_3  and  C_4 
REMARK    2  A    between atoms: C_7  and  C_8 
REMARK    3  A    between atoms: C_12  and  N_13 
REMARK    4  A    between atoms: C_20  and  C_21 
ROOT
HETATM    1  C   UNL     1       4.799  33.417  59.421  1.00  0.00     0.105 C 
HETATM    2  C   UNL     1       3.592  34.232  58.964  1.00  0.00     0.067 C 
HETATM    3  C   UNL     1       3.765  34.995  57.662  1.00  0.00     0.020 C 
HETATM    4  N   UNL     1       3.907  35.628  56.580  1.00  0.00    -0.096 N 
HETATM    5  C   UNL     1       2.479  34.415  59.724  1.00  0.00     0.139 C 
HETATM    6  O   UNL     1       2.368  33.857  61.012  1.00  0.00    -0.279 OA
HETATM    7  C   UNL     1       3.469  33.296  61.502  1.00  0.00     0.175 A 
HETATM    8  C   UNL     1       4.658  33.060  60.860  1.00  0.00     0.040 A 
HETATM    9  N   UNL     1       3.616  32.857  62.775  1.00  0.00    -0.256 N 
HETATM   10  H   UNL     1       2.939  32.876  63.530  1.00  0.00     0.191 HD
HETATM   11  N   UNL     1       4.843  32.359  63.015  1.00  0.00    -0.172 NA
HETATM   12  C   UNL     1       5.513  32.511  61.854  1.00  0.00     0.099 A 
ENDROOT
BRANCH   1  13
HETATM   13  C   UNL     1       4.931  32.110  58.650  1.00  0.00    -0.044 A 
HETATM   14  C   UNL     1       3.794  31.322  58.422  1.00  0.00     0.010 A 
HETATM   15  C   UNL     1       3.880  30.089  57.755  1.00  0.00     0.030 A 
HETATM   16  C   UNL     1       5.104  29.611  57.295  1.00  0.00     0.034 A 
HETATM   17  C   UNL     1       6.245  30.389  57.530  1.00  0.00     0.030 A 
HETATM   18  C   UNL     1       6.165  31.612  58.204  1.00  0.00     0.010 A 
BRANCH  16  19
HETATM   19  N   UNL     1       5.319  28.399  56.616  1.00  0.00    -0.328 N 
HETATM   20  C   UNL     1       4.949  27.897  55.407  1.00  0.00     0.218 C 
HETATM   21  C   UNL     1       4.133  28.690  54.432  1.00  0.00     0.117 C 
HETATM   22  O   UNL     1       5.309  26.750  55.124  1.00  0.00    -0.274 OA
HETATM   23  H   UNL     1       5.879  27.712  57.109  1.00  0.00     0.169 HD
ENDBRANCH  16  19
ENDBRANCH   1  13
BRANCH   5  24
HETATM   24  N   UNL     1       1.382  35.161  59.364  1.00  0.00    -0.282 NA
HETATM   25  H   UNL     1       0.849  34.808  58.573  1.00  0.00     0.126 HD
HETATM   26  H   UNL     1       0.797  35.396  60.163  1.00  0.00     0.126 HD
ENDBRANCH   5  24
BRANCH  12  27
HETATM   27  C   UNL     1       6.917  32.119  61.744  1.00  0.00    -0.005 A 
HETATM   28  C   UNL     1       7.416  31.073  62.531  1.00  0.00     0.014 A 
HETATM   29  C   UNL     1       8.758  30.692  62.441  1.00  0.00     0.001 A 
HETATM   30  C   UNL     1       9.614  31.357  61.567  1.00  0.00     0.000 A 
HETATM   31  C   UNL     1       9.133  32.409  60.789  1.00  0.00     0.001 A 
HETATM   32  C   UNL     1       7.793  32.793  60.880  1.00  0.00     0.014 A 
ENDBRANCH  12  27
TORSDOF 4
ENDMDL
MODEL 7
REMARK VINA RESULT:      -7.9      5.634      8.618
REMARK  4 active torsions:
REMARK  status: ('A' for Active; 'I' for Inactive)
REMARK       I    between atoms: C_2  and  N_3 
REMARK    1  A    between atoms: N_3  and  C_4 
REMARK    2  A    between atoms: C_7  and  C_8 
REMARK    3  A    between atoms: C_12  and  N_13 
REMARK    4  A    between atoms: C_20  and  C_21 
ROOT
HETATM    1  C   UNL     1       7.198  29.528  57.770  1.00  0.00     0.105 C 
HETATM    2  C   UNL     1       7.071  28.585  56.576  1.00  0.00     0.067 C 
HETATM    3  C   UNL     1       5.923  27.591  56.638  1.00  0.00     0.020 C 
HETATM    4  N   UNL     1       4.969  26.768  56.689  1.00  0.00    -0.096 N 
HETATM    5  C   UNL     1       7.996  28.503  55.583  1.00  0.00     0.139 C 
HETATM    6  O   UNL     1       9.160  29.295  55.594  1.00  0.00    -0.279 OA
HETATM    7  C   UNL     1       9.381  29.991  56.705  1.00  0.00     0.175 A 
HETATM    8  C   UNL     1       8.551  30.152  57.785  1.00  0.00     0.040 A 
HETATM    9  N   UNL     1      10.517  30.675  56.979  1.00  0.00    -0.256 N 
HETATM   10  H   UNL     1      11.348  30.773  56.405  1.00  0.00     0.191 HD
HETATM   11  N   UNL     1      10.490  31.266  58.188  1.00  0.00    -0.172 NA
HETATM   12  C   UNL     1       9.297  30.922  58.717  1.00  0.00     0.099 A 
ENDROOT
BRANCH   1  13
HETATM   13  C   UNL     1       6.186  30.664  57.711  1.00  0.00    -0.044 A 
HETATM   14  C   UNL     1       5.632  31.161  58.900  1.00  0.00     0.010 A 
HETATM   15  C   UNL     1       4.663  32.177  58.887  1.00  0.00     0.030 A 
HETATM   16  C   UNL     1       4.222  32.727  57.687  1.00  0.00     0.034 A 
HETATM   17  C   UNL     1       4.764  32.226  56.495  1.00  0.00     0.030 A 
HETATM   18  C   UNL     1       5.721  31.208  56.503  1.00  0.00     0.010 A 
BRANCH  16  19
HETATM   19  N   UNL     1       3.262  33.744  57.542  1.00  0.00    -0.328 N 
HETATM   20  C   UNL     1       3.310  35.093  57.373  1.00  0.00     0.218 C 
HETATM   21  C   UNL     1       4.607  35.837  57.278  1.00  0.00     0.117 C 
HETATM   22  O   UNL     1       2.240  35.703  57.296  1.00  0.00    -0.274 OA
HETATM   23  H   UNL     1       2.294  33.442  57.562  1.00  0.00     0.169 HD
ENDBRANCH  16  19
ENDBRANCH   1  13
BRANCH   5  24
HETATM   24  N   UNL     1       7.936  27.651  54.505  1.00  0.00    -0.282 NA
HETATM   25  H   UNL     1       8.744  27.048  54.374  1.00  0.00     0.126 HD
HETATM   26  H   UNL     1       7.053  27.147  54.462  1.00  0.00     0.126 HD
ENDBRANCH   5  24
BRANCH  12  27
HETATM   27  C   UNL     1       8.925  31.349  60.064  1.00  0.00    -0.005 A 
HETATM   28  C   UNL     1       9.110  30.482  61.150  1.00  0.00     0.014 A 
HETATM   29  C   UNL     1       8.754  30.875  62.443  1.00  0.00     0.001 A 
HETATM   30  C   UNL     1       8.204  32.135  62.661  1.00  0.00     0.000 A 
HETATM   31  C   UNL     1       8.001  33.002  61.588  1.00  0.00     0.001 A 
HETATM   32  C   UNL     1       8.355  32.609  60.294  1.00  0.00     0.014 A 
ENDBRANCH  12  27
TORSDOF 4
ENDMDL
MODEL 8
REMARK VINA RESULT:      -7.9      4.154      8.273
REMARK  4 active torsions:
REMARK  status: ('A' for Active; 'I' for Inactive)
REMARK       I    between atoms: C_2  and  N_3 
REMARK    1  A    between atoms: N_3  and  C_4 
REMARK    2  A    between atoms: C_7  and  C_8 
REMARK    3  A    between atoms: C_12  and  N_13 
REMARK    4  A    between atoms: C_20  and  C_21 
ROOT
HETATM    1  C   UNL     1       4.688  33.773  60.461  1.00  0.00     0.105 C 
HETATM    2  C   UNL     1       3.444  34.535  60.910  1.00  0.00     0.067 C 
HETATM    3  C   UNL     1       3.126  35.800  60.130  1.00  0.00     0.020 C 
HETATM    4  N   UNL     1       2.861  36.848  59.481  1.00  0.00    -0.096 N 
HETATM    5  C   UNL     1       2.736  34.223  62.029  1.00  0.00     0.139 C 
HETATM    6  O   UNL     1       3.116  33.157  62.866  1.00  0.00    -0.279 OA
HETATM    7  C   UNL     1       4.289  32.592  62.596  1.00  0.00     0.175 A 
HETATM    8  C   UNL     1       5.111  32.816  61.521  1.00  0.00     0.040 A 
HETATM    9  N   UNL     1       4.906  31.674  63.377  1.00  0.00    -0.256 N 
HETATM   10  H   UNL     1       4.587  31.276  64.253  1.00  0.00     0.191 HD
HETATM   11  N   UNL     1       6.099  31.290  62.885  1.00  0.00    -0.172 NA
HETATM   12  C   UNL     1       6.259  32.014  61.758  1.00  0.00     0.099 A 
ENDROOT
BRANCH   1  13
HETATM   13  C   UNL     1       4.432  32.954  59.201  1.00  0.00    -0.044 A 
HETATM   14  C   UNL     1       4.886  33.429  57.962  1.00  0.00     0.010 A 
HETATM   15  C   UNL     1       4.633  32.728  56.773  1.00  0.00     0.030 A 
HETATM   16  C   UNL     1       3.922  31.531  56.788  1.00  0.00     0.034 A 
HETATM   17  C   UNL     1       3.456  31.058  58.022  1.00  0.00     0.030 A 
HETATM   18  C   UNL     1       3.697  31.759  59.207  1.00  0.00     0.010 A 
BRANCH  16  19
HETATM   19  N   UNL     1       3.605  30.740  55.670  1.00  0.00    -0.328 N 
HETATM   20  C   UNL     1       4.241  29.753  54.981  1.00  0.00     0.218 C 
HETATM   21  C   UNL     1       5.597  29.253  55.377  1.00  0.00     0.117 C 
HETATM   22  O   UNL     1       3.663  29.268  54.004  1.00  0.00    -0.274 OA
HETATM   23  H   UNL     1       2.698  30.912  55.251  1.00  0.00     0.169 HD
ENDBRANCH  16  19
ENDBRANCH   1  13
BRANCH   5  24
HETATM   24  N   UNL     1       1.628  34.898  62.485  1.00  0.00    -0.282 NA
HETATM   25  H   UNL     1       1.595  35.062  63.488  1.00  0.00     0.126 HD
HETATM   26  H   UNL     1       1.434  35.734  61.939  1.00  0.00     0.126 HD
ENDBRANCH   5  24
BRANCH  12  27
HETATM   27  C   UNL     1       7.481  31.899  60.964  1.00  0.00    -0.005 A 
HETATM   28  C   UNL     1       8.725  32.171  61.548  1.00  0.00     0.014 A 
HETATM   29  C   UNL     1       9.900  32.071  60.799  1.00  0.00     0.001 A 
HETATM   30  C   UNL     1       9.842  31.704  59.457  1.00  0.00     0.000 A 
HETATM   31  C   UNL     1       8.609  31.445  58.859  1.00  0.00     0.001 A 
HETATM   32  C   UNL     1       7.433  31.548  59.607  1.00  0.00     0.014 A 
ENDBRANCH  12  27
TORSDOF 4
ENDMDL
MODEL 9
REMARK VINA RESULT:      -7.8      4.206      6.461
REMARK  4 active torsions:
REMARK  status: ('A' for Active; 'I' for Inactive)
REMARK       I    between atoms: C_2  and  N_3 
REMARK    1  A    between atoms: N_3  and  C_4 
REMARK    2  A    between atoms: C_7  and  C_8 
REMARK    3  A    between atoms: C_12  and  N_13 
REMARK    4  A    between atoms: C_20  and  C_21 
ROOT
HETATM    1  C   UNL     1       7.363  30.847  58.000  1.00  0.00     0.105 C 
HETATM    2  C   UNL     1       8.309  29.674  57.758  1.00  0.00     0.067 C 
HETATM    3  C   UNL     1       9.775  30.032  57.581  1.00  0.00     0.020 C 
HETATM    4  N   UNL     1      10.992  30.329  57.436  1.00  0.00    -0.096 N 
HETATM    5  C   UNL     1       7.884  28.398  57.550  1.00  0.00     0.139 C 
HETATM    6  O   UNL     1       6.515  28.071  57.538  1.00  0.00    -0.279 OA
HETATM    7  C   UNL     1       5.670  29.097  57.568  1.00  0.00     0.175 A 
HETATM    8  C   UNL     1       5.955  30.426  57.756  1.00  0.00     0.040 A 
HETATM    9  N   UNL     1       4.330  29.004  57.395  1.00  0.00    -0.256 N 
HETATM   10  H   UNL     1       3.772  28.174  57.229  1.00  0.00     0.191 HD
HETATM   11  N   UNL     1       3.715  30.201  57.442  1.00  0.00    -0.172 NA
HETATM   12  C   UNL     1       4.708  31.095  57.626  1.00  0.00     0.099 A 
ENDROOT
BRANCH   1  13
HETATM   13  C   UNL     1       7.432  31.351  59.435  1.00  0.00    -0.044 A 
HETATM   14  C   UNL     1       6.841  32.579  59.768  1.00  0.00     0.010 A 
HETATM   15  C   UNL     1       6.921  33.100  61.069  1.00  0.00     0.030 A 
HETATM   16  C   UNL     1       7.592  32.410  62.075  1.00  0.00     0.034 A 
HETATM   17  C   UNL     1       8.194  31.189  61.745  1.00  0.00     0.030 A 
HETATM   18  C   UNL     1       8.126  30.671  60.448  1.00  0.00     0.010 A 
BRANCH  16  19
HETATM   19  N   UNL     1       7.741  32.825  63.410  1.00  0.00    -0.328 N 
HETATM   20  C   UNL     1       6.883  33.135  64.420  1.00  0.00     0.218 C 
HETATM   21  C   UNL     1       5.397  33.055  64.254  1.00  0.00     0.117 C 
HETATM   22  O   UNL     1       7.368  33.491  65.498  1.00  0.00    -0.274 OA
HETATM   23  H   UNL     1       8.696  32.926  63.735  1.00  0.00     0.169 HD
ENDBRANCH  16  19
ENDBRANCH   1  13
BRANCH   5  24
HETATM   24  N   UNL     1       8.698  27.317  57.303  1.00  0.00    -0.282 NA
HETATM   25  H   UNL     1       8.293  26.584  56.726  1.00  0.00     0.126 HD
HETATM   26  H   UNL     1       9.626  27.597  56.995  1.00  0.00     0.126 HD
ENDBRANCH   5  24
BRANCH  12  27
HETATM   27  C   UNL     1       4.423  32.528  57.682  1.00  0.00    -0.005 A 
HETATM   28  C   UNL     1       3.635  33.046  58.718  1.00  0.00     0.014 A 
HETATM   29  C   UNL     1       3.350  34.412  58.780  1.00  0.00     0.001 A 
HETATM   30  C   UNL     1       3.845  35.273  57.803  1.00  0.00     0.000 A 
HETATM   31  C   UNL     1       4.619  34.768  56.759  1.00  0.00     0.001 A 
HETATM   32  C   UNL     1       4.902  33.401  56.695  1.00  0.00     0.014 A 
ENDBRANCH  12  27
TORSDOF 4
ENDMDL
MODEL 10
REMARK VINA RESULT:      -7.6      3.495      5.740
REMARK  4 active torsions:
REMARK  status: ('A' for Active; 'I' for Inactive)
REMARK       I    between atoms: C_2  and  N_3 
REMARK    1  A    between atoms: N_3  and  C_4 
REMARK    2  A    between atoms: C_7  and  C_8 
REMARK    3  A    between atoms: C_12  and  N_13 
REMARK    4  A    between atoms: C_20  and  C_21 
ROOT
HETATM    1  C   UNL     1       3.686  35.495  60.760  1.00  0.00     0.105 C 
HETATM    2  C   UNL     1       3.190  35.831  59.357  1.00  0.00     0.067 C 
HETATM    3  C   UNL     1       4.128  36.673  58.507  1.00  0.00     0.020 C 
HETATM    4  N   UNL     1       4.906  37.370  57.802  1.00  0.00    -0.096 N 
HETATM    5  C   UNL     1       1.934  35.550  58.918  1.00  0.00     0.139 C 
HETATM    6  O   UNL     1       0.987  34.922  59.749  1.00  0.00    -0.279 OA
HETATM    7  C   UNL     1       1.334  34.780  61.025  1.00  0.00     0.175 A 
HETATM    8  C   UNL     1       2.550  35.034  61.607  1.00  0.00     0.040 A 
HETATM    9  N   UNL     1       0.508  34.359  62.012  1.00  0.00    -0.256 N 
HETATM   10  H   UNL     1      -0.467  34.087  61.944  1.00  0.00     0.191 HD
HETATM   11  N   UNL     1       1.106  34.337  63.217  1.00  0.00    -0.172 NA
HETATM   12  C   UNL     1       2.358  34.787  62.992  1.00  0.00     0.099 A 
ENDROOT
BRANCH   1  13
HETATM   13  C   UNL     1       4.715  34.372  60.750  1.00  0.00    -0.044 A 
HETATM   14  C   UNL     1       4.620  33.354  59.790  1.00  0.00     0.010 A 
HETATM   15  C   UNL     1       5.521  32.278  59.773  1.00  0.00     0.030 A 
HETATM   16  C   UNL     1       6.546  32.191  60.712  1.00  0.00     0.034 A 
HETATM   17  C   UNL     1       6.639  33.200  61.680  1.00  0.00     0.030 A 
HETATM   18  C   UNL     1       5.736  34.267  61.707  1.00  0.00     0.010 A 
BRANCH  16  19
HETATM   19  N   UNL     1       7.507  31.168  60.800  1.00  0.00    -0.328 N 
HETATM   20  C   UNL     1       8.715  30.934  60.218  1.00  0.00     0.218 C 
HETATM   21  C   UNL     1       9.328  31.893  59.244  1.00  0.00     0.117 C 
HETATM   22  O   UNL     1       9.307  29.893  60.519  1.00  0.00    -0.274 OA
HETATM   23  H   UNL     1       7.287  30.410  61.436  1.00  0.00     0.169 HD
ENDBRANCH  16  19
ENDBRANCH   1  13
BRANCH   5  24
HETATM   24  N   UNL     1       1.436  35.857  57.673  1.00  0.00    -0.282 NA
HETATM   25  H   UNL     1       2.000  36.497  57.119  1.00  0.00     0.126 HD
HETATM   26  H   UNL     1       1.154  35.027  57.156  1.00  0.00     0.126 HD
ENDBRANCH   5  24
BRANCH  12  27
HETATM   27  C   UNL     1       3.304  34.947  64.095  1.00  0.00    -0.005 A 
HETATM   28  C   UNL     1       3.778  36.222  64.432  1.00  0.00     0.014 A 
HETATM   29  C   UNL     1       4.688  36.389  65.480  1.00  0.00     0.001 A 
HETATM   30  C   UNL     1       5.136  35.282  66.196  1.00  0.00     0.000 A 
HETATM   31  C   UNL     1       4.684  34.006  65.861  1.00  0.00     0.001 A 
HETATM   32  C   UNL     1       3.776  33.838  64.812  1.00  0.00     0.014 A 
ENDBRANCH  12  27
TORSDOF 4
ENDMDL
