MODEL 1
REMARK VINA RESULT:      -8.8      0.000      0.000
REMARK  4 active torsions:
REMARK  status: ('A' for Active; 'I' for Inactive)
REMARK    1  A    between atoms: C_5  and  C_6 
REMARK    2  A    between atoms: C_6  and  N_7 
REMARK    3  A    between atoms: C_6  and  C_18 
REMARK    4  A    between atoms: N_7  and  C_8 
ROOT
HETATM    1  C   UNL     1       6.974  23.758  54.859  1.00  0.00     0.288 C 
ENDROOT
BRANCH   1   2
HETATM    2  C   UNL     1       7.656  22.414  54.665  1.00  0.00    -0.003 A 
HETATM    3  C   UNL     1       8.064  21.620  55.736  1.00  0.00     0.126 A 
HETATM    4  N   UNL     1       8.597  20.385  55.602  1.00  0.00    -0.272 NA
HETATM    5  C   UNL     1       8.778  19.924  54.347  1.00  0.00     0.116 A 
HETATM    6  C   UNL     1       8.420  20.632  53.214  1.00  0.00     0.020 A 
HETATM    7  C   UNL     1       7.845  21.890  53.377  1.00  0.00     0.012 A 
ENDBRANCH   1   2
BRANCH   1   8
HETATM    8  N   UNL     1       7.657  24.566  55.907  1.00  0.00     0.101 N 
HETATM    9  H   UNL     1       8.126  25.327  55.424  1.00  0.00     0.317 HD
BRANCH   8  10
HETATM   10  C   UNL     1       6.851  25.028  57.048  1.00  0.00     0.225 C 
HETATM   11  C   UNL     1       5.545  25.778  56.686  1.00  0.00     0.069 C 
HETATM   12  C   UNL     1       5.828  27.113  56.027  1.00  0.00     0.190 C 
HETATM   13  N   UNL     1       6.651  27.949  56.966  1.00  0.00    -0.067 N 
HETATM   14  C   UNL     1       4.647  28.028  55.778  1.00  0.00     0.035 C 
HETATM   15  H   UNL     1       6.147  28.014  57.862  1.00  0.00     0.280 HD
HETATM   16  C   UNL     1       7.985  27.337  57.255  1.00  0.00     0.237 C 
HETATM   17  C   UNL     1       6.630  29.336  56.377  1.00  0.00     0.235 C 
HETATM   18  C   UNL     1       7.749  25.968  57.895  1.00  0.00     0.063 C 
HETATM   19  C   UNL     1       5.315  29.390  55.593  1.00  0.00     0.030 C 
ENDBRANCH   8  10
ENDBRANCH   1   8
BRANCH   1  20
HETATM   20  C   UNL     1       6.560  24.500  53.582  1.00  0.00    -0.021 A 
HETATM   21  C   UNL     1       5.216  24.439  53.147  1.00  0.00     0.012 A 
HETATM   22  C   UNL     1       4.788  25.132  52.012  1.00  0.00     0.043 A 
HETATM   23  C   UNL     1       5.689  25.917  51.311  1.00  0.00     0.116 A 
HETATM   24  F   UNL     1       5.282  26.584  50.224  1.00  0.00    -0.206 F 
HETATM   25  C   UNL     1       7.005  26.033  51.734  1.00  0.00     0.043 A 
HETATM   26  C   UNL     1       7.434  25.341  52.871  1.00  0.00     0.012 A 
ENDBRANCH   1  20
TORSDOF 4
ENDMDL
MODEL 2
REMARK VINA RESULT:      -8.5      2.903      5.035
REMARK  4 active torsions:
REMARK  status: ('A' for Active; 'I' for Inactive)
REMARK    1  A    between atoms: C_5  and  C_6 
REMARK    2  A    between atoms: C_6  and  N_7 
REMARK    3  A    between atoms: C_6  and  C_18 
REMARK    4  A    between atoms: N_7  and  C_8 
ROOT
HETATM    1  C   UNL     1       7.675  25.403  54.846  1.00  0.00     0.288 C 
ENDROOT
BRANCH   1   2
HETATM    2  C   UNL     1       6.699  25.459  53.682  1.00  0.00    -0.003 A 
HETATM    3  C   UNL     1       7.059  25.945  52.426  1.00  0.00     0.126 A 
HETATM    4  N   UNL     1       6.244  25.933  51.347  1.00  0.00    -0.272 NA
HETATM    5  C   UNL     1       4.994  25.457  51.525  1.00  0.00     0.116 A 
HETATM    6  C   UNL     1       4.529  24.962  52.730  1.00  0.00     0.020 A 
HETATM    7  C   UNL     1       5.396  24.957  53.819  1.00  0.00     0.012 A 
ENDBRANCH   1   2
BRANCH   1   8
HETATM    8  N   UNL     1       7.293  26.362  55.920  1.00  0.00     0.101 N 
HETATM    9  H   UNL     1       8.020  26.305  56.628  1.00  0.00     0.317 HD
BRANCH   8  10
HETATM   10  C   UNL     1       6.992  27.747  55.525  1.00  0.00     0.225 C 
HETATM   11  C   UNL     1       8.210  28.605  55.105  1.00  0.00     0.069 C 
HETATM   12  C   UNL     1       9.135  28.878  56.273  1.00  0.00     0.190 C 
HETATM   13  N   UNL     1       8.357  29.588  57.346  1.00  0.00    -0.067 N 
HETATM   14  C   UNL     1      10.274  29.849  56.045  1.00  0.00     0.035 C 
HETATM   15  H   UNL     1       7.935  30.431  56.930  1.00  0.00     0.280 HD
HETATM   16  C   UNL     1       7.238  28.756  57.887  1.00  0.00     0.237 C 
HETATM   17  C   UNL     1       9.395  30.083  58.319  1.00  0.00     0.235 C 
HETATM   18  C   UNL     1       6.292  28.428  56.731  1.00  0.00     0.063 C 
HETATM   19  C   UNL     1      10.658  30.253  57.468  1.00  0.00     0.030 C 
ENDBRANCH   8  10
ENDBRANCH   1   8
BRANCH   1  20
HETATM   20  C   UNL     1       8.111  24.004  55.300  1.00  0.00    -0.021 A 
HETATM   21  C   UNL     1       7.987  23.645  56.661  1.00  0.00     0.012 A 
HETATM   22  C   UNL     1       8.335  22.369  57.111  1.00  0.00     0.043 A 
HETATM   23  C   UNL     1       8.788  21.425  56.203  1.00  0.00     0.116 A 
HETATM   24  F   UNL     1       9.120  20.201  56.629  1.00  0.00    -0.206 F 
HETATM   25  C   UNL     1       8.883  21.731  54.853  1.00  0.00     0.043 A 
HETATM   26  C   UNL     1       8.533  23.008  54.402  1.00  0.00     0.012 A 
ENDBRANCH   1  20
TORSDOF 4
ENDMDL
MODEL 3
REMARK VINA RESULT:      -8.2      2.818      5.688
REMARK  4 active torsions:
REMARK  status: ('A' for Active; 'I' for Inactive)
REMARK    1  A    between atoms: C_5  and  C_6 
REMARK    2  A    between atoms: C_6  and  N_7 
REMARK    3  A    between atoms: C_6  and  C_18 
REMARK    4  A    between atoms: N_7  and  C_8 
ROOT
HETATM    1  C   UNL     1       6.640  24.687  54.566  1.00  0.00     0.288 C 
ENDROOT
BRANCH   1   2
HETATM    2  C   UNL     1       7.197  25.706  55.547  1.00  0.00    -0.003 A 
HETATM    3  C   UNL     1       7.468  25.393  56.878  1.00  0.00     0.126 A 
HETATM    4  N   UNL     1       8.040  26.248  57.755  1.00  0.00    -0.272 NA
HETATM    5  C   UNL     1       8.321  27.491  57.310  1.00  0.00     0.116 A 
HETATM    6  C   UNL     1       8.083  27.910  56.014  1.00  0.00     0.020 A 
HETATM    7  C   UNL     1       7.520  27.002  55.120  1.00  0.00     0.012 A 
ENDBRANCH   1   2
BRANCH   1   8
HETATM    8  N   UNL     1       6.296  25.321  53.262  1.00  0.00     0.101 N 
HETATM    9  H   UNL     1       6.885  24.878  52.563  1.00  0.00     0.317 HD
BRANCH   8  10
HETATM   10  C   UNL     1       4.878  25.356  52.873  1.00  0.00     0.225 C 
HETATM   11  C   UNL     1       4.594  25.190  51.360  1.00  0.00     0.069 C 
HETATM   12  C   UNL     1       5.099  26.374  50.560  1.00  0.00     0.190 C 
HETATM   13  N   UNL     1       4.430  27.619  51.070  1.00  0.00    -0.067 N 
HETATM   14  C   UNL     1       4.735  26.425  49.091  1.00  0.00     0.035 C 
HETATM   15  H   UNL     1       3.411  27.476  51.023  1.00  0.00     0.280 HD
HETATM   16  C   UNL     1       4.769  27.907  52.498  1.00  0.00     0.237 C 
HETATM   17  C   UNL     1       4.746  28.680  50.048  1.00  0.00     0.235 C 
HETATM   18  C   UNL     1       4.305  26.720  53.342  1.00  0.00     0.063 C 
HETATM   19  C   UNL     1       4.950  27.899  48.746  1.00  0.00     0.030 C 
ENDBRANCH   8  10
ENDBRANCH   1   8
BRANCH   1  20
HETATM   20  C   UNL     1       7.368  23.338  54.501  1.00  0.00    -0.021 A 
HETATM   21  C   UNL     1       7.416  22.518  55.651  1.00  0.00     0.012 A 
HETATM   22  C   UNL     1       8.034  21.265  55.625  1.00  0.00     0.043 A 
HETATM   23  C   UNL     1       8.590  20.803  54.443  1.00  0.00     0.116 A 
HETATM   24  F   UNL     1       9.181  19.602  54.413  1.00  0.00    -0.206 F 
HETATM   25  C   UNL     1       8.524  21.564  53.285  1.00  0.00     0.043 A 
HETATM   26  C   UNL     1       7.904  22.817  53.310  1.00  0.00     0.012 A 
ENDBRANCH   1  20
TORSDOF 4
ENDMDL
MODEL 4
REMARK VINA RESULT:      -8.2      3.146      7.134
REMARK  4 active torsions:
REMARK  status: ('A' for Active; 'I' for Inactive)
REMARK    1  A    between atoms: C_5  and  C_6 
REMARK    2  A    between atoms: C_6  and  N_7 
REMARK    3  A    between atoms: C_6  and  C_18 
REMARK    4  A    between atoms: N_7  and  C_8 
ROOT
HETATM    1  C   UNL     1       7.429  27.748  57.016  1.00  0.00     0.288 C 
ENDROOT
BRANCH   1   2
HETATM    2  C   UNL     1       6.289  28.123  56.083  1.00  0.00    -0.003 A 
HETATM    3  C   UNL     1       6.438  28.165  54.697  1.00  0.00     0.126 A 
HETATM    4  N   UNL     1       5.428  28.412  53.834  1.00  0.00    -0.272 NA
HETATM    5  C   UNL     1       4.214  28.673  54.364  1.00  0.00     0.116 A 
HETATM    6  C   UNL     1       3.957  28.668  55.723  1.00  0.00     0.020 A 
HETATM    7  C   UNL     1       5.007  28.382  56.591  1.00  0.00     0.012 A 
ENDBRANCH   1   2
BRANCH   1   8
HETATM    8  N   UNL     1       8.119  26.510  56.558  1.00  0.00     0.101 N 
HETATM    9  H   UNL     1       9.115  26.681  56.660  1.00  0.00     0.317 HD
BRANCH   8  10
HETATM   10  C   UNL     1       7.698  25.233  57.154  1.00  0.00     0.225 C 
HETATM   11  C   UNL     1       8.653  24.036  56.921  1.00  0.00     0.069 C 
HETATM   12  C   UNL     1       8.695  23.626  55.463  1.00  0.00     0.190 C 
HETATM   13  N   UNL     1       7.305  23.259  55.027  1.00  0.00    -0.067 N 
HETATM   14  C   UNL     1       9.454  22.361  55.119  1.00  0.00     0.035 C 
HETATM   15  H   UNL     1       6.951  22.532  55.665  1.00  0.00     0.280 HD
HETATM   16  C   UNL     1       6.357  24.414  55.107  1.00  0.00     0.237 C 
HETATM   17  C   UNL     1       7.478  22.588  53.689  1.00  0.00     0.235 C 
HETATM   18  C   UNL     1       6.307  24.884  56.561  1.00  0.00     0.063 C 
HETATM   19  C   UNL     1       8.891  21.999  53.745  1.00  0.00     0.030 C 
ENDBRANCH   8  10
ENDBRANCH   1   8
BRANCH   1  20
HETATM   20  C   UNL     1       8.326  28.899  57.487  1.00  0.00    -0.021 A 
HETATM   21  C   UNL     1       7.897  29.724  58.552  1.00  0.00     0.012 A 
HETATM   22  C   UNL     1       8.700  30.758  59.040  1.00  0.00     0.043 A 
HETATM   23  C   UNL     1       9.954  30.966  58.488  1.00  0.00     0.116 A 
HETATM   24  F   UNL     1      10.728  31.954  58.954  1.00  0.00    -0.206 F 
HETATM   25  C   UNL     1      10.424  30.149  57.470  1.00  0.00     0.043 A 
HETATM   26  C   UNL     1       9.621  29.113  56.983  1.00  0.00     0.012 A 
ENDBRANCH   1  20
TORSDOF 4
ENDMDL
MODEL 5
REMARK VINA RESULT:      -8.1      1.803      2.604
REMARK  4 active torsions:
REMARK  status: ('A' for Active; 'I' for Inactive)
REMARK    1  A    between atoms: C_5  and  C_6 
REMARK    2  A    between atoms: C_6  and  N_7 
REMARK    3  A    between atoms: C_6  and  C_18 
REMARK    4  A    between atoms: N_7  and  C_8 
ROOT
HETATM    1  C   UNL     1       6.754  24.966  55.378  1.00  0.00     0.288 C 
ENDROOT
BRANCH   1   2
HETATM    2  C   UNL     1       7.423  23.644  55.718  1.00  0.00    -0.003 A 
HETATM    3  C   UNL     1       7.971  23.384  56.974  1.00  0.00     0.126 A 
HETATM    4  N   UNL     1       8.498  22.194  57.338  1.00  0.00    -0.272 NA
HETATM    5  C   UNL     1       8.525  21.220  56.403  1.00  0.00     0.116 A 
HETATM    6  C   UNL     1       8.020  21.374  55.125  1.00  0.00     0.020 A 
HETATM    7  C   UNL     1       7.456  22.600  54.782  1.00  0.00     0.012 A 
ENDBRANCH   1   2
BRANCH   1   8
HETATM    8  N   UNL     1       7.442  26.109  56.043  1.00  0.00     0.101 N 
HETATM    9  H   UNL     1       8.437  25.977  55.885  1.00  0.00     0.317 HD
BRANCH   8  10
HETATM   10  C   UNL     1       6.988  27.467  55.710  1.00  0.00     0.225 C 
HETATM   11  C   UNL     1       8.075  28.420  55.154  1.00  0.00     0.069 C 
HETATM   12  C   UNL     1       9.116  28.757  56.201  1.00  0.00     0.190 C 
HETATM   13  N   UNL     1       8.429  29.399  57.374  1.00  0.00    -0.067 N 
HETATM   14  C   UNL     1      10.141  29.815  55.846  1.00  0.00     0.035 C 
HETATM   15  H   UNL     1       7.895  30.209  57.027  1.00  0.00     0.280 HD
HETATM   16  C   UNL     1       7.453  28.479  58.038  1.00  0.00     0.237 C 
HETATM   17  C   UNL     1       9.541  29.967  58.217  1.00  0.00     0.235 C 
HETATM   18  C   UNL     1       6.397  28.085  57.005  1.00  0.00     0.063 C 
HETATM   19  C   UNL     1      10.669  30.239  57.217  1.00  0.00     0.030 C 
ENDBRANCH   8  10
ENDBRANCH   1   8
BRANCH   1  20
HETATM   20  C   UNL     1       6.355  25.167  53.911  1.00  0.00    -0.021 A 
HETATM   21  C   UNL     1       4.985  25.201  53.562  1.00  0.00     0.012 A 
HETATM   22  C   UNL     1       4.576  25.421  52.244  1.00  0.00     0.043 A 
HETATM   23  C   UNL     1       5.528  25.637  51.261  1.00  0.00     0.116 A 
HETATM   24  F   UNL     1       5.140  25.850  49.998  1.00  0.00    -0.206 F 
HETATM   25  C   UNL     1       6.880  25.651  51.575  1.00  0.00     0.043 A 
HETATM   26  C   UNL     1       7.289  25.432  52.894  1.00  0.00     0.012 A 
ENDBRANCH   1  20
TORSDOF 4
ENDMDL
MODEL 6
REMARK VINA RESULT:      -7.8      2.741      5.255
REMARK  4 active torsions:
REMARK  status: ('A' for Active; 'I' for Inactive)
REMARK    1  A    between atoms: C_5  and  C_6 
REMARK    2  A    between atoms: C_6  and  N_7 
REMARK    3  A    between atoms: C_6  and  C_18 
REMARK    4  A    between atoms: N_7  and  C_8 
ROOT
HETATM    1  C   UNL     1       5.730  26.710  52.993  1.00  0.00     0.288 C 
ENDROOT
BRANCH   1   2
HETATM    2  C   UNL     1       5.318  26.989  51.557  1.00  0.00    -0.003 A 
HETATM    3  C   UNL     1       5.469  28.242  50.965  1.00  0.00     0.126 A 
HETATM    4  N   UNL     1       5.191  28.505  49.668  1.00  0.00    -0.272 NA
HETATM    5  C   UNL     1       4.698  27.491  48.926  1.00  0.00     0.116 A 
HETATM    6  C   UNL     1       4.498  26.213  49.415  1.00  0.00     0.020 A 
HETATM    7  C   UNL     1       4.819  25.959  50.746  1.00  0.00     0.012 A 
ENDBRANCH   1   2
BRANCH   1   8
HETATM    8  N   UNL     1       4.637  27.050  53.947  1.00  0.00     0.101 N 
HETATM    9  H   UNL     1       4.598  26.292  54.622  1.00  0.00     0.317 HD
BRANCH   8  10
HETATM   10  C   UNL     1       4.672  28.376  54.582  1.00  0.00     0.225 C 
HETATM   11  C   UNL     1       6.056  29.070  54.611  1.00  0.00     0.069 C 
HETATM   12  C   UNL     1       7.033  28.340  55.510  1.00  0.00     0.190 C 
HETATM   13  N   UNL     1       6.461  28.287  56.899  1.00  0.00    -0.067 N 
HETATM   14  C   UNL     1       8.369  29.003  55.767  1.00  0.00     0.035 C 
HETATM   15  H   UNL     1       6.249  29.251  57.193  1.00  0.00     0.280 HD
HETATM   16  C   UNL     1       5.181  27.516  56.961  1.00  0.00     0.237 C 
HETATM   17  C   UNL     1       7.599  27.828  57.773  1.00  0.00     0.235 C 
HETATM   18  C   UNL     1       4.171  28.201  56.040  1.00  0.00     0.063 C 
HETATM   19  C   UNL     1       8.855  28.294  57.031  1.00  0.00     0.030 C 
ENDBRANCH   8  10
ENDBRANCH   1   8
BRANCH   1  20
HETATM   20  C   UNL     1       6.471  25.391  53.243  1.00  0.00    -0.021 A 
HETATM   21  C   UNL     1       7.437  24.949  52.310  1.00  0.00     0.012 A 
HETATM   22  C   UNL     1       8.165  23.775  52.518  1.00  0.00     0.043 A 
HETATM   23  C   UNL     1       7.956  23.038  53.673  1.00  0.00     0.116 A 
HETATM   24  F   UNL     1       8.652  21.913  53.877  1.00  0.00    -0.206 F 
HETATM   25  C   UNL     1       7.045  23.464  54.630  1.00  0.00     0.043 A 
HETATM   26  C   UNL     1       6.318  24.641  54.422  1.00  0.00     0.012 A 
ENDBRANCH   1  20
TORSDOF 4
ENDMDL
MODEL 7
REMARK VINA RESULT:      -7.8      2.362      4.382
REMARK  4 active torsions:
REMARK  status: ('A' for Active; 'I' for Inactive)
REMARK    1  A    between atoms: C_5  and  C_6 
REMARK    2  A    between atoms: C_6  and  N_7 
REMARK    3  A    between atoms: C_6  and  C_18 
REMARK    4  A    between atoms: N_7  and  C_8 
ROOT
HETATM    1  C   UNL     1       7.859  24.863  54.051  1.00  0.00     0.288 C 
ENDROOT
BRANCH   1   2
HETATM    2  C   UNL     1       6.762  25.229  53.065  1.00  0.00    -0.003 A 
HETATM    3  C   UNL     1       6.829  26.364  52.258  1.00  0.00     0.126 A 
HETATM    4  N   UNL     1       5.914  26.677  51.314  1.00  0.00    -0.272 NA
HETATM    5  C   UNL     1       4.854  25.851  51.185  1.00  0.00     0.116 A 
HETATM    6  C   UNL     1       4.683  24.705  51.940  1.00  0.00     0.020 A 
HETATM    7  C   UNL     1       5.654  24.388  52.887  1.00  0.00     0.012 A 
ENDBRANCH   1   2
BRANCH   1   8
HETATM    8  N   UNL     1       7.846  25.765  55.237  1.00  0.00     0.101 N 
HETATM    9  H   UNL     1       7.845  26.714  54.875  1.00  0.00     0.317 HD
BRANCH   8  10
HETATM   10  C   UNL     1       6.808  25.543  56.254  1.00  0.00     0.225 C 
HETATM   11  C   UNL     1       5.434  26.197  55.964  1.00  0.00     0.069 C 
HETATM   12  C   UNL     1       5.510  27.710  56.016  1.00  0.00     0.190 C 
HETATM   13  N   UNL     1       5.993  28.121  57.379  1.00  0.00    -0.067 N 
HETATM   14  C   UNL     1       4.206  28.474  55.924  1.00  0.00     0.035 C 
HETATM   15  H   UNL     1       5.366  27.701  58.080  1.00  0.00     0.280 HD
HETATM   16  C   UNL     1       7.374  27.624  57.670  1.00  0.00     0.237 C 
HETATM   17  C   UNL     1       5.755  29.607  57.447  1.00  0.00     0.235 C 
HETATM   18  C   UNL     1       7.353  26.097  57.597  1.00  0.00     0.063 C 
HETATM   19  C   UNL     1       4.583  29.843  56.490  1.00  0.00     0.030 C 
ENDBRANCH   8  10
ENDBRANCH   1   8
BRANCH   1  20
HETATM   20  C   UNL     1       8.050  23.367  54.330  1.00  0.00    -0.021 A 
HETATM   21  C   UNL     1       7.807  22.866  55.629  1.00  0.00     0.012 A 
HETATM   22  C   UNL     1       7.929  21.504  55.918  1.00  0.00     0.043 A 
HETATM   23  C   UNL     1       8.271  20.620  54.907  1.00  0.00     0.116 A 
HETATM   24  F   UNL     1       8.388  19.315  55.179  1.00  0.00    -0.206 F 
HETATM   25  C   UNL     1       8.477  21.072  53.611  1.00  0.00     0.043 A 
HETATM   26  C   UNL     1       8.352  22.434  53.322  1.00  0.00     0.012 A 
ENDBRANCH   1  20
TORSDOF 4
ENDMDL
MODEL 8
REMARK VINA RESULT:      -7.7      1.931      5.922
REMARK  4 active torsions:
REMARK  status: ('A' for Active; 'I' for Inactive)
REMARK    1  A    between atoms: C_5  and  C_6 
REMARK    2  A    between atoms: C_6  and  N_7 
REMARK    3  A    between atoms: C_6  and  C_18 
REMARK    4  A    between atoms: N_7  and  C_8 
ROOT
HETATM    1  C   UNL     1       7.423  27.224  54.268  1.00  0.00     0.288 C 
ENDROOT
BRANCH   1   2
HETATM    2  C   UNL     1       7.722  27.861  55.615  1.00  0.00    -0.003 A 
HETATM    3  C   UNL     1       7.509  27.196  56.821  1.00  0.00     0.126 A 
HETATM    4  N   UNL     1       7.840  27.699  58.032  1.00  0.00    -0.272 NA
HETATM    5  C   UNL     1       8.370  28.940  58.059  1.00  0.00     0.116 A 
HETATM    6  C   UNL     1       8.613  29.692  56.924  1.00  0.00     0.020 A 
HETATM    7  C   UNL     1       8.291  29.141  55.687  1.00  0.00     0.012 A 
ENDBRANCH   1   2
BRANCH   1   8
HETATM    8  N   UNL     1       7.790  25.780  54.258  1.00  0.00     0.101 N 
HETATM    9  H   UNL     1       8.508  25.661  54.967  1.00  0.00     0.317 HD
BRANCH   8  10
HETATM   10  C   UNL     1       6.702  24.797  54.380  1.00  0.00     0.225 C 
HETATM   11  C   UNL     1       6.822  23.807  55.564  1.00  0.00     0.069 C 
HETATM   12  C   UNL     1       7.992  22.860  55.389  1.00  0.00     0.190 C 
HETATM   13  N   UNL     1       7.806  22.099  54.106  1.00  0.00    -0.067 N 
HETATM   14  C   UNL     1       8.124  21.727  56.385  1.00  0.00     0.035 C 
HETATM   15  H   UNL     1       6.885  21.638  54.138  1.00  0.00     0.280 HD
HETATM   16  C   UNL     1       7.810  22.992  52.906  1.00  0.00     0.237 C 
HETATM   17  C   UNL     1       8.826  20.991  54.157  1.00  0.00     0.235 C 
HETATM   18  C   UNL     1       6.661  23.990  53.055  1.00  0.00     0.063 C 
HETATM   19  C   UNL     1       9.039  20.746  55.654  1.00  0.00     0.030 C 
ENDBRANCH   8  10
ENDBRANCH   1   8
BRANCH   1  20
HETATM   20  C   UNL     1       6.081  27.594  53.623  1.00  0.00    -0.021 A 
HETATM   21  C   UNL     1       5.020  28.047  54.439  1.00  0.00     0.012 A 
HETATM   22  C   UNL     1       3.794  28.433  53.890  1.00  0.00     0.043 A 
HETATM   23  C   UNL     1       3.621  28.397  52.516  1.00  0.00     0.116 A 
HETATM   24  F   UNL     1       2.449  28.767  51.985  1.00  0.00    -0.206 F 
HETATM   25  C   UNL     1       4.655  27.997  51.682  1.00  0.00     0.043 A 
HETATM   26  C   UNL     1       5.882  27.612  52.232  1.00  0.00     0.012 A 
ENDBRANCH   1  20
TORSDOF 4
ENDMDL
MODEL 9
REMARK VINA RESULT:      -7.6      7.443     12.031
REMARK  4 active torsions:
REMARK  status: ('A' for Active; 'I' for Inactive)
REMARK    1  A    between atoms: C_5  and  C_6 
REMARK    2  A    between atoms: C_6  and  N_7 
REMARK    3  A    between atoms: C_6  and  C_18 
REMARK    4  A    between atoms: N_7  and  C_8 
ROOT
HETATM    1  C   UNL     1       5.179  32.327  61.914  1.00  0.00     0.288 C 
ENDROOT
BRANCH   1   2
HETATM    2  C   UNL     1       4.351  33.330  61.127  1.00  0.00    -0.003 A 
HETATM    3  C   UNL     1       3.207  32.965  60.419  1.00  0.00     0.126 A 
HETATM    4  N   UNL     1       2.402  33.842  59.778  1.00  0.00    -0.272 NA
HETATM    5  C   UNL     1       2.766  35.142  59.799  1.00  0.00     0.116 A 
HETATM    6  C   UNL     1       3.886  35.611  60.461  1.00  0.00     0.020 A 
HETATM    7  C   UNL     1       4.683  34.693  61.139  1.00  0.00     0.012 A 
ENDBRANCH   1   2
BRANCH   1   8
HETATM    8  N   UNL     1       6.137  31.604  61.031  1.00  0.00     0.101 N 
HETATM    9  H   UNL     1       5.672  30.747  60.744  1.00  0.00     0.317 HD
BRANCH   8  10
HETATM   10  C   UNL     1       6.716  32.343  59.900  1.00  0.00     0.225 C 
HETATM   11  C   UNL     1       6.299  31.850  58.492  1.00  0.00     0.069 C 
HETATM   12  C   UNL     1       6.851  30.471  58.193  1.00  0.00     0.190 C 
HETATM   13  N   UNL     1       8.350  30.521  58.292  1.00  0.00    -0.067 N 
HETATM   14  C   UNL     1       6.666  29.939  56.788  1.00  0.00     0.035 C 
HETATM   15  H   UNL     1       8.687  31.262  57.660  1.00  0.00     0.280 HD
HETATM   16  C   UNL     1       8.821  30.869  59.669  1.00  0.00     0.237 C 
HETATM   17  C   UNL     1       8.825  29.221  57.697  1.00  0.00     0.235 C 
HETATM   18  C   UNL     1       8.259  32.245  60.027  1.00  0.00     0.063 C 
HETATM   19  C   UNL     1       7.719  28.834  56.710  1.00  0.00     0.030 C 
ENDBRANCH   8  10
ENDBRANCH   1   8
BRANCH   1  20
HETATM   20  C   UNL     1       5.720  32.805  63.267  1.00  0.00    -0.021 A 
HETATM   21  C   UNL     1       7.116  32.933  63.451  1.00  0.00     0.012 A 
HETATM   22  C   UNL     1       7.650  33.403  64.654  1.00  0.00     0.043 A 
HETATM   23  C   UNL     1       6.797  33.775  65.680  1.00  0.00     0.116 A 
HETATM   24  F   UNL     1       7.304  34.228  66.833  1.00  0.00    -0.206 F 
HETATM   25  C   UNL     1       5.421  33.701  65.519  1.00  0.00     0.043 A 
HETATM   26  C   UNL     1       4.886  33.233  64.315  1.00  0.00     0.012 A 
ENDBRANCH   1  20
TORSDOF 4
ENDMDL
MODEL 10
REMARK VINA RESULT:      -7.6      3.185      5.668
REMARK  4 active torsions:
REMARK  status: ('A' for Active; 'I' for Inactive)
REMARK    1  A    between atoms: C_5  and  C_6 
REMARK    2  A    between atoms: C_6  and  N_7 
REMARK    3  A    between atoms: C_6  and  C_18 
REMARK    4  A    between atoms: N_7  and  C_8 
ROOT
HETATM    1  C   UNL     1       7.448  26.866  53.865  1.00  0.00     0.288 C 
ENDROOT
BRANCH   1   2
HETATM    2  C   UNL     1       7.537  25.353  53.989  1.00  0.00    -0.003 A 
HETATM    3  C   UNL     1       7.131  24.670  55.134  1.00  0.00     0.126 A 
HETATM    4  N   UNL     1       7.118  23.323  55.248  1.00  0.00    -0.272 NA
HETATM    5  C   UNL     1       7.568  22.611  54.194  1.00  0.00     0.116 A 
HETATM    6  C   UNL     1       8.005  23.187  53.014  1.00  0.00     0.020 A 
HETATM    7  C   UNL     1       7.981  24.575  52.909  1.00  0.00     0.012 A 
ENDBRANCH   1   2
BRANCH   1   8
HETATM    8  N   UNL     1       6.525  27.266  52.766  1.00  0.00     0.101 N 
HETATM    9  H   UNL     1       7.069  27.236  51.909  1.00  0.00     0.317 HD
BRANCH   8  10
HETATM   10  C   UNL     1       5.245  26.550  52.654  1.00  0.00     0.225 C 
HETATM   11  C   UNL     1       4.976  25.867  51.290  1.00  0.00     0.069 C 
HETATM   12  C   UNL     1       4.790  26.882  50.180  1.00  0.00     0.190 C 
HETATM   13  N   UNL     1       3.637  27.778  50.536  1.00  0.00    -0.067 N 
HETATM   14  C   UNL     1       4.349  26.359  48.829  1.00  0.00     0.035 C 
HETATM   15  H   UNL     1       2.814  27.185  50.714  1.00  0.00     0.280 HD
HETATM   16  C   UNL     1       3.890  28.566  51.782  1.00  0.00     0.237 C 
HETATM   17  C   UNL     1       3.332  28.542  49.274  1.00  0.00     0.235 C 
HETATM   18  C   UNL     1       4.117  27.579  52.928  1.00  0.00     0.063 C 
HETATM   19  C   UNL     1       3.801  27.614  48.150  1.00  0.00     0.030 C 
ENDBRANCH   8  10
ENDBRANCH   1   8
BRANCH   1  20
HETATM   20  C   UNL     1       7.331  27.649  55.178  1.00  0.00    -0.021 A 
HETATM   21  C   UNL     1       8.349  28.561  55.536  1.00  0.00     0.012 A 
HETATM   22  C   UNL     1       8.264  29.325  56.704  1.00  0.00     0.043 A 
HETATM   23  C   UNL     1       7.148  29.206  57.516  1.00  0.00     0.116 A 
HETATM   24  F   UNL     1       7.062  29.937  58.635  1.00  0.00    -0.206 F 
HETATM   25  C   UNL     1       6.111  28.350  57.174  1.00  0.00     0.043 A 
HETATM   26  C   UNL     1       6.196  27.588  56.005  1.00  0.00     0.012 A 
ENDBRANCH   1  20
TORSDOF 4
ENDMDL
