MODEL 1
REMARK VINA RESULT:      -9.8      0.000      0.000
REMARK  5 active torsions:
REMARK  status: ('A' for Active; 'I' for Inactive)
REMARK    1  A    between atoms: C_2  and  N_3 
REMARK    2  A    between atoms: C_2  and  C_14 
REMARK       I    between atoms: N_3  and  C_4 
REMARK       I    between atoms: C_4  and  N_5 
REMARK    3  A    between atoms: N_5  and  C_6 
REMARK    4  A    between atoms: C_6  and  C_7 
REMARK    5  A    between atoms: C_16  and  C_17 
ROOT
HETATM    1  C   UNL     1       6.307  29.387  55.890  1.00  0.00     0.041 C 
HETATM    2  C   UNL     1       7.425  28.775  56.725  1.00  0.00     0.153 C 
ENDROOT
BRANCH   2   3
HETATM    3  N   UNL     1       7.289  29.192  58.117  1.00  0.00    -0.332 N 
HETATM    4  C   UNL     1       8.271  29.908  58.748  1.00  0.00     0.317 C 
HETATM    5  N   UNL     1       7.959  30.174  60.048  1.00  0.00    -0.339 N 
HETATM    6  O   UNL     1       9.316  30.233  58.198  1.00  0.00    -0.247 OA
HETATM    7  H   UNL     1       6.989  30.118  60.317  1.00  0.00     0.164 HD
HETATM    8  H   UNL     1       6.693  28.629  58.706  1.00  0.00     0.165 HD
BRANCH   5   9
HETATM    9  C   UNL     1       8.825  30.963  60.897  1.00  0.00     0.162 C 
BRANCH   9  10
HETATM   10  C   UNL     1       8.031  31.949  61.717  1.00  0.00    -0.040 A 
HETATM   11  C   UNL     1       7.031  32.735  61.126  1.00  0.00     0.009 A 
HETATM   12  C   UNL     1       6.300  33.646  61.890  1.00  0.00     0.001 A 
HETATM   13  C   UNL     1       6.563  33.785  63.252  1.00  0.00     0.000 A 
HETATM   14  C   UNL     1       7.560  33.014  63.850  1.00  0.00     0.001 A 
HETATM   15  C   UNL     1       8.291  32.102  63.087  1.00  0.00     0.009 A 
ENDBRANCH   9  10
ENDBRANCH   5   9
ENDBRANCH   2   3
BRANCH   2  16
HETATM   16  C   UNL     1       7.435  27.281  56.628  1.00  0.00     0.145 A 
HETATM   17  N   UNL     1       7.519  26.510  55.563  1.00  0.00    -0.210 NA
HETATM   18  C   UNL     1       7.594  25.232  56.080  1.00  0.00     0.181 A 
HETATM   19  N   UNL     1       7.524  25.187  57.419  1.00  0.00    -0.152 NA
HETATM   20  N   UNL     1       7.424  26.486  57.741  1.00  0.00    -0.261 N 
HETATM   21  H   UNL     1       7.338  26.776  58.713  1.00  0.00     0.190 HD
BRANCH  18  22
HETATM   22  C   UNL     1       7.760  24.053  55.231  1.00  0.00     0.014 A 
HETATM   23  C   UNL     1       7.837  24.188  53.837  1.00  0.00     0.017 A 
HETATM   24  C   UNL     1       8.010  23.066  53.020  1.00  0.00     0.025 A 
HETATM   25  C   UNL     1       8.111  21.800  53.593  1.00  0.00     0.034 A 
HETATM   26 CL   UNL     1       8.325  20.420  52.588  1.00  0.00    -0.084 Cl
HETATM   27  C   UNL     1       8.038  21.646  54.975  1.00  0.00     0.025 A 
HETATM   28  C   UNL     1       7.863  22.770  55.791  1.00  0.00     0.017 A 
ENDBRANCH  18  22
ENDBRANCH   2  16
TORSDOF 5
ENDMDL
MODEL 2
REMARK VINA RESULT:      -9.6      3.970      9.972
REMARK  5 active torsions:
REMARK  status: ('A' for Active; 'I' for Inactive)
REMARK    1  A    between atoms: C_2  and  N_3 
REMARK    2  A    between atoms: C_2  and  C_14 
REMARK       I    between atoms: N_3  and  C_4 
REMARK       I    between atoms: C_4  and  N_5 
REMARK    3  A    between atoms: N_5  and  C_6 
REMARK    4  A    between atoms: C_6  and  C_7 
REMARK    5  A    between atoms: C_16  and  C_17 
ROOT
HETATM    1  C   UNL     1      10.804  29.379  56.695  1.00  0.00     0.041 C 
HETATM    2  C   UNL     1       9.340  29.531  57.091  1.00  0.00     0.153 C 
ENDROOT
BRANCH   2   3
HETATM    3  N   UNL     1       8.810  28.246  57.537  1.00  0.00    -0.332 N 
HETATM    4  C   UNL     1       7.838  27.590  56.831  1.00  0.00     0.317 C 
HETATM    5  N   UNL     1       7.466  26.424  57.430  1.00  0.00    -0.339 N 
HETATM    6  O   UNL     1       7.349  28.035  55.800  1.00  0.00    -0.247 OA
HETATM    7  H   UNL     1       8.104  26.016  58.096  1.00  0.00     0.164 HD
HETATM    8  H   UNL     1       8.858  28.052  58.526  1.00  0.00     0.165 HD
BRANCH   5   9
HETATM    9  C   UNL     1       6.490  25.535  56.837  1.00  0.00     0.162 C 
BRANCH   9  10
HETATM   10  C   UNL     1       7.134  24.612  55.833  1.00  0.00    -0.040 A 
HETATM   11  C   UNL     1       6.599  24.467  54.545  1.00  0.00     0.009 A 
HETATM   12  C   UNL     1       7.199  23.610  53.621  1.00  0.00     0.001 A 
HETATM   13  C   UNL     1       8.337  22.886  53.975  1.00  0.00     0.000 A 
HETATM   14  C   UNL     1       8.874  23.018  55.255  1.00  0.00     0.001 A 
HETATM   15  C   UNL     1       8.275  23.874  56.180  1.00  0.00     0.009 A 
ENDBRANCH   9  10
ENDBRANCH   5   9
ENDBRANCH   2   3
BRANCH   2  16
HETATM   16  C   UNL     1       9.159  30.567  58.156  1.00  0.00     0.145 A 
HETATM   17  N   UNL     1       8.266  30.630  59.123  1.00  0.00    -0.210 NA
HETATM   18  C   UNL     1       8.647  31.733  59.860  1.00  0.00     0.181 A 
HETATM   19  N   UNL     1       9.720  32.370  59.364  1.00  0.00    -0.152 NA
HETATM   20  N   UNL     1      10.023  31.618  58.294  1.00  0.00    -0.261 N 
HETATM   21  H   UNL     1      10.805  31.866  57.690  1.00  0.00     0.190 HD
BRANCH  18  22
HETATM   22  C   UNL     1       7.950  32.138  61.080  1.00  0.00     0.014 A 
HETATM   23  C   UNL     1       8.607  32.095  62.319  1.00  0.00     0.017 A 
HETATM   24  C   UNL     1       7.952  32.493  63.489  1.00  0.00     0.025 A 
HETATM   25  C   UNL     1       6.634  32.942  63.426  1.00  0.00     0.034 A 
HETATM   26 CL   UNL     1       5.828  33.434  64.864  1.00  0.00    -0.084 Cl
HETATM   27  C   UNL     1       5.966  32.994  62.205  1.00  0.00     0.025 A 
HETATM   28  C   UNL     1       6.623  32.593  61.036  1.00  0.00     0.017 A 
ENDBRANCH  18  22
ENDBRANCH   2  16
TORSDOF 5
ENDMDL
MODEL 3
REMARK VINA RESULT:      -9.4      1.686      2.366
REMARK  5 active torsions:
REMARK  status: ('A' for Active; 'I' for Inactive)
REMARK    1  A    between atoms: C_2  and  N_3 
REMARK    2  A    between atoms: C_2  and  C_14 
REMARK       I    between atoms: N_3  and  C_4 
REMARK       I    between atoms: C_4  and  N_5 
REMARK    3  A    between atoms: N_5  and  C_6 
REMARK    4  A    between atoms: C_6  and  C_7 
REMARK    5  A    between atoms: C_16  and  C_17 
ROOT
HETATM    1  C   UNL     1       5.635  31.000  57.100  1.00  0.00     0.041 C 
HETATM    2  C   UNL     1       7.021  30.439  57.396  1.00  0.00     0.153 C 
ENDROOT
BRANCH   2   3
HETATM    3  N   UNL     1       7.178  30.237  58.833  1.00  0.00    -0.332 N 
HETATM    4  C   UNL     1       7.885  31.119  59.606  1.00  0.00     0.317 C 
HETATM    5  N   UNL     1       7.932  30.735  60.912  1.00  0.00    -0.339 N 
HETATM    6  O   UNL     1       8.432  32.114  59.148  1.00  0.00    -0.247 OA
HETATM    7  H   UNL     1       7.235  30.080  61.232  1.00  0.00     0.164 HD
HETATM    8  H   UNL     1       7.123  29.287  59.169  1.00  0.00     0.165 HD
BRANCH   5   9
HETATM    9  C   UNL     1       8.581  31.540  61.925  1.00  0.00     0.162 C 
BRANCH   9  10
HETATM   10  C   UNL     1       7.571  32.153  62.862  1.00  0.00    -0.040 A 
HETATM   11  C   UNL     1       6.197  31.948  62.672  1.00  0.00     0.009 A 
HETATM   12  C   UNL     1       5.268  32.519  63.544  1.00  0.00     0.001 A 
HETATM   13  C   UNL     1       5.702  33.303  64.612  1.00  0.00     0.000 A 
HETATM   14  C   UNL     1       7.065  33.518  64.807  1.00  0.00     0.001 A 
HETATM   15  C   UNL     1       7.995  32.948  63.937  1.00  0.00     0.009 A 
ENDBRANCH   9  10
ENDBRANCH   5   9
ENDBRANCH   2   3
BRANCH   2  16
HETATM   16  C   UNL     1       7.269  29.159  56.661  1.00  0.00     0.145 A 
HETATM   17  N   UNL     1       7.474  27.945  57.133  1.00  0.00    -0.210 NA
HETATM   18  C   UNL     1       7.530  27.152  56.005  1.00  0.00     0.181 A 
HETATM   19  N   UNL     1       7.400  27.835  54.857  1.00  0.00    -0.152 NA
HETATM   20  N   UNL     1       7.238  29.094  55.295  1.00  0.00    -0.261 N 
HETATM   21  H   UNL     1       7.126  29.863  54.637  1.00  0.00     0.190 HD
BRANCH  18  22
HETATM   22  C   UNL     1       7.688  25.700  56.076  1.00  0.00     0.014 A 
HETATM   23  C   UNL     1       8.440  25.119  57.109  1.00  0.00     0.017 A 
HETATM   24  C   UNL     1       8.585  23.730  57.191  1.00  0.00     0.025 A 
HETATM   25  C   UNL     1       7.975  22.912  56.242  1.00  0.00     0.034 A 
HETATM   26 CL   UNL     1       8.151  21.204  56.344  1.00  0.00    -0.084 Cl
HETATM   27  C   UNL     1       7.223  23.471  55.211  1.00  0.00     0.025 A 
HETATM   28  C   UNL     1       7.081  24.860  55.129  1.00  0.00     0.017 A 
ENDBRANCH  18  22
ENDBRANCH   2  16
TORSDOF 5
ENDMDL
MODEL 4
REMARK VINA RESULT:      -9.4      3.814     10.120
REMARK  5 active torsions:
REMARK  status: ('A' for Active; 'I' for Inactive)
REMARK    1  A    between atoms: C_2  and  N_3 
REMARK    2  A    between atoms: C_2  and  C_14 
REMARK       I    between atoms: N_3  and  C_4 
REMARK       I    between atoms: C_4  and  N_5 
REMARK    3  A    between atoms: N_5  and  C_6 
REMARK    4  A    between atoms: C_6  and  C_7 
REMARK    5  A    between atoms: C_16  and  C_17 
ROOT
HETATM    1  C   UNL     1       7.869  28.495  54.952  1.00  0.00     0.041 C 
HETATM    2  C   UNL     1       7.720  27.994  56.384  1.00  0.00     0.153 C 
ENDROOT
BRANCH   2   3
HETATM    3  N   UNL     1       8.416  26.720  56.538  1.00  0.00    -0.332 N 
HETATM    4  C   UNL     1       7.729  25.541  56.664  1.00  0.00     0.317 C 
HETATM    5  N   UNL     1       8.564  24.475  56.822  1.00  0.00    -0.339 N 
HETATM    6  O   UNL     1       6.506  25.481  56.667  1.00  0.00    -0.247 OA
HETATM    7  H   UNL     1       9.522  24.584  56.529  1.00  0.00     0.164 HD
HETATM    8  H   UNL     1       9.339  26.750  56.946  1.00  0.00     0.165 HD
BRANCH   5   9
HETATM    9  C   UNL     1       8.065  23.121  56.923  1.00  0.00     0.162 C 
BRANCH   9  10
HETATM   10  C   UNL     1       8.035  22.450  55.573  1.00  0.00    -0.040 A 
HETATM   11  C   UNL     1       8.067  23.207  54.393  1.00  0.00     0.009 A 
HETATM   12  C   UNL     1       8.039  22.579  53.147  1.00  0.00     0.001 A 
HETATM   13  C   UNL     1       7.976  21.189  53.066  1.00  0.00     0.000 A 
HETATM   14  C   UNL     1       7.937  20.426  54.232  1.00  0.00     0.001 A 
HETATM   15  C   UNL     1       7.965  21.051  55.479  1.00  0.00     0.009 A 
ENDBRANCH   9  10
ENDBRANCH   5   9
ENDBRANCH   2   3
BRANCH   2  16
HETATM   16  C   UNL     1       8.234  28.991  57.375  1.00  0.00     0.145 A 
HETATM   17  N   UNL     1       7.644  29.498  58.438  1.00  0.00    -0.210 NA
HETATM   18  C   UNL     1       8.624  30.271  59.028  1.00  0.00     0.181 A 
HETATM   19  N   UNL     1       9.782  30.285  58.351  1.00  0.00    -0.152 NA
HETATM   20  N   UNL     1       9.513  29.473  57.316  1.00  0.00    -0.261 N 
HETATM   21  H   UNL     1      10.214  29.293  56.600  1.00  0.00     0.190 HD
BRANCH  18  22
HETATM   22  C   UNL     1       8.408  30.980  60.289  1.00  0.00     0.014 A 
HETATM   23  C   UNL     1       8.938  30.474  61.486  1.00  0.00     0.017 A 
HETATM   24  C   UNL     1       8.747  31.153  62.694  1.00  0.00     0.025 A 
HETATM   25  C   UNL     1       8.027  32.346  62.712  1.00  0.00     0.034 A 
HETATM   26 CL   UNL     1       7.795  33.182  64.198  1.00  0.00    -0.084 Cl
HETATM   27  C   UNL     1       7.496  32.865  61.534  1.00  0.00     0.025 A 
HETATM   28  C   UNL     1       7.685  32.183  60.327  1.00  0.00     0.017 A 
ENDBRANCH  18  22
ENDBRANCH   2  16
TORSDOF 5
ENDMDL
MODEL 5
REMARK VINA RESULT:      -9.3      1.572      2.213
REMARK  5 active torsions:
REMARK  status: ('A' for Active; 'I' for Inactive)
REMARK    1  A    between atoms: C_2  and  N_3 
REMARK    2  A    between atoms: C_2  and  C_14 
REMARK       I    between atoms: N_3  and  C_4 
REMARK       I    between atoms: C_4  and  N_5 
REMARK    3  A    between atoms: N_5  and  C_6 
REMARK    4  A    between atoms: C_6  and  C_7 
REMARK    5  A    between atoms: C_16  and  C_17 
ROOT
HETATM    1  C   UNL     1       5.411  31.429  57.001  1.00  0.00     0.041 C 
HETATM    2  C   UNL     1       6.482  30.405  57.360  1.00  0.00     0.153 C 
ENDROOT
BRANCH   2   3
HETATM    3  N   UNL     1       6.675  30.377  58.807  1.00  0.00    -0.332 N 
HETATM    4  C   UNL     1       7.618  31.159  59.417  1.00  0.00     0.317 C 
HETATM    5  N   UNL     1       7.654  30.964  60.766  1.00  0.00    -0.339 N 
HETATM    6  O   UNL     1       8.357  31.915  58.799  1.00  0.00    -0.247 OA
HETATM    7  H   UNL     1       6.842  30.551  61.199  1.00  0.00     0.164 HD
HETATM    8  H   UNL     1       6.416  29.526  59.285  1.00  0.00     0.165 HD
BRANCH   5   9
HETATM    9  C   UNL     1       8.537  31.720  61.626  1.00  0.00     0.162 C 
BRANCH   9  10
HETATM   10  C   UNL     1       7.762  32.677  62.496  1.00  0.00    -0.040 A 
HETATM   11  C   UNL     1       7.981  32.728  63.881  1.00  0.00     0.009 A 
HETATM   12  C   UNL     1       7.259  33.616  64.680  1.00  0.00     0.001 A 
HETATM   13  C   UNL     1       6.308  34.459  64.106  1.00  0.00     0.000 A 
HETATM   14  C   UNL     1       6.077  34.412  62.733  1.00  0.00     0.001 A 
HETATM   15  C   UNL     1       6.798  33.526  61.931  1.00  0.00     0.009 A 
ENDBRANCH   9  10
ENDBRANCH   5   9
ENDBRANCH   2   3
BRANCH   2  16
HETATM   16  C   UNL     1       6.134  29.040  56.855  1.00  0.00     0.145 A 
HETATM   17  N   UNL     1       6.800  28.254  56.033  1.00  0.00    -0.210 NA
HETATM   18  C   UNL     1       6.064  27.087  56.014  1.00  0.00     0.181 A 
HETATM   19  N   UNL     1       4.953  27.137  56.766  1.00  0.00    -0.152 NA
HETATM   20  N   UNL     1       5.019  28.374  57.283  1.00  0.00    -0.261 N 
HETATM   21  H   UNL     1       4.286  28.719  57.901  1.00  0.00     0.190 HD
BRANCH  18  22
HETATM   22  C   UNL     1       6.486  25.907  55.261  1.00  0.00     0.014 A 
HETATM   23  C   UNL     1       5.794  25.520  54.103  1.00  0.00     0.017 A 
HETATM   24  C   UNL     1       6.200  24.400  53.370  1.00  0.00     0.025 A 
HETATM   25  C   UNL     1       7.304  23.660  53.790  1.00  0.00     0.034 A 
HETATM   26 CL   UNL     1       7.805  22.283  52.887  1.00  0.00    -0.084 Cl
HETATM   27  C   UNL     1       8.004  24.029  54.936  1.00  0.00     0.025 A 
HETATM   28  C   UNL     1       7.595  25.149  55.669  1.00  0.00     0.017 A 
ENDBRANCH  18  22
ENDBRANCH   2  16
TORSDOF 5
ENDMDL
MODEL 6
REMARK VINA RESULT:      -9.2      1.488      1.955
REMARK  5 active torsions:
REMARK  status: ('A' for Active; 'I' for Inactive)
REMARK    1  A    between atoms: C_2  and  N_3 
REMARK    2  A    between atoms: C_2  and  C_14 
REMARK       I    between atoms: N_3  and  C_4 
REMARK       I    between atoms: C_4  and  N_5 
REMARK    3  A    between atoms: N_5  and  C_6 
REMARK    4  A    between atoms: C_6  and  C_7 
REMARK    5  A    between atoms: C_16  and  C_17 
ROOT
HETATM    1  C   UNL     1       4.051  29.246  54.835  1.00  0.00     0.041 C 
HETATM    2  C   UNL     1       5.465  28.830  55.225  1.00  0.00     0.153 C 
ENDROOT
BRANCH   2   3
HETATM    3  N   UNL     1       5.828  29.442  56.500  1.00  0.00    -0.332 N 
HETATM    4  C   UNL     1       7.130  29.736  56.806  1.00  0.00     0.317 C 
HETATM    5  N   UNL     1       7.255  30.278  58.050  1.00  0.00    -0.339 N 
HETATM    6  O   UNL     1       8.061  29.500  56.047  1.00  0.00    -0.247 OA
HETATM    7  H   UNL     1       6.433  30.684  58.468  1.00  0.00     0.164 HD
HETATM    8  H   UNL     1       5.208  29.276  57.279  1.00  0.00     0.165 HD
BRANCH   5   9
HETATM    9  C   UNL     1       8.533  30.716  58.569  1.00  0.00     0.162 C 
BRANCH   9  10
HETATM   10  C   UNL     1       8.401  31.223  59.983  1.00  0.00    -0.040 A 
HETATM   11  C   UNL     1       7.627  32.356  60.271  1.00  0.00     0.009 A 
HETATM   12  C   UNL     1       7.510  32.820  61.582  1.00  0.00     0.001 A 
HETATM   13  C   UNL     1       8.167  32.160  62.619  1.00  0.00     0.000 A 
HETATM   14  C   UNL     1       8.945  31.036  62.344  1.00  0.00     0.001 A 
HETATM   15  C   UNL     1       9.064  30.570  61.034  1.00  0.00     0.009 A 
ENDBRANCH   9  10
ENDBRANCH   5   9
ENDBRANCH   2   3
BRANCH   2  16
HETATM   16  C   UNL     1       5.601  27.341  55.306  1.00  0.00     0.145 A 
HETATM   17  N   UNL     1       6.288  26.519  54.540  1.00  0.00    -0.210 NA
HETATM   18  C   UNL     1       6.135  25.288  55.146  1.00  0.00     0.181 A 
HETATM   19  N   UNL     1       5.352  25.318  56.236  1.00  0.00    -0.152 NA
HETATM   20  N   UNL     1       5.028  26.618  56.316  1.00  0.00    -0.261 N 
HETATM   21  H   UNL     1       4.414  26.957  57.054  1.00  0.00     0.190 HD
BRANCH  18  22
HETATM   22  C   UNL     1       6.794  24.082  54.648  1.00  0.00     0.014 A 
HETATM   23  C   UNL     1       7.019  23.913  53.273  1.00  0.00     0.017 A 
HETATM   24  C   UNL     1       7.661  22.768  52.791  1.00  0.00     0.025 A 
HETATM   25  C   UNL     1       8.086  21.784  53.682  1.00  0.00     0.034 A 
HETATM   26 CL   UNL     1       8.878  20.377  53.089  1.00  0.00    -0.084 Cl
HETATM   27  C   UNL     1       7.873  21.936  55.050  1.00  0.00     0.025 A 
HETATM   28  C   UNL     1       7.229  23.080  55.530  1.00  0.00     0.017 A 
ENDBRANCH  18  22
ENDBRANCH   2  16
TORSDOF 5
ENDMDL
MODEL 7
REMARK VINA RESULT:      -9.0      4.219     10.353
REMARK  5 active torsions:
REMARK  status: ('A' for Active; 'I' for Inactive)
REMARK    1  A    between atoms: C_2  and  N_3 
REMARK    2  A    between atoms: C_2  and  C_14 
REMARK       I    between atoms: N_3  and  C_4 
REMARK       I    between atoms: C_4  and  N_5 
REMARK    3  A    between atoms: N_5  and  C_6 
REMARK    4  A    between atoms: C_6  and  C_7 
REMARK    5  A    between atoms: C_16  and  C_17 
ROOT
HETATM    1  C   UNL     1       9.986  30.772  57.945  1.00  0.00     0.041 C 
HETATM    2  C   UNL     1       8.596  30.529  58.521  1.00  0.00     0.153 C 
ENDROOT
BRANCH   2   3
HETATM    3  N   UNL     1       8.235  29.123  58.369  1.00  0.00    -0.332 N 
HETATM    4  C   UNL     1       7.290  28.721  57.464  1.00  0.00     0.317 C 
HETATM    5  N   UNL     1       7.084  27.374  57.499  1.00  0.00    -0.339 N 
HETATM    6  O   UNL     1       6.687  29.503  56.740  1.00  0.00    -0.247 OA
HETATM    7  H   UNL     1       7.806  26.802  57.909  1.00  0.00     0.164 HD
HETATM    8  H   UNL     1       8.372  28.528  59.173  1.00  0.00     0.165 HD
BRANCH   5   9
HETATM    9  C   UNL     1       6.167  26.715  56.594  1.00  0.00     0.162 C 
BRANCH   9  10
HETATM   10  C   UNL     1       6.788  25.479  55.995  1.00  0.00    -0.040 A 
HETATM   11  C   UNL     1       6.257  24.899  54.833  1.00  0.00     0.009 A 
HETATM   12  C   UNL     1       6.837  23.754  54.284  1.00  0.00     0.001 A 
HETATM   13  C   UNL     1       7.949  23.174  54.890  1.00  0.00     0.000 A 
HETATM   14  C   UNL     1       8.482  23.738  56.049  1.00  0.00     0.001 A 
HETATM   15  C   UNL     1       7.905  24.882  56.600  1.00  0.00     0.009 A 
ENDBRANCH   9  10
ENDBRANCH   5   9
ENDBRANCH   2   3
BRANCH   2  16
HETATM   16  C   UNL     1       8.513  30.936  59.959  1.00  0.00     0.145 A 
HETATM   17  N   UNL     1       7.613  31.679  60.571  1.00  0.00    -0.210 NA
HETATM   18  C   UNL     1       7.981  31.624  61.900  1.00  0.00     0.181 A 
HETATM   19  N   UNL     1       9.092  30.903  62.124  1.00  0.00    -0.152 NA
HETATM   20  N   UNL     1       9.407  30.482  60.889  1.00  0.00    -0.261 N 
HETATM   21  H   UNL     1      10.235  29.909  60.731  1.00  0.00     0.190 HD
BRANCH  18  22
HETATM   22  C   UNL     1       7.205  32.273  62.955  1.00  0.00     0.014 A 
HETATM   23  C   UNL     1       5.802  32.217  62.940  1.00  0.00     0.017 A 
HETATM   24  C   UNL     1       5.053  32.825  63.953  1.00  0.00     0.025 A 
HETATM   25  C   UNL     1       5.703  33.492  64.991  1.00  0.00     0.034 A 
HETATM   26 CL   UNL     1       4.781  34.237  66.238  1.00  0.00    -0.084 Cl
HETATM   27  C   UNL     1       7.094  33.556  65.023  1.00  0.00     0.025 A 
HETATM   28  C   UNL     1       7.841  32.950  64.008  1.00  0.00     0.017 A 
ENDBRANCH  18  22
ENDBRANCH   2  16
TORSDOF 5
ENDMDL
MODEL 8
REMARK VINA RESULT:      -9.0      1.344      2.027
REMARK  5 active torsions:
REMARK  status: ('A' for Active; 'I' for Inactive)
REMARK    1  A    between atoms: C_2  and  N_3 
REMARK    2  A    between atoms: C_2  and  C_14 
REMARK       I    between atoms: N_3  and  C_4 
REMARK       I    between atoms: C_4  and  N_5 
REMARK    3  A    between atoms: N_5  and  C_6 
REMARK    4  A    between atoms: C_6  and  C_7 
REMARK    5  A    between atoms: C_16  and  C_17 
ROOT
HETATM    1  C   UNL     1       4.637  29.279  55.601  1.00  0.00     0.041 C 
HETATM    2  C   UNL     1       5.966  29.227  56.347  1.00  0.00     0.153 C 
ENDROOT
BRANCH   2   3
HETATM    3  N   UNL     1       5.788  29.720  57.709  1.00  0.00    -0.332 N 
HETATM    4  C   UNL     1       5.929  31.048  58.013  1.00  0.00     0.317 C 
HETATM    5  N   UNL     1       5.748  31.293  59.341  1.00  0.00    -0.339 N 
HETATM    6  O   UNL     1       6.218  31.894  57.177  1.00  0.00    -0.247 OA
HETATM    7  H   UNL     1       5.248  30.603  59.880  1.00  0.00     0.164 HD
HETATM    8  H   UNL     1       5.962  29.065  58.458  1.00  0.00     0.165 HD
BRANCH   5   9
HETATM    9  C   UNL     1       5.797  32.633  59.886  1.00  0.00     0.162 C 
BRANCH   9  10
HETATM   10  C   UNL     1       6.577  32.667  61.176  1.00  0.00    -0.040 A 
HETATM   11  C   UNL     1       7.749  31.912  61.328  1.00  0.00     0.009 A 
HETATM   12  C   UNL     1       8.466  31.948  62.525  1.00  0.00     0.001 A 
HETATM   13  C   UNL     1       8.017  32.736  63.585  1.00  0.00     0.000 A 
HETATM   14  C   UNL     1       6.850  33.485  63.448  1.00  0.00     0.001 A 
HETATM   15  C   UNL     1       6.132  33.451  62.252  1.00  0.00     0.009 A 
ENDBRANCH   9  10
ENDBRANCH   5   9
ENDBRANCH   2   3
BRANCH   2  16
HETATM   16  C   UNL     1       6.537  27.843  56.364  1.00  0.00     0.145 A 
HETATM   17  N   UNL     1       6.434  26.882  55.469  1.00  0.00    -0.210 NA
HETATM   18  C   UNL     1       7.247  25.879  55.960  1.00  0.00     0.181 A 
HETATM   19  N   UNL     1       7.818  26.175  57.138  1.00  0.00    -0.152 NA
HETATM   20  N   UNL     1       7.356  27.414  57.372  1.00  0.00    -0.261 N 
HETATM   21  H   UNL     1       7.611  27.911  58.223  1.00  0.00     0.190 HD
BRANCH  18  22
HETATM   22  C   UNL     1       7.474  24.631  55.234  1.00  0.00     0.014 A 
HETATM   23  C   UNL     1       7.460  23.403  55.914  1.00  0.00     0.017 A 
HETATM   24  C   UNL     1       7.664  22.203  55.225  1.00  0.00     0.025 A 
HETATM   25  C   UNL     1       7.879  22.222  53.848  1.00  0.00     0.034 A 
HETATM   26 CL   UNL     1       8.127  20.746  53.000  1.00  0.00    -0.084 Cl
HETATM   27  C   UNL     1       7.894  23.431  53.156  1.00  0.00     0.025 A 
HETATM   28  C   UNL     1       7.693  24.630  53.847  1.00  0.00     0.017 A 
ENDBRANCH  18  22
ENDBRANCH   2  16
TORSDOF 5
ENDMDL
MODEL 9
REMARK VINA RESULT:      -8.8      5.561      9.246
REMARK  5 active torsions:
REMARK  status: ('A' for Active; 'I' for Inactive)
REMARK    1  A    between atoms: C_2  and  N_3 
REMARK    2  A    between atoms: C_2  and  C_14 
REMARK       I    between atoms: N_3  and  C_4 
REMARK       I    between atoms: C_4  and  N_5 
REMARK    3  A    between atoms: N_5  and  C_6 
REMARK    4  A    between atoms: C_6  and  C_7 
REMARK    5  A    between atoms: C_16  and  C_17 
ROOT
HETATM    1  C   UNL     1       4.128  28.667  55.784  1.00  0.00     0.041 C 
HETATM    2  C   UNL     1       5.285  27.984  55.063  1.00  0.00     0.153 C 
ENDROOT
BRANCH   2   3
HETATM    3  N   UNL     1       5.341  26.575  55.441  1.00  0.00    -0.332 N 
HETATM    4  C   UNL     1       6.534  25.947  55.680  1.00  0.00     0.317 C 
HETATM    5  N   UNL     1       6.368  24.631  55.992  1.00  0.00    -0.339 N 
HETATM    6  O   UNL     1       7.615  26.514  55.584  1.00  0.00    -0.247 OA
HETATM    7  H   UNL     1       5.459  24.338  56.316  1.00  0.00     0.164 HD
HETATM    8  H   UNL     1       4.576  25.991  55.137  1.00  0.00     0.165 HD
BRANCH   5   9
HETATM    9  C   UNL     1       7.485  23.778  56.336  1.00  0.00     0.162 C 
BRANCH   9  10
HETATM   10  C   UNL     1       7.702  22.716  55.288  1.00  0.00    -0.040 A 
HETATM   11  C   UNL     1       7.839  21.368  55.649  1.00  0.00     0.009 A 
HETATM   12  C   UNL     1       8.040  20.389  54.673  1.00  0.00     0.001 A 
HETATM   13  C   UNL     1       8.110  20.748  53.328  1.00  0.00     0.000 A 
HETATM   14  C   UNL     1       7.982  22.086  52.958  1.00  0.00     0.001 A 
HETATM   15  C   UNL     1       7.780  23.065  53.931  1.00  0.00     0.009 A 
ENDBRANCH   9  10
ENDBRANCH   5   9
ENDBRANCH   2   3
BRANCH   2  16
HETATM   16  C   UNL     1       5.168  28.120  53.577  1.00  0.00     0.145 A 
HETATM   17  N   UNL     1       4.300  27.574  52.749  1.00  0.00    -0.210 NA
HETATM   18  C   UNL     1       4.603  28.138  51.526  1.00  0.00     0.181 A 
HETATM   19  N   UNL     1       5.644  28.984  51.564  1.00  0.00    -0.152 NA
HETATM   20  N   UNL     1       5.982  28.956  52.863  1.00  0.00    -0.261 N 
HETATM   21  H   UNL     1       6.770  29.502  53.207  1.00  0.00     0.190 HD
BRANCH  18  22
HETATM   22  C   UNL     1       3.831  27.849  50.319  1.00  0.00     0.014 A 
HETATM   23  C   UNL     1       4.158  26.746  49.515  1.00  0.00     0.017 A 
HETATM   24  C   UNL     1       3.416  26.456  48.365  1.00  0.00     0.025 A 
HETATM   25  C   UNL     1       2.338  27.265  48.013  1.00  0.00     0.034 A 
HETATM   26 CL   UNL     1       1.423  26.906  46.601  1.00  0.00    -0.084 Cl
HETATM   27  C   UNL     1       1.996  28.363  48.800  1.00  0.00     0.025 A 
HETATM   28  C   UNL     1       2.741  28.653  49.948  1.00  0.00     0.017 A 
ENDBRANCH  18  22
ENDBRANCH   2  16
TORSDOF 5
ENDMDL
MODEL 10
REMARK VINA RESULT:      -8.7      7.078     10.487
REMARK  5 active torsions:
REMARK  status: ('A' for Active; 'I' for Inactive)
REMARK    1  A    between atoms: C_2  and  N_3 
REMARK    2  A    between atoms: C_2  and  C_14 
REMARK       I    between atoms: N_3  and  C_4 
REMARK       I    between atoms: C_4  and  N_5 
REMARK    3  A    between atoms: N_5  and  C_6 
REMARK    4  A    between atoms: C_6  and  C_7 
REMARK    5  A    between atoms: C_16  and  C_17 
ROOT
HETATM    1  C   UNL     1       5.129  28.805  52.801  1.00  0.00     0.041 C 
HETATM    2  C   UNL     1       5.616  27.551  52.085  1.00  0.00     0.153 C 
ENDROOT
BRANCH   2   3
HETATM    3  N   UNL     1       5.456  26.390  52.955  1.00  0.00    -0.332 N 
HETATM    4  C   UNL     1       6.497  25.910  53.705  1.00  0.00     0.317 C 
HETATM    5  N   UNL     1       6.146  24.808  54.426  1.00  0.00    -0.339 N 
HETATM    6  O   UNL     1       7.614  26.411  53.689  1.00  0.00    -0.247 OA
HETATM    7  H   UNL     1       5.163  24.650  54.589  1.00  0.00     0.164 HD
HETATM    8  H   UNL     1       4.739  25.726  52.702  1.00  0.00     0.165 HD
BRANCH   5   9
HETATM    9  C   UNL     1       7.069  24.160  55.332  1.00  0.00     0.162 C 
BRANCH   9  10
HETATM   10  C   UNL     1       7.501  22.817  54.801  1.00  0.00    -0.040 A 
HETATM   11  C   UNL     1       7.711  22.621  53.428  1.00  0.00     0.009 A 
HETATM   12  C   UNL     1       8.111  21.375  52.943  1.00  0.00     0.001 A 
HETATM   13  C   UNL     1       8.302  20.310  53.823  1.00  0.00     0.000 A 
HETATM   14  C   UNL     1       8.089  20.492  55.188  1.00  0.00     0.001 A 
HETATM   15  C   UNL     1       7.690  21.737  55.676  1.00  0.00     0.009 A 
ENDBRANCH   9  10
ENDBRANCH   5   9
ENDBRANCH   2   3
BRANCH   2  16
HETATM   16  C   UNL     1       4.892  27.336  50.792  1.00  0.00     0.145 A 
HETATM   17  N   UNL     1       3.807  27.923  50.329  1.00  0.00    -0.210 NA
HETATM   18  C   UNL     1       3.666  27.412  49.055  1.00  0.00     0.181 A 
HETATM   19  N   UNL     1       4.604  26.508  48.729  1.00  0.00    -0.152 NA
HETATM   20  N   UNL     1       5.362  26.477  49.837  1.00  0.00    -0.261 N 
HETATM   21  H   UNL     1       6.167  25.855  49.899  1.00  0.00     0.190 HD
BRANCH  18  22
HETATM   22  C   UNL     1       2.604  27.847  48.150  1.00  0.00     0.014 A 
HETATM   23  C   UNL     1       2.679  29.100  47.520  1.00  0.00     0.017 A 
HETATM   24  C   UNL     1       1.673  29.517  46.643  1.00  0.00     0.025 A 
HETATM   25  C   UNL     1       0.587  28.683  46.385  1.00  0.00     0.034 A 
HETATM   26 CL   UNL     1      -0.649  29.197  45.304  1.00  0.00    -0.084 Cl
HETATM   27  C   UNL     1       0.497  27.436  46.999  1.00  0.00     0.025 A 
HETATM   28  C   UNL     1       1.502  27.021  47.879  1.00  0.00     0.017 A 
ENDBRANCH  18  22
ENDBRANCH   2  16
TORSDOF 5
ENDMDL
