MODEL 1
REMARK VINA RESULT:      -9.8      0.000      0.000
REMARK  7 active torsions:
REMARK  status: ('A' for Active; 'I' for Inactive)
REMARK    1  A    between atoms: O_2  and  C_3 
REMARK    2  A    between atoms: C_5  and  C_6 
REMARK    3  A    between atoms: C_6  and  O_7 
REMARK    4  A    between atoms: C_6  and  C_8 
REMARK    5  A    between atoms: C_8  and  N_9 
REMARK       I    between atoms: N_9  and  C_10 
REMARK    6  A    between atoms: C_10  and  C_11 
REMARK    7  A    between atoms: C_12  and  C_13 
ROOT
HETATM    1  C   UNL     1       8.154  24.008  55.183  1.00  0.00     0.089 C 
HETATM    2  C   UNL     1       7.078  23.667  54.106  1.00  0.00     0.068 C 
HETATM    3  C   UNL     1       7.552  22.612  53.081  1.00  0.00     0.013 C 
HETATM    4  C   UNL     1       8.186  21.388  53.720  1.00  0.00     0.001 C 
HETATM    5  C   UNL     1       9.352  21.809  54.594  1.00  0.00     0.001 C 
HETATM    6  C   UNL     1       8.876  22.743  55.696  1.00  0.00     0.015 C 
ENDROOT
BRANCH   1   7
HETATM    7  C   UNL     1       7.518  24.828  56.336  1.00  0.00     0.222 C 
HETATM    8  N   UNL     1       8.186  25.938  56.791  1.00  0.00    -0.358 N 
HETATM    9  H   UNL     1       9.004  26.270  56.302  1.00  0.00     0.162 HD
HETATM   10  O   UNL     1       6.434  24.520  56.831  1.00  0.00    -0.273 OA
BRANCH   8  11
HETATM   11  C   UNL     1       7.606  26.866  57.754  1.00  0.00     0.159 C 
BRANCH  11  12
HETATM   12  C   UNL     1       7.335  28.314  57.282  1.00  0.00     0.169 C 
BRANCH  12  13
HETATM   13  C   UNL     1       8.506  29.258  57.469  1.00  0.00    -0.025 A 
HETATM   14  C   UNL     1       8.383  30.414  58.261  1.00  0.00     0.046 A 
HETATM   15  C   UNL     1       9.470  31.268  58.449  1.00  0.00     0.068 A 
HETATM   16  C   UNL     1      10.687  30.973  57.831  1.00  0.00     0.037 A 
HETATM   17  C   UNL     1      10.824  29.832  57.039  1.00  0.00     0.003 A 
HETATM   18  C   UNL     1       9.738  28.978  56.863  1.00  0.00     0.010 A 
BRANCH  15  19
HETATM   19  O   UNL     1       9.475  32.408  59.205  1.00  0.00    -0.356 OA
HETATM   20  C   UNL     1       8.652  32.410  60.366  1.00  0.00     0.210 C 
ENDBRANCH  15  19
ENDBRANCH  12  13
BRANCH  12  21
HETATM   21  O   UNL     1       6.995  28.281  55.888  1.00  0.00    -0.389 OA
HETATM   22  H   UNL     1       7.292  27.416  55.554  1.00  0.00     0.210 HD
ENDBRANCH  12  21
ENDBRANCH  11  12
ENDBRANCH   8  11
ENDBRANCH   1   7
BRANCH   2  23
HETATM   23  C   UNL     1       6.606  24.881  53.334  1.00  0.00     0.110 A 
HETATM   24  N   UNL     1       6.760  26.150  53.663  1.00  0.00    -0.233 NA
HETATM   25  C   UNL     1       6.198  26.875  52.639  1.00  0.00     0.087 A 
HETATM   26  C   UNL     1       5.692  26.035  51.657  1.00  0.00     0.062 A 
HETATM   27  C   UNL     1       6.076  28.263  52.484  1.00  0.00     0.057 A 
HETATM   28  N   UNL     1       5.963  24.778  52.123  1.00  0.00    -0.342 N 
HETATM   29  C   UNL     1       5.047  26.488  50.504  1.00  0.00     0.034 A 
HETATM   30  H   UNL     1       5.627  23.911  51.727  1.00  0.00     0.167 HD
HETATM   31  C   UNL     1       4.934  27.874  50.362  1.00  0.00     0.026 A 
HETATM   32  C   UNL     1       5.438  28.742  51.335  1.00  0.00     0.036 A 
HETATM   33 CL   UNL     1       5.267  30.443  51.115  1.00  0.00    -0.084 Cl
ENDBRANCH   2  23
TORSDOF 7
ENDMDL
MODEL 2
REMARK VINA RESULT:      -9.7      2.623      4.840
REMARK  7 active torsions:
REMARK  status: ('A' for Active; 'I' for Inactive)
REMARK    1  A    between atoms: O_2  and  C_3 
REMARK    2  A    between atoms: C_5  and  C_6 
REMARK    3  A    between atoms: C_6  and  O_7 
REMARK    4  A    between atoms: C_6  and  C_8 
REMARK    5  A    between atoms: C_8  and  N_9 
REMARK       I    between atoms: N_9  and  C_10 
REMARK    6  A    between atoms: C_10  and  C_11 
REMARK    7  A    between atoms: C_12  and  C_13 
ROOT
HETATM    1  C   UNL     1       6.004  27.096  53.530  1.00  0.00     0.089 C 
HETATM    2  C   UNL     1       6.686  26.173  52.473  1.00  0.00     0.068 C 
HETATM    3  C   UNL     1       5.819  25.938  51.216  1.00  0.00     0.013 C 
HETATM    4  C   UNL     1       5.244  27.216  50.630  1.00  0.00     0.001 C 
HETATM    5  C   UNL     1       4.429  27.944  51.682  1.00  0.00     0.001 C 
HETATM    6  C   UNL     1       5.305  28.305  52.872  1.00  0.00     0.015 C 
ENDROOT
BRANCH   1   7
HETATM    7  C   UNL     1       7.033  27.530  54.607  1.00  0.00     0.222 C 
HETATM    8  N   UNL     1       6.929  26.985  55.863  1.00  0.00    -0.358 N 
HETATM    9  H   UNL     1       6.274  26.236  56.036  1.00  0.00     0.162 HD
HETATM   10  O   UNL     1       7.939  28.324  54.357  1.00  0.00    -0.273 OA
BRANCH   8  11
HETATM   11  C   UNL     1       7.932  27.198  56.900  1.00  0.00     0.159 C 
BRANCH  11  12
HETATM   12  C   UNL     1       7.621  28.244  57.995  1.00  0.00     0.169 C 
BRANCH  12  13
HETATM   13  C   UNL     1       8.600  29.401  58.045  1.00  0.00    -0.025 A 
HETATM   14  C   UNL     1       8.354  30.520  58.860  1.00  0.00     0.046 A 
HETATM   15  C   UNL     1       9.270  31.572  58.923  1.00  0.00     0.068 A 
HETATM   16  C   UNL     1      10.434  31.512  58.153  1.00  0.00     0.037 A 
HETATM   17  C   UNL     1      10.690  30.410  57.337  1.00  0.00     0.003 A 
HETATM   18  C   UNL     1       9.778  29.358  57.286  1.00  0.00     0.010 A 
BRANCH  15  19
HETATM   19  O   UNL     1       9.147  32.700  59.686  1.00  0.00    -0.356 OA
HETATM   20  C   UNL     1       8.302  32.612  60.828  1.00  0.00     0.210 C 
ENDBRANCH  15  19
ENDBRANCH  12  13
BRANCH  12  21
HETATM   21  O   UNL     1       6.307  28.771  57.760  1.00  0.00    -0.389 OA
HETATM   22  H   UNL     1       6.352  29.722  57.966  1.00  0.00     0.210 HD
ENDBRANCH  12  21
ENDBRANCH  11  12
ENDBRANCH   8  11
ENDBRANCH   1   7
BRANCH   2  23
HETATM   23  C   UNL     1       7.070  24.817  53.029  1.00  0.00     0.110 A 
HETATM   24  N   UNL     1       6.992  24.415  54.283  1.00  0.00    -0.233 NA
HETATM   25  C   UNL     1       7.418  23.106  54.285  1.00  0.00     0.087 A 
HETATM   26  C   UNL     1       7.760  22.695  53.005  1.00  0.00     0.062 A 
HETATM   27  C   UNL     1       7.546  22.207  55.352  1.00  0.00     0.057 A 
HETATM   28  N   UNL     1       7.531  23.799  52.229  1.00  0.00    -0.342 N 
HETATM   29  C   UNL     1       8.244  21.421  52.702  1.00  0.00     0.034 A 
HETATM   30  H   UNL     1       7.789  23.907  51.257  1.00  0.00     0.167 HD
HETATM   31  C   UNL     1       8.366  20.534  53.775  1.00  0.00     0.026 A 
HETATM   32  C   UNL     1       8.024  20.922  55.074  1.00  0.00     0.036 A 
HETATM   33 CL   UNL     1       8.199  19.792  56.364  1.00  0.00    -0.084 Cl
ENDBRANCH   2  23
TORSDOF 7
ENDMDL
MODEL 3
REMARK VINA RESULT:      -9.5      3.108      7.327
REMARK  7 active torsions:
REMARK  status: ('A' for Active; 'I' for Inactive)
REMARK    1  A    between atoms: O_2  and  C_3 
REMARK    2  A    between atoms: C_5  and  C_6 
REMARK    3  A    between atoms: C_6  and  O_7 
REMARK    4  A    between atoms: C_6  and  C_8 
REMARK    5  A    between atoms: C_8  and  N_9 
REMARK       I    between atoms: N_9  and  C_10 
REMARK    6  A    between atoms: C_10  and  C_11 
REMARK    7  A    between atoms: C_12  and  C_13 
ROOT
HETATM    1  C   UNL     1       7.230  22.955  54.635  1.00  0.00     0.089 C 
HETATM    2  C   UNL     1       8.098  23.642  55.735  1.00  0.00     0.068 C 
HETATM    3  C   UNL     1       8.264  22.782  57.008  1.00  0.00     0.013 C 
HETATM    4  C   UNL     1       8.667  21.346  56.721  1.00  0.00     0.001 C 
HETATM    5  C   UNL     1       7.649  20.701  55.799  1.00  0.00     0.001 C 
HETATM    6  C   UNL     1       7.574  21.458  54.483  1.00  0.00     0.015 C 
ENDROOT
BRANCH   1   7
HETATM    7  C   UNL     1       7.356  23.725  53.294  1.00  0.00     0.222 C 
HETATM    8  N   UNL     1       6.321  24.544  52.914  1.00  0.00    -0.358 N 
HETATM    9  H   UNL     1       5.561  24.726  53.553  1.00  0.00     0.162 HD
HETATM   10  O   UNL     1       8.357  23.633  52.584  1.00  0.00    -0.273 OA
BRANCH   8  11
HETATM   11  C   UNL     1       6.403  25.432  51.760  1.00  0.00     0.159 C 
BRANCH  11  12
HETATM   12  C   UNL     1       5.510  26.694  51.762  1.00  0.00     0.169 C 
BRANCH  12  13
HETATM   13  C   UNL     1       5.212  27.247  50.382  1.00  0.00    -0.025 A 
HETATM   14  C   UNL     1       4.709  26.417  49.364  1.00  0.00     0.046 A 
HETATM   15  C   UNL     1       4.414  26.935  48.102  1.00  0.00     0.068 A 
HETATM   16  C   UNL     1       4.636  28.290  47.850  1.00  0.00     0.037 A 
HETATM   17  C   UNL     1       5.138  29.126  48.848  1.00  0.00     0.003 A 
HETATM   18  C   UNL     1       5.421  28.606  50.109  1.00  0.00     0.010 A 
BRANCH  15  19
HETATM   19  O   UNL     1       3.910  26.232  47.043  1.00  0.00    -0.356 OA
HETATM   20  C   UNL     1       2.907  25.265  47.335  1.00  0.00     0.210 C 
ENDBRANCH  15  19
ENDBRANCH  12  13
BRANCH  12  21
HETATM   21  O   UNL     1       4.266  26.370  52.399  1.00  0.00    -0.389 OA
HETATM   22  H   UNL     1       3.732  27.185  52.390  1.00  0.00     0.210 HD
ENDBRANCH  12  21
ENDBRANCH  11  12
ENDBRANCH   8  11
ENDBRANCH   1   7
BRANCH   2  23
HETATM   23  C   UNL     1       7.560  24.994  56.157  1.00  0.00     0.110 A 
HETATM   24  N   UNL     1       6.323  25.437  56.036  1.00  0.00    -0.233 NA
HETATM   25  C   UNL     1       6.319  26.696  56.591  1.00  0.00     0.087 A 
HETATM   26  C   UNL     1       7.579  27.031  57.067  1.00  0.00     0.062 A 
HETATM   27  C   UNL     1       5.270  27.618  56.715  1.00  0.00     0.057 A 
HETATM   28  N   UNL     1       8.345  25.935  56.778  1.00  0.00    -0.342 N 
HETATM   29  C   UNL     1       7.881  28.256  57.665  1.00  0.00     0.034 A 
HETATM   30  H   UNL     1       9.350  25.872  56.869  1.00  0.00     0.167 HD
HETATM   31  C   UNL     1       6.826  29.165  57.784  1.00  0.00     0.026 A 
HETATM   32  C   UNL     1       5.547  28.850  57.317  1.00  0.00     0.036 A 
HETATM   33 CL   UNL     1       4.282  30.009  57.481  1.00  0.00    -0.084 Cl
ENDBRANCH   2  23
TORSDOF 7
ENDMDL
MODEL 4
REMARK VINA RESULT:      -9.2      3.610      8.584
REMARK  7 active torsions:
REMARK  status: ('A' for Active; 'I' for Inactive)
REMARK    1  A    between atoms: O_2  and  C_3 
REMARK    2  A    between atoms: C_5  and  C_6 
REMARK    3  A    between atoms: C_6  and  O_7 
REMARK    4  A    between atoms: C_6  and  C_8 
REMARK    5  A    between atoms: C_8  and  N_9 
REMARK       I    between atoms: N_9  and  C_10 
REMARK    6  A    between atoms: C_10  and  C_11 
REMARK    7  A    between atoms: C_12  and  C_13 
ROOT
HETATM    1  C   UNL     1       7.017  27.758  54.985  1.00  0.00     0.089 C 
HETATM    2  C   UNL     1       6.939  26.678  56.108  1.00  0.00     0.068 C 
HETATM    3  C   UNL     1       7.903  26.950  57.285  1.00  0.00     0.013 C 
HETATM    4  C   UNL     1       7.839  28.376  57.804  1.00  0.00     0.001 C 
HETATM    5  C   UNL     1       8.126  29.348  56.675  1.00  0.00     0.001 C 
HETATM    6  C   UNL     1       7.099  29.186  55.565  1.00  0.00     0.015 C 
ENDROOT
BRANCH   1   7
HETATM    7  C   UNL     1       5.829  27.593  54.000  1.00  0.00     0.222 C 
HETATM    8  N   UNL     1       6.103  27.206  52.711  1.00  0.00    -0.358 N 
HETATM    9  H   UNL     1       7.037  26.924  52.456  1.00  0.00     0.162 HD
HETATM   10  O   UNL     1       4.665  27.780  54.350  1.00  0.00    -0.273 OA
BRANCH   8  11
HETATM   11  C   UNL     1       5.057  26.868  51.752  1.00  0.00     0.159 C 
BRANCH  11  12
HETATM   12  C   UNL     1       4.528  27.998  50.839  1.00  0.00     0.169 C 
BRANCH  12  13
HETATM   13  C   UNL     1       3.836  27.509  49.583  1.00  0.00    -0.025 A 
HETATM   14  C   UNL     1       2.707  28.176  49.073  1.00  0.00     0.046 A 
HETATM   15  C   UNL     1       2.087  27.738  47.903  1.00  0.00     0.068 A 
HETATM   16  C   UNL     1       2.589  26.614  47.243  1.00  0.00     0.037 A 
HETATM   17  C   UNL     1       3.705  25.939  47.737  1.00  0.00     0.003 A 
HETATM   18  C   UNL     1       4.327  26.387  48.900  1.00  0.00     0.010 A 
BRANCH  15  19
HETATM   19  O   UNL     1       0.998  28.311  47.307  1.00  0.00    -0.356 OA
HETATM   20  C   UNL     1       0.264  27.501  46.397  1.00  0.00     0.210 C 
ENDBRANCH  15  19
ENDBRANCH  12  13
BRANCH  12  21
HETATM   21  O   UNL     1       3.598  28.792  51.591  1.00  0.00    -0.389 OA
HETATM   22  H   UNL     1       3.611  28.442  52.500  1.00  0.00     0.210 HD
ENDBRANCH  12  21
ENDBRANCH  11  12
ENDBRANCH   8  11
ENDBRANCH   1   7
BRANCH   2  23
HETATM   23  C   UNL     1       7.210  25.276  55.604  1.00  0.00     0.110 A 
HETATM   24  N   UNL     1       7.481  24.909  54.366  1.00  0.00    -0.233 NA
HETATM   25  C   UNL     1       7.685  23.549  54.413  1.00  0.00     0.087 A 
HETATM   26  C   UNL     1       7.540  23.071  55.708  1.00  0.00     0.062 A 
HETATM   27  C   UNL     1       7.989  22.651  53.380  1.00  0.00     0.057 A 
HETATM   28  N   UNL     1       7.240  24.187  56.442  1.00  0.00    -0.342 N 
HETATM   29  C   UNL     1       7.671  21.726  56.058  1.00  0.00     0.034 A 
HETATM   30  H   UNL     1       6.944  24.201  57.409  1.00  0.00     0.167 HD
HETATM   31  C   UNL     1       7.977  20.843  55.019  1.00  0.00     0.026 A 
HETATM   32  C   UNL     1       8.131  21.299  53.707  1.00  0.00     0.036 A 
HETATM   33 CL   UNL     1       8.501  20.167  52.461  1.00  0.00    -0.084 Cl
ENDBRANCH   2  23
TORSDOF 7
ENDMDL
MODEL 5
REMARK VINA RESULT:      -9.0      1.985      3.044
REMARK  7 active torsions:
REMARK  status: ('A' for Active; 'I' for Inactive)
REMARK    1  A    between atoms: O_2  and  C_3 
REMARK    2  A    between atoms: C_5  and  C_6 
REMARK    3  A    between atoms: C_6  and  O_7 
REMARK    4  A    between atoms: C_6  and  C_8 
REMARK    5  A    between atoms: C_8  and  N_9 
REMARK       I    between atoms: N_9  and  C_10 
REMARK    6  A    between atoms: C_10  and  C_11 
REMARK    7  A    between atoms: C_12  and  C_13 
ROOT
HETATM    1  C   UNL     1       8.124  23.982  55.073  1.00  0.00     0.089 C 
HETATM    2  C   UNL     1       7.112  23.640  53.936  1.00  0.00     0.068 C 
HETATM    3  C   UNL     1       7.663  22.620  52.914  1.00  0.00     0.013 C 
HETATM    4  C   UNL     1       8.293  21.397  53.558  1.00  0.00     0.001 C 
HETATM    5  C   UNL     1       9.403  21.826  54.499  1.00  0.00     0.001 C 
HETATM    6  C   UNL     1       8.850  22.724  55.595  1.00  0.00     0.015 C 
ENDROOT
BRANCH   1   7
HETATM    7  C   UNL     1       7.410  24.760  56.210  1.00  0.00     0.222 C 
HETATM    8  N   UNL     1       8.120  25.723  56.884  1.00  0.00    -0.358 N 
HETATM    9  H   UNL     1       9.037  25.992  56.562  1.00  0.00     0.162 HD
HETATM   10  O   UNL     1       6.233  24.549  56.502  1.00  0.00    -0.273 OA
BRANCH   8  11
HETATM   11  C   UNL     1       7.504  26.620  57.855  1.00  0.00     0.159 C 
BRANCH  11  12
HETATM   12  C   UNL     1       7.598  28.140  57.588  1.00  0.00     0.169 C 
BRANCH  12  13
HETATM   13  C   UNL     1       6.378  28.729  56.907  1.00  0.00    -0.025 A 
HETATM   14  C   UNL     1       6.328  30.092  56.566  1.00  0.00     0.046 A 
HETATM   15  C   UNL     1       5.213  30.625  55.917  1.00  0.00     0.068 A 
HETATM   16  C   UNL     1       4.133  29.792  55.619  1.00  0.00     0.037 A 
HETATM   17  C   UNL     1       4.165  28.438  55.954  1.00  0.00     0.003 A 
HETATM   18  C   UNL     1       5.285  27.909  56.592  1.00  0.00     0.010 A 
BRANCH  15  19
HETATM   19  O   UNL     1       5.057  31.926  55.525  1.00  0.00    -0.356 OA
HETATM   20  C   UNL     1       4.065  32.686  56.204  1.00  0.00     0.210 C 
ENDBRANCH  15  19
ENDBRANCH  12  13
BRANCH  12  21
HETATM   21  O   UNL     1       7.785  28.811  58.843  1.00  0.00    -0.389 OA
HETATM   22  H   UNL     1       8.199  28.164  59.441  1.00  0.00     0.210 HD
ENDBRANCH  12  21
ENDBRANCH  11  12
ENDBRANCH   8  11
ENDBRANCH   1   7
BRANCH   2  23
HETATM   23  C   UNL     1       6.649  24.860  53.167  1.00  0.00     0.110 A 
HETATM   24  N   UNL     1       6.076  24.888  51.979  1.00  0.00    -0.233 NA
HETATM   25  C   UNL     1       5.810  26.213  51.721  1.00  0.00     0.087 A 
HETATM   26  C   UNL     1       6.224  27.016  52.776  1.00  0.00     0.062 A 
HETATM   27  C   UNL     1       5.221  26.807  50.597  1.00  0.00     0.057 A 
HETATM   28  N   UNL     1       6.752  26.132  53.678  1.00  0.00    -0.342 N 
HETATM   29  C   UNL     1       6.099  28.406  52.788  1.00  0.00     0.034 A 
HETATM   30  H   UNL     1       7.264  26.373  54.515  1.00  0.00     0.167 HD
HETATM   31  C   UNL     1       5.508  28.985  51.661  1.00  0.00     0.026 A 
HETATM   32  C   UNL     1       5.080  28.199  50.587  1.00  0.00     0.036 A 
HETATM   33 CL   UNL     1       4.365  28.963  49.218  1.00  0.00    -0.084 Cl
ENDBRANCH   2  23
TORSDOF 7
ENDMDL
MODEL 6
REMARK VINA RESULT:      -9.0      2.984      5.828
REMARK  7 active torsions:
REMARK  status: ('A' for Active; 'I' for Inactive)
REMARK    1  A    between atoms: O_2  and  C_3 
REMARK    2  A    between atoms: C_5  and  C_6 
REMARK    3  A    between atoms: C_6  and  O_7 
REMARK    4  A    between atoms: C_6  and  C_8 
REMARK    5  A    between atoms: C_8  and  N_9 
REMARK       I    between atoms: N_9  and  C_10 
REMARK    6  A    between atoms: C_10  and  C_11 
REMARK    7  A    between atoms: C_12  and  C_13 
ROOT
HETATM    1  C   UNL     1       3.216  28.660  51.849  1.00  0.00     0.089 C 
HETATM    2  C   UNL     1       4.358  28.063  50.969  1.00  0.00     0.068 C 
HETATM    3  C   UNL     1       3.858  27.495  49.622  1.00  0.00     0.013 C 
HETATM    4  C   UNL     1       2.939  28.441  48.869  1.00  0.00     0.001 C 
HETATM    5  C   UNL     1       1.752  28.807  49.739  1.00  0.00     0.001 C 
HETATM    6  C   UNL     1       2.222  29.493  51.012  1.00  0.00     0.015 C 
ENDROOT
BRANCH   1   7
HETATM    7  C   UNL     1       3.815  29.472  53.027  1.00  0.00     0.222 C 
HETATM    8  N   UNL     1       3.806  28.907  54.278  1.00  0.00    -0.358 N 
HETATM    9  H   UNL     1       3.526  27.944  54.395  1.00  0.00     0.162 HD
HETATM   10  O   UNL     1       4.309  30.588  52.862  1.00  0.00    -0.273 OA
BRANCH   8  11
HETATM   11  C   UNL     1       4.484  29.510  55.420  1.00  0.00     0.159 C 
BRANCH  11  12
HETATM   12  C   UNL     1       4.605  28.666  56.710  1.00  0.00     0.169 C 
BRANCH  12  13
HETATM   13  C   UNL     1       5.938  27.963  56.870  1.00  0.00    -0.025 A 
HETATM   14  C   UNL     1       7.142  28.691  56.891  1.00  0.00     0.046 A 
HETATM   15  C   UNL     1       8.365  28.043  57.063  1.00  0.00     0.068 A 
HETATM   16  C   UNL     1       8.389  26.653  57.200  1.00  0.00     0.037 A 
HETATM   17  C   UNL     1       7.204  25.916  57.178  1.00  0.00     0.003 A 
HETATM   18  C   UNL     1       5.985  26.570  57.016  1.00  0.00     0.010 A 
BRANCH  15  19
HETATM   19  O   UNL     1       9.592  28.643  57.114  1.00  0.00    -0.356 OA
HETATM   20  C   UNL     1       9.891  29.580  56.086  1.00  0.00     0.210 C 
ENDBRANCH  15  19
ENDBRANCH  12  13
BRANCH  12  21
HETATM   21  O   UNL     1       4.409  29.531  57.838  1.00  0.00    -0.389 OA
HETATM   22  H   UNL     1       5.005  29.208  58.538  1.00  0.00     0.210 HD
ENDBRANCH  12  21
ENDBRANCH  11  12
ENDBRANCH   8  11
ENDBRANCH   1   7
BRANCH   2  23
HETATM   23  C   UNL     1       5.137  26.970  51.671  1.00  0.00     0.110 A 
HETATM   24  N   UNL     1       4.815  26.348  52.789  1.00  0.00    -0.233 NA
HETATM   25  C   UNL     1       5.809  25.421  53.003  1.00  0.00     0.087 A 
HETATM   26  C   UNL     1       6.759  25.471  51.993  1.00  0.00     0.062 A 
HETATM   27  C   UNL     1       5.969  24.504  54.051  1.00  0.00     0.057 A 
HETATM   28  N   UNL     1       6.309  26.461  51.163  1.00  0.00    -0.342 N 
HETATM   29  C   UNL     1       7.894  24.658  51.953  1.00  0.00     0.034 A 
HETATM   30  H   UNL     1       6.815  26.860  50.384  1.00  0.00     0.167 HD
HETATM   31  C   UNL     1       8.040  23.747  53.004  1.00  0.00     0.026 A 
HETATM   32  C   UNL     1       7.095  23.674  54.031  1.00  0.00     0.036 A 
HETATM   33 CL   UNL     1       7.326  22.539  55.307  1.00  0.00    -0.084 Cl
ENDBRANCH   2  23
TORSDOF 7
ENDMDL
MODEL 7
REMARK VINA RESULT:      -8.7      3.902      8.753
REMARK  7 active torsions:
REMARK  status: ('A' for Active; 'I' for Inactive)
REMARK    1  A    between atoms: O_2  and  C_3 
REMARK    2  A    between atoms: C_5  and  C_6 
REMARK    3  A    between atoms: C_6  and  O_7 
REMARK    4  A    between atoms: C_6  and  C_8 
REMARK    5  A    between atoms: C_8  and  N_9 
REMARK       I    between atoms: N_9  and  C_10 
REMARK    6  A    between atoms: C_10  and  C_11 
REMARK    7  A    between atoms: C_12  and  C_13 
ROOT
HETATM    1  C   UNL     1       8.047  29.677  57.680  1.00  0.00     0.089 C 
HETATM    2  C   UNL     1       8.426  31.120  58.134  1.00  0.00     0.068 C 
HETATM    3  C   UNL     1       9.921  31.276  58.491  1.00  0.00     0.013 C 
HETATM    4  C   UNL     1      10.857  30.700  57.443  1.00  0.00     0.001 C 
HETATM    5  C   UNL     1      10.537  29.235  57.216  1.00  0.00     0.001 C 
HETATM    6  C   UNL     1       9.105  29.076  56.731  1.00  0.00     0.015 C 
ENDROOT
BRANCH   1   7
HETATM    7  C   UNL     1       6.626  29.667  57.056  1.00  0.00     0.222 C 
HETATM    8  N   UNL     1       6.516  29.549  55.692  1.00  0.00    -0.358 N 
HETATM    9  H   UNL     1       7.335  29.355  55.134  1.00  0.00     0.162 HD
HETATM   10  O   UNL     1       5.612  29.741  57.748  1.00  0.00    -0.273 OA
BRANCH   8  11
HETATM   11  C   UNL     1       5.236  29.369  55.018  1.00  0.00     0.159 C 
BRANCH  11  12
HETATM   12  C   UNL     1       4.573  27.974  55.099  1.00  0.00     0.169 C 
BRANCH  12  13
HETATM   13  C   UNL     1       5.556  26.822  55.167  1.00  0.00    -0.025 A 
HETATM   14  C   UNL     1       6.307  26.445  54.039  1.00  0.00     0.046 A 
HETATM   15  C   UNL     1       7.229  25.400  54.113  1.00  0.00     0.068 A 
HETATM   16  C   UNL     1       7.390  24.714  55.319  1.00  0.00     0.037 A 
HETATM   17  C   UNL     1       6.650  25.073  56.445  1.00  0.00     0.003 A 
HETATM   18  C   UNL     1       5.739  26.124  56.369  1.00  0.00     0.010 A 
BRANCH  15  19
HETATM   19  O   UNL     1       8.023  24.956  53.092  1.00  0.00    -0.356 OA
HETATM   20  C   UNL     1       8.001  23.559  52.824  1.00  0.00     0.210 C 
ENDBRANCH  15  19
ENDBRANCH  12  13
BRANCH  12  21
HETATM   21  O   UNL     1       3.743  27.932  56.269  1.00  0.00    -0.389 OA
HETATM   22  H   UNL     1       3.799  27.023  56.613  1.00  0.00     0.210 HD
ENDBRANCH  12  21
ENDBRANCH  11  12
ENDBRANCH   8  11
ENDBRANCH   1   7
BRANCH   2  23
HETATM   23  C   UNL     1       7.615  31.602  59.320  1.00  0.00     0.110 A 
HETATM   24  N   UNL     1       7.914  31.476  60.599  1.00  0.00    -0.233 NA
HETATM   25  C   UNL     1       6.897  32.097  61.285  1.00  0.00     0.087 A 
HETATM   26  C   UNL     1       5.955  32.619  60.410  1.00  0.00     0.062 A 
HETATM   27  C   UNL     1       6.707  32.247  62.666  1.00  0.00     0.057 A 
HETATM   28  N   UNL     1       6.434  32.290  59.171  1.00  0.00    -0.342 N 
HETATM   29  C   UNL     1       4.800  33.289  60.821  1.00  0.00     0.034 A 
HETATM   30  H   UNL     1       5.943  32.401  58.295  1.00  0.00     0.167 HD
HETATM   31  C   UNL     1       4.625  33.432  62.200  1.00  0.00     0.026 A 
HETATM   32  C   UNL     1       5.562  32.919  63.103  1.00  0.00     0.036 A 
HETATM   33 CL   UNL     1       5.295  33.116  64.794  1.00  0.00    -0.084 Cl
ENDBRANCH   2  23
TORSDOF 7
ENDMDL
MODEL 8
REMARK VINA RESULT:      -8.7      1.492      2.054
REMARK  7 active torsions:
REMARK  status: ('A' for Active; 'I' for Inactive)
REMARK    1  A    between atoms: O_2  and  C_3 
REMARK    2  A    between atoms: C_5  and  C_6 
REMARK    3  A    between atoms: C_6  and  O_7 
REMARK    4  A    between atoms: C_6  and  C_8 
REMARK    5  A    between atoms: C_8  and  N_9 
REMARK       I    between atoms: N_9  and  C_10 
REMARK    6  A    between atoms: C_10  and  C_11 
REMARK    7  A    between atoms: C_12  and  C_13 
ROOT
HETATM    1  C   UNL     1       8.066  24.574  55.391  1.00  0.00     0.089 C 
HETATM    2  C   UNL     1       6.820  24.028  54.627  1.00  0.00     0.068 C 
HETATM    3  C   UNL     1       7.144  22.830  53.706  1.00  0.00     0.013 C 
HETATM    4  C   UNL     1       7.964  21.748  54.386  1.00  0.00     0.001 C 
HETATM    5  C   UNL     1       9.253  22.341  54.923  1.00  0.00     0.001 C 
HETATM    6  C   UNL     1       8.950  23.433  55.937  1.00  0.00     0.015 C 
ENDROOT
BRANCH   1   7
HETATM    7  C   UNL     1       7.623  25.557  56.506  1.00  0.00     0.222 C 
HETATM    8  N   UNL     1       7.928  26.888  56.358  1.00  0.00    -0.358 N 
HETATM    9  H   UNL     1       8.322  27.222  55.491  1.00  0.00     0.162 HD
HETATM   10  O   UNL     1       6.996  25.178  57.495  1.00  0.00    -0.273 OA
BRANCH   8  11
HETATM   11  C   UNL     1       7.423  27.916  57.261  1.00  0.00     0.159 C 
BRANCH  11  12
HETATM   12  C   UNL     1       8.101  29.305  57.216  1.00  0.00     0.169 C 
BRANCH  12  13
HETATM   13  C   UNL     1       7.712  30.224  58.357  1.00  0.00    -0.025 A 
HETATM   14  C   UNL     1       8.426  30.214  59.569  1.00  0.00     0.046 A 
HETATM   15  C   UNL     1       8.079  31.078  60.608  1.00  0.00     0.068 A 
HETATM   16  C   UNL     1       7.002  31.951  60.442  1.00  0.00     0.037 A 
HETATM   17  C   UNL     1       6.282  31.971  59.247  1.00  0.00     0.003 A 
HETATM   18  C   UNL     1       6.638  31.113  58.209  1.00  0.00     0.010 A 
BRANCH  15  19
HETATM   19  O   UNL     1       8.705  31.168  61.821  1.00  0.00    -0.356 OA
HETATM   20  C   UNL     1       8.193  32.128  62.737  1.00  0.00     0.210 C 
ENDBRANCH  15  19
ENDBRANCH  12  13
BRANCH  12  21
HETATM   21  O   UNL     1       9.524  29.118  57.249  1.00  0.00    -0.389 OA
HETATM   22  H   UNL     1       9.812  29.048  56.321  1.00  0.00     0.210 HD
ENDBRANCH  12  21
ENDBRANCH  11  12
ENDBRANCH   8  11
ENDBRANCH   1   7
BRANCH   2  23
HETATM   23  C   UNL     1       6.130  25.083  53.786  1.00  0.00     0.110 A 
HETATM   24  N   UNL     1       5.448  26.128  54.214  1.00  0.00    -0.233 NA
HETATM   25  C   UNL     1       5.049  26.805  53.085  1.00  0.00     0.087 A 
HETATM   26  C   UNL     1       5.500  26.165  51.939  1.00  0.00     0.062 A 
HETATM   27  C   UNL     1       4.288  27.975  52.963  1.00  0.00     0.057 A 
HETATM   28  N   UNL     1       6.181  25.077  52.413  1.00  0.00    -0.342 N 
HETATM   29  C   UNL     1       5.232  26.613  50.644  1.00  0.00     0.034 A 
HETATM   30  H   UNL     1       6.542  24.313  51.857  1.00  0.00     0.167 HD
HETATM   31  C   UNL     1       4.473  27.782  50.537  1.00  0.00     0.026 A 
HETATM   32  C   UNL     1       4.011  28.447  51.676  1.00  0.00     0.036 A 
HETATM   33 CL   UNL     1       3.073  29.881  51.489  1.00  0.00    -0.084 Cl
ENDBRANCH   2  23
TORSDOF 7
ENDMDL
MODEL 9
REMARK VINA RESULT:      -8.6      2.703      5.148
REMARK  7 active torsions:
REMARK  status: ('A' for Active; 'I' for Inactive)
REMARK    1  A    between atoms: O_2  and  C_3 
REMARK    2  A    between atoms: C_5  and  C_6 
REMARK    3  A    between atoms: C_6  and  O_7 
REMARK    4  A    between atoms: C_6  and  C_8 
REMARK    5  A    between atoms: C_8  and  N_9 
REMARK       I    between atoms: N_9  and  C_10 
REMARK    6  A    between atoms: C_10  and  C_11 
REMARK    7  A    between atoms: C_12  and  C_13 
ROOT
HETATM    1  C   UNL     1       4.851  27.875  54.331  1.00  0.00     0.089 C 
HETATM    2  C   UNL     1       5.708  27.349  53.139  1.00  0.00     0.068 C 
HETATM    3  C   UNL     1       4.938  27.318  51.799  1.00  0.00     0.013 C 
HETATM    4  C   UNL     1       4.199  28.610  51.496  1.00  0.00     0.001 C 
HETATM    5  C   UNL     1       3.241  28.932  52.627  1.00  0.00     0.001 C 
HETATM    6  C   UNL     1       4.002  29.101  53.932  1.00  0.00     0.015 C 
ENDROOT
BRANCH   1   7
HETATM    7  C   UNL     1       5.758  28.164  55.557  1.00  0.00     0.222 C 
HETATM    8  N   UNL     1       6.608  29.241  55.498  1.00  0.00    -0.358 N 
HETATM    9  H   UNL     1       6.549  29.888  54.726  1.00  0.00     0.162 HD
HETATM   10  O   UNL     1       5.718  27.470  56.572  1.00  0.00    -0.273 OA
BRANCH   8  11
HETATM   11  C   UNL     1       7.382  29.696  56.646  1.00  0.00     0.159 C 
BRANCH  11  12
HETATM   12  C   UNL     1       6.628  30.446  57.769  1.00  0.00     0.169 C 
BRANCH  12  13
HETATM   13  C   UNL     1       7.531  31.118  58.783  1.00  0.00    -0.025 A 
HETATM   14  C   UNL     1       6.995  31.769  59.909  1.00  0.00     0.046 A 
HETATM   15  C   UNL     1       7.831  32.366  60.854  1.00  0.00     0.068 A 
HETATM   16  C   UNL     1       9.214  32.325  60.666  1.00  0.00     0.037 A 
HETATM   17  C   UNL     1       9.761  31.686  59.553  1.00  0.00     0.003 A 
HETATM   18  C   UNL     1       8.923  31.083  58.618  1.00  0.00     0.010 A 
BRANCH  15  19
HETATM   19  O   UNL     1       7.428  33.012  61.989  1.00  0.00    -0.356 OA
HETATM   20  C   UNL     1       7.958  32.535  63.221  1.00  0.00     0.210 C 
ENDBRANCH  15  19
ENDBRANCH  12  13
BRANCH  12  21
HETATM   21  O   UNL     1       5.796  31.448  57.166  1.00  0.00    -0.389 OA
HETATM   22  H   UNL     1       6.119  31.560  56.254  1.00  0.00     0.210 HD
ENDBRANCH  12  21
ENDBRANCH  11  12
ENDBRANCH   8  11
ENDBRANCH   1   7
BRANCH   2  23
HETATM   23  C   UNL     1       6.272  25.963  53.379  1.00  0.00     0.110 A 
HETATM   24  N   UNL     1       6.777  25.137  52.483  1.00  0.00    -0.233 NA
HETATM   25  C   UNL     1       7.186  24.027  53.184  1.00  0.00     0.087 A 
HETATM   26  C   UNL     1       6.932  24.176  54.540  1.00  0.00     0.062 A 
HETATM   27  C   UNL     1       7.779  22.843  52.723  1.00  0.00     0.057 A 
HETATM   28  N   UNL     1       6.352  25.411  54.636  1.00  0.00    -0.342 N 
HETATM   29  C   UNL     1       7.225  23.201  55.497  1.00  0.00     0.034 A 
HETATM   30  H   UNL     1       5.920  25.803  55.462  1.00  0.00     0.167 HD
HETATM   31  C   UNL     1       7.817  22.027  55.023  1.00  0.00     0.026 A 
HETATM   32  C   UNL     1       8.087  21.854  53.662  1.00  0.00     0.036 A 
HETATM   33 CL   UNL     1       8.812  20.384  53.129  1.00  0.00    -0.084 Cl
ENDBRANCH   2  23
TORSDOF 7
ENDMDL
MODEL 10
REMARK VINA RESULT:      -8.6      3.512      8.142
REMARK  7 active torsions:
REMARK  status: ('A' for Active; 'I' for Inactive)
REMARK    1  A    between atoms: O_2  and  C_3 
REMARK    2  A    between atoms: C_5  and  C_6 
REMARK    3  A    between atoms: C_6  and  O_7 
REMARK    4  A    between atoms: C_6  and  C_8 
REMARK    5  A    between atoms: C_8  and  N_9 
REMARK       I    between atoms: N_9  and  C_10 
REMARK    6  A    between atoms: C_10  and  C_11 
REMARK    7  A    between atoms: C_12  and  C_13 
ROOT
HETATM    1  C   UNL     1       5.456  26.422  53.660  1.00  0.00     0.089 C 
HETATM    2  C   UNL     1       6.937  26.864  53.452  1.00  0.00     0.068 C 
HETATM    3  C   UNL     1       7.899  25.680  53.202  1.00  0.00     0.013 C 
HETATM    4  C   UNL     1       7.399  24.705  52.150  1.00  0.00     0.001 C 
HETATM    5  C   UNL     1       6.032  24.177  52.545  1.00  0.00     0.001 C 
HETATM    6  C   UNL     1       5.038  25.321  52.661  1.00  0.00     0.015 C 
ENDROOT
BRANCH   1   7
HETATM    7  C   UNL     1       4.515  27.655  53.601  1.00  0.00     0.222 C 
HETATM    8  N   UNL     1       4.118  28.111  52.368  1.00  0.00    -0.358 N 
HETATM    9  H   UNL     1       4.340  27.581  51.538  1.00  0.00     0.162 HD
HETATM   10  O   UNL     1       4.108  28.211  54.620  1.00  0.00    -0.273 OA
BRANCH   8  11
HETATM   11  C   UNL     1       3.114  29.156  52.201  1.00  0.00     0.159 C 
BRANCH  11  12
HETATM   12  C   UNL     1       2.471  29.315  50.804  1.00  0.00     0.169 C 
BRANCH  12  13
HETATM   13  C   UNL     1       3.318  28.783  49.665  1.00  0.00    -0.025 A 
HETATM   14  C   UNL     1       2.856  27.732  48.851  1.00  0.00     0.046 A 
HETATM   15  C   UNL     1       3.628  27.261  47.788  1.00  0.00     0.068 A 
HETATM   16  C   UNL     1       4.879  27.833  47.545  1.00  0.00     0.037 A 
HETATM   17  C   UNL     1       5.352  28.873  48.346  1.00  0.00     0.003 A 
HETATM   18  C   UNL     1       4.573  29.347  49.398  1.00  0.00     0.010 A 
BRANCH  15  19
HETATM   19  O   UNL     1       3.279  26.261  46.924  1.00  0.00    -0.356 OA
HETATM   20  C   UNL     1       3.005  24.987  47.495  1.00  0.00     0.210 C 
ENDBRANCH  15  19
ENDBRANCH  12  13
BRANCH  12  21
HETATM   21  O   UNL     1       1.215  28.621  50.799  1.00  0.00    -0.389 OA
HETATM   22  H   UNL     1       0.919  28.597  49.872  1.00  0.00     0.210 HD
ENDBRANCH  12  21
ENDBRANCH  11  12
ENDBRANCH   8  11
ENDBRANCH   1   7
BRANCH   2  23
HETATM   23  C   UNL     1       7.485  27.667  54.613  1.00  0.00     0.110 A 
HETATM   24  N   UNL     1       8.492  28.520  54.592  1.00  0.00    -0.233 NA
HETATM   25  C   UNL     1       8.587  29.020  55.870  1.00  0.00     0.087 A 
HETATM   26  C   UNL     1       7.616  28.466  56.692  1.00  0.00     0.062 A 
HETATM   27  C   UNL     1       9.490  29.950  56.405  1.00  0.00     0.057 A 
HETATM   28  N   UNL     1       6.933  27.612  55.870  1.00  0.00    -0.342 N 
HETATM   29  C   UNL     1       7.481  28.771  58.048  1.00  0.00     0.034 A 
HETATM   30  H   UNL     1       6.233  26.942  56.159  1.00  0.00     0.167 HD
HETATM   31  C   UNL     1       8.387  29.700  58.567  1.00  0.00     0.026 A 
HETATM   32  C   UNL     1       9.372  30.276  57.759  1.00  0.00     0.036 A 
HETATM   33 CL   UNL     1      10.469  31.411  58.451  1.00  0.00    -0.084 Cl
ENDBRANCH   2  23
TORSDOF 7
ENDMDL
