MODEL 1
REMARK VINA RESULT:      -8.8      0.000      0.000
REMARK  9 active torsions:
REMARK  status: ('A' for Active; 'I' for Inactive)
REMARK    1  A    between atoms: C_2  and  N_3 
REMARK    2  A    between atoms: N_3  and  C_5 
REMARK    3  A    between atoms: N_3  and  C_30 
REMARK    4  A    between atoms: C_5  and  C_6 
REMARK    5  A    between atoms: C_5  and  C_14 
REMARK    6  A    between atoms: C_8  and  O_9 
REMARK    7  A    between atoms: C_14  and  N_15 
REMARK       I    between atoms: N_15  and  C_16 
REMARK    8  A    between atoms: C_16  and  C_17 
REMARK    9  A    between atoms: C_18  and  N_19 
ROOT
HETATM    1  C   UNL     1       7.327  26.900  57.624  1.00  0.00     0.161 C 
ENDROOT
BRANCH   1   2
HETATM    2  C   UNL     1       7.623  27.984  56.529  1.00  0.00     0.238 C 
BRANCH   2   3
HETATM    3  N   UNL     1       6.335  28.649  56.008  1.00  0.00    -0.062 N 
HETATM    4  H   UNL     1       6.617  29.648  56.020  1.00  0.00     0.280 HD
BRANCH   3   5
HETATM    5  C   UNL     1       5.159  28.536  56.961  1.00  0.00     0.231 C 
HETATM    6  C   UNL     1       4.792  29.875  57.572  1.00  0.00     0.034 C 
ENDBRANCH   3   5
BRANCH   3   7
HETATM    7  C   UNL     1       5.952  28.284  54.596  1.00  0.00     0.231 C 
HETATM    8  C   UNL     1       4.442  28.237  54.440  1.00  0.00     0.034 C 
ENDBRANCH   3   7
ENDBRANCH   2   3
BRANCH   2   9
HETATM    9  C   UNL     1       8.719  28.951  56.952  1.00  0.00    -0.023 A 
HETATM   10  C   UNL     1       8.380  30.069  57.746  1.00  0.00     0.046 A 
HETATM   11  C   UNL     1       9.355  30.977  58.163  1.00  0.00     0.068 A 
HETATM   12  C   UNL     1      10.686  30.761  57.811  1.00  0.00     0.037 A 
HETATM   13  C   UNL     1      11.040  29.671  57.019  1.00  0.00     0.003 A 
HETATM   14  C   UNL     1      10.063  28.775  56.586  1.00  0.00     0.009 A 
BRANCH  11  15
HETATM   15  O   UNL     1       9.135  32.084  58.932  1.00  0.00    -0.356 OA
HETATM   16  C   UNL     1       9.554  32.019  60.289  1.00  0.00     0.210 C 
ENDBRANCH  11  15
ENDBRANCH   2   9
ENDBRANCH   1   2
BRANCH   1  17
HETATM   17  N   UNL     1       7.403  25.483  57.248  1.00  0.00    -0.354 N 
HETATM   18  C   UNL     1       6.528  24.923  56.329  1.00  0.00     0.253 C 
HETATM   19  O   UNL     1       5.376  25.333  56.248  1.00  0.00    -0.268 OA
HETATM   20  H   UNL     1       8.335  25.079  57.266  1.00  0.00     0.162 HD
BRANCH  18  21
HETATM   21  C   UNL     1       7.086  23.842  55.464  1.00  0.00     0.059 A 
HETATM   22  C   UNL     1       7.100  23.891  54.049  1.00  0.00     0.046 A 
HETATM   23  C   UNL     1       7.823  22.854  53.416  1.00  0.00     0.031 A 
HETATM   24  C   UNL     1       8.448  21.814  54.116  1.00  0.00     0.009 A 
HETATM   25  C   UNL     1       8.398  21.769  55.502  1.00  0.00    -0.061 A 
HETATM   26  C   UNL     1       9.111  20.689  56.260  1.00  0.00     0.048 C 
HETATM   27  C   UNL     1       7.741  22.802  56.170  1.00  0.00     0.026 A 
BRANCH  22  28
HETATM   28  N   UNL     1       6.482  24.863  53.276  1.00  0.00    -0.380 N 
HETATM   29  C   UNL     1       5.055  24.832  52.961  1.00  0.00     0.123 C 
HETATM   30  C   UNL     1       4.933  25.549  51.617  1.00  0.00     0.021 C 
HETATM   31  C   UNL     1       6.111  26.506  51.633  1.00  0.00     0.021 C 
HETATM   32  C   UNL     1       7.202  25.651  52.265  1.00  0.00     0.123 C 
ENDBRANCH  22  28
ENDBRANCH  18  21
ENDBRANCH   1  17
TORSDOF 9
ENDMDL
MODEL 2
REMARK VINA RESULT:      -8.5      3.405      6.936
REMARK  9 active torsions:
REMARK  status: ('A' for Active; 'I' for Inactive)
REMARK    1  A    between atoms: C_2  and  N_3 
REMARK    2  A    between atoms: N_3  and  C_5 
REMARK    3  A    between atoms: N_3  and  C_30 
REMARK    4  A    between atoms: C_5  and  C_6 
REMARK    5  A    between atoms: C_5  and  C_14 
REMARK    6  A    between atoms: C_8  and  O_9 
REMARK    7  A    between atoms: C_14  and  N_15 
REMARK       I    between atoms: N_15  and  C_16 
REMARK    8  A    between atoms: C_16  and  C_17 
REMARK    9  A    between atoms: C_18  and  N_19 
ROOT
HETATM    1  C   UNL     1       6.011  26.992  52.460  1.00  0.00     0.161 C 
ENDROOT
BRANCH   1   2
HETATM    2  C   UNL     1       4.688  27.455  51.756  1.00  0.00     0.238 C 
BRANCH   2   3
HETATM    3  N   UNL     1       4.052  28.670  52.457  1.00  0.00    -0.062 N 
HETATM    4  H   UNL     1       4.759  29.402  52.250  1.00  0.00     0.280 HD
BRANCH   3   5
HETATM    5  C   UNL     1       4.007  28.549  53.969  1.00  0.00     0.231 C 
HETATM    6  C   UNL     1       4.652  29.740  54.653  1.00  0.00     0.034 C 
ENDBRANCH   3   5
BRANCH   3   7
HETATM    7  C   UNL     1       2.729  29.117  51.889  1.00  0.00     0.231 C 
HETATM    8  C   UNL     1       2.814  30.544  51.377  1.00  0.00     0.034 C 
ENDBRANCH   3   7
ENDBRANCH   2   3
BRANCH   2   9
HETATM    9  C   UNL     1       4.851  27.596  50.249  1.00  0.00    -0.023 A 
HETATM   10  C   UNL     1       4.263  26.632  49.401  1.00  0.00     0.046 A 
HETATM   11  C   UNL     1       4.381  26.727  48.014  1.00  0.00     0.068 A 
HETATM   12  C   UNL     1       5.069  27.804  47.458  1.00  0.00     0.037 A 
HETATM   13  C   UNL     1       5.667  28.759  48.276  1.00  0.00     0.003 A 
HETATM   14  C   UNL     1       5.565  28.654  49.663  1.00  0.00     0.009 A 
BRANCH  11  15
HETATM   15  O   UNL     1       3.850  25.854  47.108  1.00  0.00    -0.356 OA
HETATM   16  C   UNL     1       2.953  24.871  47.609  1.00  0.00     0.210 C 
ENDBRANCH  11  15
ENDBRANCH   2   9
ENDBRANCH   1   2
BRANCH   1  17
HETATM   17  N   UNL     1       6.256  25.554  52.619  1.00  0.00    -0.354 N 
HETATM   18  C   UNL     1       7.540  25.035  52.706  1.00  0.00     0.253 C 
HETATM   19  O   UNL     1       8.460  25.568  52.097  1.00  0.00    -0.268 OA
HETATM   20  H   UNL     1       5.544  25.048  53.139  1.00  0.00     0.162 HD
BRANCH  18  21
HETATM   21  C   UNL     1       7.709  23.841  53.585  1.00  0.00     0.059 A 
HETATM   22  C   UNL     1       7.441  23.839  54.976  1.00  0.00     0.046 A 
HETATM   23  C   UNL     1       7.497  22.573  55.600  1.00  0.00     0.031 A 
HETATM   24  C   UNL     1       7.840  21.396  54.921  1.00  0.00     0.009 A 
HETATM   25  C   UNL     1       8.127  21.423  53.564  1.00  0.00    -0.061 A 
HETATM   26  C   UNL     1       8.440  20.159  52.821  1.00  0.00     0.048 C 
HETATM   27  C   UNL     1       8.030  22.644  52.897  1.00  0.00     0.026 A 
BRANCH  22  28
HETATM   28  N   UNL     1       7.126  24.960  55.731  1.00  0.00    -0.380 N 
HETATM   29  C   UNL     1       8.074  25.581  56.655  1.00  0.00     0.123 C 
HETATM   30  C   UNL     1       7.207  26.226  57.734  1.00  0.00     0.021 C 
HETATM   31  C   UNL     1       5.915  26.530  56.997  1.00  0.00     0.021 C 
HETATM   32  C   UNL     1       5.750  25.291  56.127  1.00  0.00     0.123 C 
ENDBRANCH  22  28
ENDBRANCH  18  21
ENDBRANCH   1  17
TORSDOF 9
ENDMDL
MODEL 3
REMARK VINA RESULT:      -8.3      2.345      6.255
REMARK  9 active torsions:
REMARK  status: ('A' for Active; 'I' for Inactive)
REMARK    1  A    between atoms: C_2  and  N_3 
REMARK    2  A    between atoms: N_3  and  C_5 
REMARK    3  A    between atoms: N_3  and  C_30 
REMARK    4  A    between atoms: C_5  and  C_6 
REMARK    5  A    between atoms: C_5  and  C_14 
REMARK    6  A    between atoms: C_8  and  O_9 
REMARK    7  A    between atoms: C_14  and  N_15 
REMARK       I    between atoms: N_15  and  C_16 
REMARK    8  A    between atoms: C_16  and  C_17 
REMARK    9  A    between atoms: C_18  and  N_19 
ROOT
HETATM    1  C   UNL     1       8.043  24.413  53.028  1.00  0.00     0.161 C 
ENDROOT
BRANCH   1   2
HETATM    2  C   UNL     1       7.419  23.664  54.257  1.00  0.00     0.238 C 
BRANCH   2   3
HETATM    3  N   UNL     1       8.244  22.428  54.663  1.00  0.00    -0.062 N 
HETATM    4  H   UNL     1       9.012  22.879  55.198  1.00  0.00     0.280 HD
BRANCH   3   5
HETATM    5  C   UNL     1       8.908  21.725  53.494  1.00  0.00     0.231 C 
HETATM    6  C   UNL     1       8.088  20.549  52.999  1.00  0.00     0.034 C 
ENDBRANCH   3   5
BRANCH   3   7
HETATM    7  C   UNL     1       7.538  21.458  55.576  1.00  0.00     0.231 C 
HETATM    8  C   UNL     1       8.420  21.082  56.753  1.00  0.00     0.034 C 
ENDBRANCH   3   7
ENDBRANCH   2   3
BRANCH   2   9
HETATM    9  C   UNL     1       7.074  24.610  55.399  1.00  0.00    -0.023 A 
HETATM   10  C   UNL     1       8.064  25.494  55.881  1.00  0.00     0.046 A 
HETATM   11  C   UNL     1       7.790  26.383  56.921  1.00  0.00     0.068 A 
HETATM   12  C   UNL     1       6.511  26.415  57.473  1.00  0.00     0.037 A 
HETATM   13  C   UNL     1       5.523  25.544  57.021  1.00  0.00     0.003 A 
HETATM   14  C   UNL     1       5.803  24.642  55.995  1.00  0.00     0.009 A 
BRANCH  11  15
HETATM   15  O   UNL     1       8.671  27.278  57.457  1.00  0.00    -0.356 OA
HETATM   16  C   UNL     1       8.748  28.556  56.837  1.00  0.00     0.210 C 
ENDBRANCH  11  15
ENDBRANCH   2   9
ENDBRANCH   1   2
BRANCH   1  17
HETATM   17  N   UNL     1       7.334  25.576  52.481  1.00  0.00    -0.354 N 
HETATM   18  C   UNL     1       5.959  25.574  52.295  1.00  0.00     0.253 C 
HETATM   19  O   UNL     1       5.381  24.534  52.002  1.00  0.00    -0.268 OA
HETATM   20  H   UNL     1       7.743  26.479  52.706  1.00  0.00     0.162 HD
BRANCH  18  21
HETATM   21  C   UNL     1       5.265  26.880  52.499  1.00  0.00     0.059 A 
HETATM   22  C   UNL     1       4.767  27.683  51.445  1.00  0.00     0.046 A 
HETATM   23  C   UNL     1       3.993  28.795  51.847  1.00  0.00     0.031 A 
HETATM   24  C   UNL     1       3.762  29.126  53.189  1.00  0.00     0.009 A 
HETATM   25  C   UNL     1       4.283  28.342  54.208  1.00  0.00    -0.061 A 
HETATM   26  C   UNL     1       3.994  28.660  55.645  1.00  0.00     0.048 C 
HETATM   27  C   UNL     1       5.008  27.204  53.855  1.00  0.00     0.026 A 
BRANCH  22  28
HETATM   28  N   UNL     1       4.974  27.448  50.093  1.00  0.00    -0.380 N 
HETATM   29  C   UNL     1       5.544  28.451  49.196  1.00  0.00     0.123 C 
HETATM   30  C   UNL     1       4.958  28.128  47.822  1.00  0.00     0.021 C 
HETATM   31  C   UNL     1       4.704  26.634  47.902  1.00  0.00     0.021 C 
HETATM   32  C   UNL     1       4.179  26.480  49.324  1.00  0.00     0.123 C 
ENDBRANCH  22  28
ENDBRANCH  18  21
ENDBRANCH   1  17
TORSDOF 9
ENDMDL
MODEL 4
REMARK VINA RESULT:      -8.1      3.700      7.931
REMARK  9 active torsions:
REMARK  status: ('A' for Active; 'I' for Inactive)
REMARK    1  A    between atoms: C_2  and  N_3 
REMARK    2  A    between atoms: N_3  and  C_5 
REMARK    3  A    between atoms: N_3  and  C_30 
REMARK    4  A    between atoms: C_5  and  C_6 
REMARK    5  A    between atoms: C_5  and  C_14 
REMARK    6  A    between atoms: C_8  and  O_9 
REMARK    7  A    between atoms: C_14  and  N_15 
REMARK       I    between atoms: N_15  and  C_16 
REMARK    8  A    between atoms: C_16  and  C_17 
REMARK    9  A    between atoms: C_18  and  N_19 
ROOT
HETATM    1  C   UNL     1       5.689  26.642  50.633  1.00  0.00     0.161 C 
ENDROOT
BRANCH   1   2
HETATM    2  C   UNL     1       4.340  27.433  50.501  1.00  0.00     0.238 C 
BRANCH   2   3
HETATM    3  N   UNL     1       4.535  28.948  50.698  1.00  0.00    -0.062 N 
HETATM    4  H   UNL     1       3.701  29.315  50.199  1.00  0.00     0.280 HD
BRANCH   3   5
HETATM    5  C   UNL     1       5.739  29.511  49.966  1.00  0.00     0.231 C 
HETATM    6  C   UNL     1       5.463  30.887  49.392  1.00  0.00     0.034 C 
ENDBRANCH   3   5
BRANCH   3   7
HETATM    7  C   UNL     1       4.475  29.422  52.128  1.00  0.00     0.231 C 
HETATM    8  C   UNL     1       3.499  28.585  52.936  1.00  0.00     0.034 C 
ENDBRANCH   3   7
ENDBRANCH   2   3
BRANCH   2   9
HETATM    9  C   UNL     1       3.558  27.042  49.256  1.00  0.00    -0.023 A 
HETATM   10  C   UNL     1       2.537  27.899  48.789  1.00  0.00     0.046 A 
HETATM   11  C   UNL     1       1.800  27.584  47.646  1.00  0.00     0.068 A 
HETATM   12  C   UNL     1       2.097  26.418  46.942  1.00  0.00     0.037 A 
HETATM   13  C   UNL     1       3.091  25.554  47.391  1.00  0.00     0.003 A 
HETATM   14  C   UNL     1       3.814  25.859  48.544  1.00  0.00     0.009 A 
BRANCH  11  15
HETATM   15  O   UNL     1       0.799  28.341  47.110  1.00  0.00    -0.356 OA
HETATM   16  C   UNL     1      -0.070  27.700  46.185  1.00  0.00     0.210 C 
ENDBRANCH  11  15
ENDBRANCH   2   9
ENDBRANCH   1   2
BRANCH   1  17
HETATM   17  N   UNL     1       6.177  26.307  51.976  1.00  0.00    -0.354 N 
HETATM   18  C   UNL     1       5.748  25.172  52.648  1.00  0.00     0.253 C 
HETATM   19  O   UNL     1       4.609  24.754  52.482  1.00  0.00    -0.268 OA
HETATM   20  H   UNL     1       7.129  26.601  52.178  1.00  0.00     0.162 HD
BRANCH  18  21
HETATM   21  C   UNL     1       6.754  24.512  53.532  1.00  0.00     0.059 A 
HETATM   22  C   UNL     1       7.075  24.960  54.837  1.00  0.00     0.046 A 
HETATM   23  C   UNL     1       7.922  24.105  55.577  1.00  0.00     0.031 A 
HETATM   24  C   UNL     1       8.458  22.918  55.061  1.00  0.00     0.009 A 
HETATM   25  C   UNL     1       8.154  22.511  53.770  1.00  0.00    -0.061 A 
HETATM   26  C   UNL     1       8.680  21.213  53.231  1.00  0.00     0.048 C 
HETATM   27  C   UNL     1       7.278  23.297  53.023  1.00  0.00     0.026 A 
BRANCH  22  28
HETATM   28  N   UNL     1       6.616  26.135  55.414  1.00  0.00    -0.380 N 
HETATM   29  C   UNL     1       7.500  27.254  55.735  1.00  0.00     0.123 C 
HETATM   30  C   UNL     1       6.835  27.954  56.919  1.00  0.00     0.021 C 
HETATM   31  C   UNL     1       5.364  27.641  56.718  1.00  0.00     0.021 C 
HETATM   32  C   UNL     1       5.412  26.190  56.255  1.00  0.00     0.123 C 
ENDBRANCH  22  28
ENDBRANCH  18  21
ENDBRANCH   1  17
TORSDOF 9
ENDMDL
MODEL 5
REMARK VINA RESULT:      -8.1      2.528      5.314
REMARK  9 active torsions:
REMARK  status: ('A' for Active; 'I' for Inactive)
REMARK    1  A    between atoms: C_2  and  N_3 
REMARK    2  A    between atoms: N_3  and  C_5 
REMARK    3  A    between atoms: N_3  and  C_30 
REMARK    4  A    between atoms: C_5  and  C_6 
REMARK    5  A    between atoms: C_5  and  C_14 
REMARK    6  A    between atoms: C_8  and  O_9 
REMARK    7  A    between atoms: C_14  and  N_15 
REMARK       I    between atoms: N_15  and  C_16 
REMARK    8  A    between atoms: C_16  and  C_17 
REMARK    9  A    between atoms: C_18  and  N_19 
ROOT
HETATM    1  C   UNL     1       6.072  25.934  51.251  1.00  0.00     0.161 C 
ENDROOT
BRANCH   1   2
HETATM    2  C   UNL     1       5.770  27.469  51.134  1.00  0.00     0.238 C 
BRANCH   2   3
HETATM    3  N   UNL     1       4.915  27.799  49.896  1.00  0.00    -0.062 N 
HETATM    4  H   UNL     1       4.130  28.316  50.338  1.00  0.00     0.280 HD
BRANCH   3   5
HETATM    5  C   UNL     1       4.293  26.580  49.239  1.00  0.00     0.231 C 
HETATM    6  C   UNL     1       4.572  26.533  47.749  1.00  0.00     0.034 C 
ENDBRANCH   3   5
BRANCH   3   7
HETATM    7  C   UNL     1       5.570  28.708  48.888  1.00  0.00     0.231 C 
HETATM    8  C   UNL     1       5.692  30.121  49.431  1.00  0.00     0.034 C 
ENDBRANCH   3   7
ENDBRANCH   2   3
BRANCH   2   9
HETATM    9  C   UNL     1       5.264  28.062  52.441  1.00  0.00    -0.023 A 
HETATM   10  C   UNL     1       6.199  28.496  53.406  1.00  0.00     0.046 A 
HETATM   11  C   UNL     1       5.779  29.053  54.615  1.00  0.00     0.068 A 
HETATM   12  C   UNL     1       4.415  29.205  54.860  1.00  0.00     0.037 A 
HETATM   13  C   UNL     1       3.476  28.772  53.928  1.00  0.00     0.003 A 
HETATM   14  C   UNL     1       3.896  28.198  52.728  1.00  0.00     0.009 A 
BRANCH  11  15
HETATM   15  O   UNL     1       6.597  29.506  55.610  1.00  0.00    -0.356 OA
HETATM   16  C   UNL     1       5.987  30.255  56.654  1.00  0.00     0.210 C 
ENDBRANCH  11  15
ENDBRANCH   2   9
ENDBRANCH   1   2
BRANCH   1  17
HETATM   17  N   UNL     1       6.778  25.447  52.442  1.00  0.00    -0.354 N 
HETATM   18  C   UNL     1       6.157  24.635  53.379  1.00  0.00     0.253 C 
HETATM   19  O   UNL     1       4.959  24.763  53.605  1.00  0.00    -0.268 OA
HETATM   20  H   UNL     1       7.776  25.292  52.322  1.00  0.00     0.162 HD
BRANCH  18  21
HETATM   21  C   UNL     1       7.022  23.616  54.045  1.00  0.00     0.059 A 
HETATM   22  C   UNL     1       7.352  23.638  55.421  1.00  0.00     0.046 A 
HETATM   23  C   UNL     1       8.039  22.497  55.895  1.00  0.00     0.031 A 
HETATM   24  C   UNL     1       8.420  21.431  55.070  1.00  0.00     0.009 A 
HETATM   25  C   UNL     1       8.112  21.442  53.717  1.00  0.00    -0.061 A 
HETATM   26  C   UNL     1       8.468  20.279  52.840  1.00  0.00     0.048 C 
HETATM   27  C   UNL     1       7.387  22.524  53.218  1.00  0.00     0.026 A 
BRANCH  22  28
HETATM   28  N   UNL     1       7.044  24.664  56.302  1.00  0.00    -0.380 N 
HETATM   29  C   UNL     1       5.699  24.865  56.841  1.00  0.00     0.123 C 
HETATM   30  C   UNL     1       5.606  26.366  57.116  1.00  0.00     0.021 C 
HETATM   31  C   UNL     1       7.048  26.754  57.385  1.00  0.00     0.021 C 
HETATM   32  C   UNL     1       7.795  25.927  56.345  1.00  0.00     0.123 C 
ENDBRANCH  22  28
ENDBRANCH  18  21
ENDBRANCH   1  17
TORSDOF 9
ENDMDL
MODEL 6
REMARK VINA RESULT:      -7.7      3.133      6.414
REMARK  9 active torsions:
REMARK  status: ('A' for Active; 'I' for Inactive)
REMARK    1  A    between atoms: C_2  and  N_3 
REMARK    2  A    between atoms: N_3  and  C_5 
REMARK    3  A    between atoms: N_3  and  C_30 
REMARK    4  A    between atoms: C_5  and  C_6 
REMARK    5  A    between atoms: C_5  and  C_14 
REMARK    6  A    between atoms: C_8  and  O_9 
REMARK    7  A    between atoms: C_14  and  N_15 
REMARK       I    between atoms: N_15  and  C_16 
REMARK    8  A    between atoms: C_16  and  C_17 
REMARK    9  A    between atoms: C_18  and  N_19 
ROOT
HETATM    1  C   UNL     1       5.362  25.873  50.994  1.00  0.00     0.161 C 
ENDROOT
BRANCH   1   2
HETATM    2  C   UNL     1       5.413  27.229  50.206  1.00  0.00     0.238 C 
BRANCH   2   3
HETATM    3  N   UNL     1       4.908  27.078  48.759  1.00  0.00    -0.062 N 
HETATM    4  H   UNL     1       5.414  26.218  48.469  1.00  0.00     0.280 HD
BRANCH   3   5
HETATM    5  C   UNL     1       5.385  28.176  47.827  1.00  0.00     0.231 C 
HETATM    6  C   UNL     1       4.239  29.036  47.328  1.00  0.00     0.034 C 
ENDBRANCH   3   5
BRANCH   3   7
HETATM    7  C   UNL     1       3.428  26.825  48.619  1.00  0.00     0.231 C 
HETATM    8  C   UNL     1       3.167  25.465  47.997  1.00  0.00     0.034 C 
ENDBRANCH   3   7
ENDBRANCH   2   3
BRANCH   2   9
HETATM    9  C   UNL     1       4.790  28.377  50.987  1.00  0.00    -0.023 A 
HETATM   10  C   UNL     1       5.214  29.698  50.723  1.00  0.00     0.046 A 
HETATM   11  C   UNL     1       4.664  30.781  51.410  1.00  0.00     0.068 A 
HETATM   12  C   UNL     1       3.662  30.555  52.352  1.00  0.00     0.037 A 
HETATM   13  C   UNL     1       3.237  29.260  52.637  1.00  0.00     0.003 A 
HETATM   14  C   UNL     1       3.801  28.176  51.964  1.00  0.00     0.009 A 
BRANCH  11  15
HETATM   15  O   UNL     1       4.999  32.092  51.229  1.00  0.00    -0.356 OA
HETATM   16  C   UNL     1       5.807  32.401  50.100  1.00  0.00     0.210 C 
ENDBRANCH  11  15
ENDBRANCH   2   9
ENDBRANCH   1   2
BRANCH   1  17
HETATM   17  N   UNL     1       6.324  25.657  52.082  1.00  0.00    -0.354 N 
HETATM   18  C   UNL     1       5.990  24.939  53.221  1.00  0.00     0.253 C 
HETATM   19  O   UNL     1       4.844  24.969  53.652  1.00  0.00    -0.268 OA
HETATM   20  H   UNL     1       7.297  25.595  51.795  1.00  0.00     0.162 HD
BRANCH  18  21
HETATM   21  C   UNL     1       7.088  24.137  53.837  1.00  0.00     0.059 A 
HETATM   22  C   UNL     1       7.705  24.458  55.071  1.00  0.00     0.046 A 
HETATM   23  C   UNL     1       8.602  23.486  55.569  1.00  0.00     0.031 A 
HETATM   24  C   UNL     1       8.911  22.303  54.885  1.00  0.00     0.009 A 
HETATM   25  C   UNL     1       8.317  22.020  53.663  1.00  0.00    -0.061 A 
HETATM   26  C   UNL     1       8.602  20.730  52.952  1.00  0.00     0.048 C 
HETATM   27  C   UNL     1       7.385  22.927  53.161  1.00  0.00     0.026 A 
BRANCH  22  28
HETATM   28  N   UNL     1       7.482  25.618  55.798  1.00  0.00    -0.380 N 
HETATM   29  C   UNL     1       7.670  26.953  55.232  1.00  0.00     0.123 C 
HETATM   30  C   UNL     1       8.036  27.838  56.424  1.00  0.00     0.021 C 
HETATM   31  C   UNL     1       7.353  27.142  57.587  1.00  0.00     0.021 C 
HETATM   32  C   UNL     1       7.598  25.673  57.262  1.00  0.00     0.123 C 
ENDBRANCH  22  28
ENDBRANCH  18  21
ENDBRANCH   1  17
TORSDOF 9
ENDMDL
MODEL 7
REMARK VINA RESULT:      -7.7      3.210      7.217
REMARK  9 active torsions:
REMARK  status: ('A' for Active; 'I' for Inactive)
REMARK    1  A    between atoms: C_2  and  N_3 
REMARK    2  A    between atoms: N_3  and  C_5 
REMARK    3  A    between atoms: N_3  and  C_30 
REMARK    4  A    between atoms: C_5  and  C_6 
REMARK    5  A    between atoms: C_5  and  C_14 
REMARK    6  A    between atoms: C_8  and  O_9 
REMARK    7  A    between atoms: C_14  and  N_15 
REMARK       I    between atoms: N_15  and  C_16 
REMARK    8  A    between atoms: C_16  and  C_17 
REMARK    9  A    between atoms: C_18  and  N_19 
ROOT
HETATM    1  C   UNL     1       4.977  25.711  53.407  1.00  0.00     0.161 C 
ENDROOT
BRANCH   1   2
HETATM    2  C   UNL     1       6.417  25.779  54.026  1.00  0.00     0.238 C 
BRANCH   2   3
HETATM    3  N   UNL     1       6.438  26.543  55.364  1.00  0.00    -0.062 N 
HETATM    4  H   UNL     1       7.021  25.906  55.939  1.00  0.00     0.280 HD
BRANCH   3   5
HETATM    5  C   UNL     1       5.087  26.607  56.052  1.00  0.00     0.231 C 
HETATM    6  C   UNL     1       4.954  25.559  57.141  1.00  0.00     0.034 C 
ENDBRANCH   3   5
BRANCH   3   7
HETATM    7  C   UNL     1       7.112  27.891  55.321  1.00  0.00     0.231 C 
HETATM    8  C   UNL     1       8.129  28.024  56.440  1.00  0.00     0.034 C 
ENDBRANCH   3   7
ENDBRANCH   2   3
BRANCH   2   9
HETATM    9  C   UNL     1       7.102  24.420  54.053  1.00  0.00    -0.023 A 
HETATM   10  C   UNL     1       7.461  23.856  55.297  1.00  0.00     0.046 A 
HETATM   11  C   UNL     1       8.084  22.609  55.368  1.00  0.00     0.068 A 
HETATM   12  C   UNL     1       8.329  21.899  54.194  1.00  0.00     0.037 A 
HETATM   13  C   UNL     1       7.993  22.442  52.956  1.00  0.00     0.003 A 
HETATM   14  C   UNL     1       7.389  23.697  52.884  1.00  0.00     0.009 A 
BRANCH  11  15
HETATM   15  O   UNL     1       8.468  21.975  56.515  1.00  0.00    -0.356 OA
HETATM   16  C   UNL     1       8.662  20.568  56.440  1.00  0.00     0.210 C 
ENDBRANCH  11  15
ENDBRANCH   2   9
ENDBRANCH   1   2
BRANCH   1  17
HETATM   17  N   UNL     1       4.628  26.653  52.337  1.00  0.00    -0.354 N 
HETATM   18  C   UNL     1       5.310  26.673  51.129  1.00  0.00     0.253 C 
HETATM   19  O   UNL     1       6.502  26.393  51.092  1.00  0.00    -0.268 OA
HETATM   20  H   UNL     1       3.647  26.912  52.289  1.00  0.00     0.162 HD
BRANCH  18  21
HETATM   21  C   UNL     1       4.501  27.020  49.923  1.00  0.00     0.059 A 
HETATM   22  C   UNL     1       4.320  28.341  49.447  1.00  0.00     0.046 A 
HETATM   23  C   UNL     1       3.666  28.449  48.199  1.00  0.00     0.031 A 
HETATM   24  C   UNL     1       3.180  27.344  47.488  1.00  0.00     0.009 A 
HETATM   25  C   UNL     1       3.343  26.059  47.986  1.00  0.00    -0.061 A 
HETATM   26  C   UNL     1       2.874  24.868  47.203  1.00  0.00     0.048 C 
HETATM   27  C   UNL     1       4.030  25.903  49.189  1.00  0.00     0.026 A 
BRANCH  22  28
HETATM   28  N   UNL     1       4.740  29.491  50.100  1.00  0.00    -0.380 N 
HETATM   29  C   UNL     1       3.949  30.139  51.145  1.00  0.00     0.123 C 
HETATM   30  C   UNL     1       4.332  31.616  51.071  1.00  0.00     0.021 C 
HETATM   31  C   UNL     1       5.749  31.574  50.527  1.00  0.00     0.021 C 
HETATM   32  C   UNL     1       5.652  30.466  49.485  1.00  0.00     0.123 C 
ENDBRANCH  22  28
ENDBRANCH  18  21
ENDBRANCH   1  17
TORSDOF 9
ENDMDL
MODEL 8
REMARK VINA RESULT:      -7.3      4.129      7.907
REMARK  9 active torsions:
REMARK  status: ('A' for Active; 'I' for Inactive)
REMARK    1  A    between atoms: C_2  and  N_3 
REMARK    2  A    between atoms: N_3  and  C_5 
REMARK    3  A    between atoms: N_3  and  C_30 
REMARK    4  A    between atoms: C_5  and  C_6 
REMARK    5  A    between atoms: C_5  and  C_14 
REMARK    6  A    between atoms: C_8  and  O_9 
REMARK    7  A    between atoms: C_14  and  N_15 
REMARK       I    between atoms: N_15  and  C_16 
REMARK    8  A    between atoms: C_16  and  C_17 
REMARK    9  A    between atoms: C_18  and  N_19 
ROOT
HETATM    1  C   UNL     1       5.682  28.054  52.826  1.00  0.00     0.161 C 
ENDROOT
BRANCH   1   2
HETATM    2  C   UNL     1       6.921  27.611  53.681  1.00  0.00     0.238 C 
BRANCH   2   3
HETATM    3  N   UNL     1       6.850  28.144  55.124  1.00  0.00    -0.062 N 
HETATM    4  H   UNL     1       6.690  27.260  55.646  1.00  0.00     0.280 HD
BRANCH   3   5
HETATM    5  C   UNL     1       5.637  29.014  55.396  1.00  0.00     0.231 C 
HETATM    6  C   UNL     1       4.676  28.361  56.370  1.00  0.00     0.034 C 
ENDBRANCH   3   5
BRANCH   3   7
HETATM    7  C   UNL     1       8.120  28.773  55.639  1.00  0.00     0.231 C 
HETATM    8  C   UNL     1       8.532  28.156  56.963  1.00  0.00     0.034 C 
ENDBRANCH   3   7
ENDBRANCH   2   3
BRANCH   2   9
HETATM    9  C   UNL     1       7.208  26.121  53.559  1.00  0.00    -0.023 A 
HETATM   10  C   UNL     1       7.044  25.296  54.693  1.00  0.00     0.046 A 
HETATM   11  C   UNL     1       7.288  23.923  54.625  1.00  0.00     0.068 A 
HETATM   12  C   UNL     1       7.674  23.357  53.411  1.00  0.00     0.037 A 
HETATM   13  C   UNL     1       7.852  24.155  52.283  1.00  0.00     0.003 A 
HETATM   14  C   UNL     1       7.627  25.529  52.357  1.00  0.00     0.009 A 
BRANCH  11  15
HETATM   15  O   UNL     1       7.158  23.039  55.657  1.00  0.00    -0.356 OA
HETATM   16  C   UNL     1       7.775  21.767  55.498  1.00  0.00     0.210 C 
ENDBRANCH  11  15
ENDBRANCH   2   9
ENDBRANCH   1   2
BRANCH   1  17
HETATM   17  N   UNL     1       5.886  29.021  51.742  1.00  0.00    -0.354 N 
HETATM   18  C   UNL     1       5.452  28.772  50.448  1.00  0.00     0.253 C 
HETATM   19  O   UNL     1       5.441  27.626  50.014  1.00  0.00    -0.268 OA
HETATM   20  H   UNL     1       5.881  29.997  52.024  1.00  0.00     0.162 HD
BRANCH  18  21
HETATM   21  C   UNL     1       4.991  29.959  49.669  1.00  0.00     0.059 A 
HETATM   22  C   UNL     1       3.835  29.968  48.851  1.00  0.00     0.046 A 
HETATM   23  C   UNL     1       3.472  31.231  48.333  1.00  0.00     0.031 A 
HETATM   24  C   UNL     1       4.215  32.398  48.559  1.00  0.00     0.009 A 
HETATM   25  C   UNL     1       5.361  32.362  49.339  1.00  0.00    -0.061 A 
HETATM   26  C   UNL     1       6.130  33.617  49.630  1.00  0.00     0.048 C 
HETATM   27  C   UNL     1       5.726  31.146  49.915  1.00  0.00     0.026 A 
BRANCH  22  28
HETATM   28  N   UNL     1       3.060  28.857  48.550  1.00  0.00    -0.380 N 
HETATM   29  C   UNL     1       3.251  28.068  47.334  1.00  0.00     0.123 C 
HETATM   30  C   UNL     1       1.874  27.481  47.025  1.00  0.00     0.021 C 
HETATM   31  C   UNL     1       1.228  27.389  48.396  1.00  0.00     0.021 C 
HETATM   32  C   UNL     1       1.688  28.686  49.048  1.00  0.00     0.123 C 
ENDBRANCH  22  28
ENDBRANCH  18  21
ENDBRANCH   1  17
TORSDOF 9
ENDMDL
MODEL 9
REMARK VINA RESULT:      -7.1      3.314      7.365
REMARK  9 active torsions:
REMARK  status: ('A' for Active; 'I' for Inactive)
REMARK    1  A    between atoms: C_2  and  N_3 
REMARK    2  A    between atoms: N_3  and  C_5 
REMARK    3  A    between atoms: N_3  and  C_30 
REMARK    4  A    between atoms: C_5  and  C_6 
REMARK    5  A    between atoms: C_5  and  C_14 
REMARK    6  A    between atoms: C_8  and  O_9 
REMARK    7  A    between atoms: C_14  and  N_15 
REMARK       I    between atoms: N_15  and  C_16 
REMARK    8  A    between atoms: C_16  and  C_17 
REMARK    9  A    between atoms: C_18  and  N_19 
ROOT
HETATM    1  C   UNL     1       5.067  26.832  53.879  1.00  0.00     0.161 C 
ENDROOT
BRANCH   1   2
HETATM    2  C   UNL     1       6.497  26.666  54.505  1.00  0.00     0.238 C 
BRANCH   2   3
HETATM    3  N   UNL     1       6.503  26.952  56.019  1.00  0.00    -0.062 N 
HETATM    4  H   UNL     1       7.094  26.168  56.359  1.00  0.00     0.280 HD
BRANCH   3   5
HETATM    5  C   UNL     1       5.150  26.771  56.681  1.00  0.00     0.231 C 
HETATM    6  C   UNL     1       4.988  25.385  57.275  1.00  0.00     0.034 C 
ENDBRANCH   3   5
BRANCH   3   7
HETATM    7  C   UNL     1       7.160  28.247  56.423  1.00  0.00     0.231 C 
HETATM    8  C   UNL     1       8.395  27.988  57.266  1.00  0.00     0.034 C 
ENDBRANCH   3   7
ENDBRANCH   2   3
BRANCH   2   9
HETATM    9  C   UNL     1       7.161  25.359  54.095  1.00  0.00    -0.023 A 
HETATM   10  C   UNL     1       7.779  24.563  55.084  1.00  0.00     0.046 A 
HETATM   11  C   UNL     1       8.393  23.354  54.755  1.00  0.00     0.068 A 
HETATM   12  C   UNL     1       8.371  22.914  53.432  1.00  0.00     0.037 A 
HETATM   13  C   UNL     1       7.777  23.689  52.439  1.00  0.00     0.003 A 
HETATM   14  C   UNL     1       7.181  24.907  52.766  1.00  0.00     0.009 A 
BRANCH  11  15
HETATM   15  O   UNL     1       9.014  22.511  55.631  1.00  0.00    -0.356 OA
HETATM   16  C   UNL     1       8.381  22.306  56.888  1.00  0.00     0.210 C 
ENDBRANCH  11  15
ENDBRANCH   2   9
ENDBRANCH   1   2
BRANCH   1  17
HETATM   17  N   UNL     1       4.636  28.171  53.462  1.00  0.00    -0.354 N 
HETATM   18  C   UNL     1       5.184  28.805  52.356  1.00  0.00     0.253 C 
HETATM   19  O   UNL     1       6.356  28.611  52.055  1.00  0.00    -0.268 OA
HETATM   20  H   UNL     1       3.664  28.394  53.656  1.00  0.00     0.162 HD
BRANCH  18  21
HETATM   21  C   UNL     1       4.262  29.683  51.577  1.00  0.00     0.059 A 
HETATM   22  C   UNL     1       3.871  29.429  50.240  1.00  0.00     0.046 A 
HETATM   23  C   UNL     1       2.862  30.280  49.735  1.00  0.00     0.031 A 
HETATM   24  C   UNL     1       2.308  31.337  50.469  1.00  0.00     0.009 A 
HETATM   25  C   UNL     1       2.726  31.587  51.768  1.00  0.00    -0.061 A 
HETATM   26  C   UNL     1       2.098  32.681  52.579  1.00  0.00     0.048 C 
HETATM   27  C   UNL     1       3.681  30.737  52.325  1.00  0.00     0.026 A 
BRANCH  22  28
HETATM   28  N   UNL     1       4.388  28.428  49.431  1.00  0.00    -0.380 N 
HETATM   29  C   UNL     1       5.522  28.645  48.534  1.00  0.00     0.123 C 
HETATM   30  C   UNL     1       5.315  27.652  47.391  1.00  0.00     0.021 C 
HETATM   31  C   UNL     1       4.539  26.527  48.052  1.00  0.00     0.021 C 
HETATM   32  C   UNL     1       3.582  27.294  48.956  1.00  0.00     0.123 C 
ENDBRANCH  22  28
ENDBRANCH  18  21
ENDBRANCH   1  17
TORSDOF 9
ENDMDL
MODEL 10
REMARK VINA RESULT:      -7.1      4.034      8.472
REMARK  9 active torsions:
REMARK  status: ('A' for Active; 'I' for Inactive)
REMARK    1  A    between atoms: C_2  and  N_3 
REMARK    2  A    between atoms: N_3  and  C_5 
REMARK    3  A    between atoms: N_3  and  C_30 
REMARK    4  A    between atoms: C_5  and  C_6 
REMARK    5  A    between atoms: C_5  and  C_14 
REMARK    6  A    between atoms: C_8  and  O_9 
REMARK    7  A    between atoms: C_14  and  N_15 
REMARK       I    between atoms: N_15  and  C_16 
REMARK    8  A    between atoms: C_16  and  C_17 
REMARK    9  A    between atoms: C_18  and  N_19 
ROOT
HETATM    1  C   UNL     1       5.349  27.760  51.056  1.00  0.00     0.161 C 
ENDROOT
BRANCH   1   2
HETATM    2  C   UNL     1       4.307  28.523  50.165  1.00  0.00     0.238 C 
BRANCH   2   3
HETATM    3  N   UNL     1       4.884  29.830  49.589  1.00  0.00    -0.062 N 
HETATM    4  H   UNL     1       5.894  29.700  49.793  1.00  0.00     0.280 HD
BRANCH   3   5
HETATM    5  C   UNL     1       4.463  31.073  50.351  1.00  0.00     0.231 C 
HETATM    6  C   UNL     1       3.160  30.866  51.100  1.00  0.00     0.034 C 
ENDBRANCH   3   5
BRANCH   3   7
HETATM    7  C   UNL     1       4.721  30.001  48.100  1.00  0.00     0.231 C 
HETATM    8  C   UNL     1       4.783  31.468  47.713  1.00  0.00     0.034 C 
ENDBRANCH   3   7
ENDBRANCH   2   3
BRANCH   2   9
HETATM    9  C   UNL     1       3.638  27.613  49.146  1.00  0.00    -0.023 A 
HETATM   10  C   UNL     1       2.277  27.819  48.830  1.00  0.00     0.046 A 
HETATM   11  C   UNL     1       1.626  27.013  47.895  1.00  0.00     0.068 A 
HETATM   12  C   UNL     1       2.338  26.005  47.247  1.00  0.00     0.037 A 
HETATM   13  C   UNL     1       3.678  25.777  47.553  1.00  0.00     0.003 A 
HETATM   14  C   UNL     1       4.323  26.571  48.501  1.00  0.00     0.009 A 
BRANCH  11  15
HETATM   15  O   UNL     1       0.319  27.129  47.516  1.00  0.00    -0.356 OA
HETATM   16  C   UNL     1       0.070  27.610  46.201  1.00  0.00     0.210 C 
ENDBRANCH  11  15
ENDBRANCH   2   9
ENDBRANCH   1   2
BRANCH   1  17
HETATM   17  N   UNL     1       5.670  28.303  52.381  1.00  0.00    -0.354 N 
HETATM   18  C   UNL     1       5.014  27.873  53.526  1.00  0.00     0.253 C 
HETATM   19  O   UNL     1       3.839  27.531  53.468  1.00  0.00    -0.268 OA
HETATM   20  H   UNL     1       6.638  28.585  52.512  1.00  0.00     0.162 HD
BRANCH  18  21
HETATM   21  C   UNL     1       5.828  27.837  54.777  1.00  0.00     0.059 A 
HETATM   22  C   UNL     1       6.837  26.878  55.035  1.00  0.00     0.046 A 
HETATM   23  C   UNL     1       7.610  27.113  56.195  1.00  0.00     0.031 A 
HETATM   24  C   UNL     1       7.380  28.184  57.068  1.00  0.00     0.009 A 
HETATM   25  C   UNL     1       6.367  29.096  56.812  1.00  0.00    -0.061 A 
HETATM   26  C   UNL     1       6.151  30.276  57.714  1.00  0.00     0.048 C 
HETATM   27  C   UNL     1       5.615  28.933  55.649  1.00  0.00     0.026 A 
BRANCH  22  28
HETATM   28  N   UNL     1       7.112  25.773  54.243  1.00  0.00    -0.380 N 
HETATM   29  C   UNL     1       7.948  25.847  53.046  1.00  0.00     0.123 C 
HETATM   30  C   UNL     1       7.433  24.732  52.136  1.00  0.00     0.021 C 
HETATM   31  C   UNL     1       6.879  23.718  53.120  1.00  0.00     0.021 C 
HETATM   32  C   UNL     1       6.210  24.615  54.154  1.00  0.00     0.123 C 
ENDBRANCH  22  28
ENDBRANCH  18  21
ENDBRANCH   1  17
TORSDOF 9
ENDMDL
