MODEL 1
REMARK VINA RESULT:      -8.3      0.000      0.000
REMARK  5 active torsions:
REMARK  status: ('A' for Active; 'I' for Inactive)
REMARK    1  A    between atoms: C_3  and  C_4 
REMARK    2  A    between atoms: C_4  and  C_5 
REMARK    3  A    between atoms: C_5  and  N_6 
REMARK       I    between atoms: N_6  and  C_7 
REMARK       I    between atoms: C_7  and  N_8 
REMARK    4  A    between atoms: N_8  and  C_9 
REMARK    5  A    between atoms: N_11  and  C_12 
ROOT
HETATM    1  C   UNL     1       5.870  26.070  55.296  1.00  0.00     0.159 A 
HETATM    2  N   UNL     1       6.036  24.927  54.632  1.00  0.00    -0.149 NA
HETATM    3  N   UNL     1       7.044  24.270  55.247  1.00  0.00    -0.241 N 
HETATM    4  C   UNL     1       7.541  25.032  56.289  1.00  0.00     0.129 A 
HETATM    5  C   UNL     1       6.803  26.193  56.353  1.00  0.00     0.003 A 
HETATM    6  C   UNL     1       6.962  27.308  57.315  1.00  0.00     0.054 C 
ENDROOT
BRANCH   1   7
HETATM    7  N   UNL     1       4.913  27.013  54.996  1.00  0.00    -0.291 N 
HETATM    8  C   UNL     1       4.514  27.476  53.780  1.00  0.00     0.321 C 
HETATM    9  N   UNL     1       5.154  26.994  52.685  1.00  0.00    -0.343 N 
HETATM   10  O   UNL     1       3.604  28.303  53.721  1.00  0.00    -0.247 OA
HETATM   11  H   UNL     1       5.907  26.328  52.857  1.00  0.00     0.164 HD
HETATM   12  H   UNL     1       4.401  27.421  55.763  1.00  0.00     0.172 HD
BRANCH   9  13
HETATM   13  C   UNL     1       4.824  27.383  51.332  1.00  0.00     0.128 C 
BRANCH  13  14
HETATM   14  C   UNL     1       4.957  26.225  50.339  1.00  0.00     0.046 C 
BRANCH  14  15
HETATM   15  C   UNL     1       4.249  26.522  49.044  1.00  0.00    -0.029 C 
HETATM   16  C   UNL     1       3.465  25.648  48.396  1.00  0.00    -0.035 C 
HETATM   17  C   UNL     1       2.772  25.948  47.106  1.00  0.00     0.036 C 
ENDBRANCH  14  15
ENDBRANCH  13  14
ENDBRANCH   9  13
ENDBRANCH   1   7
BRANCH   3  18
HETATM   18  C   UNL     1       7.471  22.963  54.849  1.00  0.00     0.079 A 
HETATM   19  C   UNL     1       7.812  22.625  53.523  1.00  0.00     0.062 A 
HETATM   20 CL   UNL     1       7.854  23.711  52.176  1.00  0.00    -0.082 Cl
HETATM   21  C   UNL     1       8.198  21.309  53.214  1.00  0.00     0.026 A 
HETATM   22  C   UNL     1       8.254  20.323  54.197  1.00  0.00     0.002 A 
HETATM   23  C   UNL     1       7.926  20.645  55.506  1.00  0.00     0.002 A 
HETATM   24  C   UNL     1       7.539  21.948  55.830  1.00  0.00     0.033 A 
ENDBRANCH   3  18
TORSDOF 5
ENDMDL
MODEL 2
REMARK VINA RESULT:      -7.9      2.155      5.460
REMARK  5 active torsions:
REMARK  status: ('A' for Active; 'I' for Inactive)
REMARK    1  A    between atoms: C_3  and  C_4 
REMARK    2  A    between atoms: C_4  and  C_5 
REMARK    3  A    between atoms: C_5  and  N_6 
REMARK       I    between atoms: N_6  and  C_7 
REMARK       I    between atoms: C_7  and  N_8 
REMARK    4  A    between atoms: N_8  and  C_9 
REMARK    5  A    between atoms: N_11  and  C_12 
ROOT
HETATM    1  C   UNL     1       5.274  26.481  53.617  1.00  0.00     0.159 A 
HETATM    2  N   UNL     1       5.871  25.522  54.322  1.00  0.00    -0.149 NA
HETATM    3  N   UNL     1       6.615  24.810  53.447  1.00  0.00    -0.241 N 
HETATM    4  C   UNL     1       6.451  25.310  52.168  1.00  0.00     0.129 A 
HETATM    5  C   UNL     1       5.600  26.390  52.243  1.00  0.00     0.003 A 
HETATM    6  C   UNL     1       5.139  27.251  51.128  1.00  0.00     0.054 C 
ENDROOT
BRANCH   1   7
HETATM    7  N   UNL     1       4.445  27.441  54.153  1.00  0.00    -0.291 N 
HETATM    8  C   UNL     1       4.695  28.334  55.149  1.00  0.00     0.321 C 
HETATM    9  N   UNL     1       5.910  28.277  55.752  1.00  0.00    -0.343 N 
HETATM   10  O   UNL     1       3.825  29.146  55.461  1.00  0.00    -0.247 OA
HETATM   11  H   UNL     1       6.544  27.549  55.424  1.00  0.00     0.164 HD
HETATM   12  H   UNL     1       3.521  27.535  53.759  1.00  0.00     0.172 HD
BRANCH   9  13
HETATM   13  C   UNL     1       6.319  29.173  56.810  1.00  0.00     0.128 C 
BRANCH  13  14
HETATM   14  C   UNL     1       7.277  28.510  57.803  1.00  0.00     0.046 C 
BRANCH  14  15
HETATM   15  C   UNL     1       8.613  29.204  57.830  1.00  0.00    -0.029 C 
HETATM   16  C   UNL     1       9.580  29.016  56.918  1.00  0.00    -0.035 C 
HETATM   17  C   UNL     1      10.906  29.703  56.956  1.00  0.00     0.036 C 
ENDBRANCH  14  15
ENDBRANCH  13  14
ENDBRANCH   9  13
ENDBRANCH   1   7
BRANCH   3  18
HETATM   18  C   UNL     1       7.456  23.725  53.852  1.00  0.00     0.079 A 
HETATM   19  C   UNL     1       8.191  23.717  55.056  1.00  0.00     0.062 A 
HETATM   20 CL   UNL     1       8.160  24.946  56.274  1.00  0.00    -0.082 Cl
HETATM   21  C   UNL     1       9.013  22.619  55.365  1.00  0.00     0.026 A 
HETATM   22  C   UNL     1       9.116  21.528  54.505  1.00  0.00     0.002 A 
HETATM   23  C   UNL     1       8.393  21.522  53.321  1.00  0.00     0.002 A 
HETATM   24  C   UNL     1       7.572  22.606  52.997  1.00  0.00     0.033 A 
ENDBRANCH   3  18
TORSDOF 5
ENDMDL
MODEL 3
REMARK VINA RESULT:      -7.8      5.053      8.845
REMARK  5 active torsions:
REMARK  status: ('A' for Active; 'I' for Inactive)
REMARK    1  A    between atoms: C_3  and  C_4 
REMARK    2  A    between atoms: C_4  and  C_5 
REMARK    3  A    between atoms: C_5  and  N_6 
REMARK       I    between atoms: N_6  and  C_7 
REMARK       I    between atoms: C_7  and  N_8 
REMARK    4  A    between atoms: N_8  and  C_9 
REMARK    5  A    between atoms: N_11  and  C_12 
ROOT
HETATM    1  C   UNL     1       8.264  29.434  57.396  1.00  0.00     0.159 A 
HETATM    2  N   UNL     1       7.556  29.841  58.449  1.00  0.00    -0.149 NA
HETATM    3  N   UNL     1       8.394  30.574  59.214  1.00  0.00    -0.241 N 
HETATM    4  C   UNL     1       9.657  30.595  58.650  1.00  0.00     0.129 A 
HETATM    5  C   UNL     1       9.606  29.877  57.475  1.00  0.00     0.003 A 
HETATM    6  C   UNL     1      10.713  29.632  56.522  1.00  0.00     0.054 C 
ENDROOT
BRANCH   1   7
HETATM    7  N   UNL     1       7.758  28.680  56.362  1.00  0.00    -0.291 N 
HETATM    8  C   UNL     1       7.514  27.342  56.312  1.00  0.00     0.321 C 
HETATM    9  N   UNL     1       7.840  26.605  57.403  1.00  0.00    -0.343 N 
HETATM   10  O   UNL     1       7.017  26.859  55.295  1.00  0.00    -0.247 OA
HETATM   11  H   UNL     1       8.265  27.110  58.180  1.00  0.00     0.164 HD
HETATM   12  H   UNL     1       7.501  29.162  55.514  1.00  0.00     0.172 HD
BRANCH   9  13
HETATM   13  C   UNL     1       7.621  25.179  57.498  1.00  0.00     0.128 C 
BRANCH  13  14
HETATM   14  C   UNL     1       8.872  24.368  57.148  1.00  0.00     0.046 C 
BRANCH  14  15
HETATM   15  C   UNL     1       8.793  23.802  55.755  1.00  0.00    -0.029 C 
HETATM   16  C   UNL     1       7.959  22.818  55.387  1.00  0.00    -0.035 C 
HETATM   17  C   UNL     1       7.892  22.256  54.004  1.00  0.00     0.036 C 
ENDBRANCH  14  15
ENDBRANCH  13  14
ENDBRANCH   9  13
ENDBRANCH   1   7
BRANCH   3  18
HETATM   18  C   UNL     1       7.969  31.236  60.410  1.00  0.00     0.079 A 
HETATM   19  C   UNL     1       6.924  32.181  60.447  1.00  0.00     0.062 A 
HETATM   20 CL   UNL     1       5.933  32.655  59.109  1.00  0.00    -0.082 Cl
HETATM   21  C   UNL     1       6.586  32.802  61.663  1.00  0.00     0.026 A 
HETATM   22  C   UNL     1       7.264  32.500  62.841  1.00  0.00     0.002 A 
HETATM   23  C   UNL     1       8.290  31.567  62.819  1.00  0.00     0.002 A 
HETATM   24  C   UNL     1       8.640  30.941  61.618  1.00  0.00     0.033 A 
ENDBRANCH   3  18
TORSDOF 5
ENDMDL
MODEL 4
REMARK VINA RESULT:      -7.8      3.446      6.511
REMARK  5 active torsions:
REMARK  status: ('A' for Active; 'I' for Inactive)
REMARK    1  A    between atoms: C_3  and  C_4 
REMARK    2  A    between atoms: C_4  and  C_5 
REMARK    3  A    between atoms: C_5  and  N_6 
REMARK       I    between atoms: N_6  and  C_7 
REMARK       I    between atoms: C_7  and  N_8 
REMARK    4  A    between atoms: N_8  and  C_9 
REMARK    5  A    between atoms: N_11  and  C_12 
ROOT
HETATM    1  C   UNL     1       6.083  27.633  55.811  1.00  0.00     0.159 A 
HETATM    2  N   UNL     1       6.905  28.677  55.904  1.00  0.00    -0.149 NA
HETATM    3  N   UNL     1       7.681  28.457  56.988  1.00  0.00    -0.241 N 
HETATM    4  C   UNL     1       7.313  27.275  57.604  1.00  0.00     0.129 A 
HETATM    5  C   UNL     1       6.292  26.716  56.868  1.00  0.00     0.003 A 
HETATM    6  C   UNL     1       5.583  25.443  57.135  1.00  0.00     0.054 C 
ENDROOT
BRANCH   1   7
HETATM    7  N   UNL     1       5.148  27.466  54.814  1.00  0.00    -0.291 N 
HETATM    8  C   UNL     1       5.223  26.716  53.681  1.00  0.00     0.321 C 
HETATM    9  N   UNL     1       6.384  26.056  53.443  1.00  0.00    -0.343 N 
HETATM   10  O   UNL     1       4.252  26.668  52.927  1.00  0.00    -0.247 OA
HETATM   11  H   UNL     1       7.128  26.187  54.128  1.00  0.00     0.164 HD
HETATM   12  H   UNL     1       4.261  27.936  54.921  1.00  0.00     0.172 HD
BRANCH   9  13
HETATM   13  C   UNL     1       6.600  25.210  52.290  1.00  0.00     0.128 C 
BRANCH  13  14
HETATM   14  C   UNL     1       7.984  24.555  52.293  1.00  0.00     0.046 C 
BRANCH  14  15
HETATM   15  C   UNL     1       8.051  23.409  53.268  1.00  0.00    -0.029 C 
HETATM   16  C   UNL     1       7.849  22.125  52.938  1.00  0.00    -0.035 C 
HETATM   17  C   UNL     1       7.910  20.994  53.913  1.00  0.00     0.036 C 
ENDBRANCH  14  15
ENDBRANCH  13  14
ENDBRANCH   9  13
ENDBRANCH   1   7
BRANCH   3  18
HETATM   18  C   UNL     1       8.738  29.343  57.374  1.00  0.00     0.079 A 
HETATM   19  C   UNL     1       8.546  30.470  58.199  1.00  0.00     0.062 A 
HETATM   20 CL   UNL     1       7.057  30.944  58.943  1.00  0.00    -0.082 Cl
HETATM   21  C   UNL     1       9.637  31.302  58.510  1.00  0.00     0.026 A 
HETATM   22  C   UNL     1      10.912  31.033  58.021  1.00  0.00     0.002 A 
HETATM   23  C   UNL     1      11.115  29.924  57.213  1.00  0.00     0.002 A 
HETATM   24  C   UNL     1      10.041  29.087  56.892  1.00  0.00     0.033 A 
ENDBRANCH   3  18
TORSDOF 5
ENDMDL
MODEL 5
REMARK VINA RESULT:      -7.5      2.600      5.686
REMARK  5 active torsions:
REMARK  status: ('A' for Active; 'I' for Inactive)
REMARK    1  A    between atoms: C_3  and  C_4 
REMARK    2  A    between atoms: C_4  and  C_5 
REMARK    3  A    between atoms: C_5  and  N_6 
REMARK       I    between atoms: N_6  and  C_7 
REMARK       I    between atoms: C_7  and  N_8 
REMARK    4  A    between atoms: N_8  and  C_9 
REMARK    5  A    between atoms: N_11  and  C_12 
ROOT
HETATM    1  C   UNL     1       7.370  25.679  53.511  1.00  0.00     0.159 A 
HETATM    2  N   UNL     1       8.005  24.752  54.227  1.00  0.00    -0.149 NA
HETATM    3  N   UNL     1       7.507  23.559  53.835  1.00  0.00    -0.241 N 
HETATM    4  C   UNL     1       6.519  23.745  52.885  1.00  0.00     0.129 A 
HETATM    5  C   UNL     1       6.411  25.098  52.649  1.00  0.00     0.003 A 
HETATM    6  C   UNL     1       5.493  25.775  51.703  1.00  0.00     0.054 C 
ENDROOT
BRANCH   1   7
HETATM    7  N   UNL     1       7.615  27.032  53.596  1.00  0.00    -0.291 N 
HETATM    8  C   UNL     1       7.402  27.881  54.638  1.00  0.00     0.321 C 
HETATM    9  N   UNL     1       6.831  27.367  55.757  1.00  0.00    -0.343 N 
HETATM   10  O   UNL     1       7.728  29.062  54.528  1.00  0.00    -0.247 OA
HETATM   11  H   UNL     1       6.584  26.379  55.727  1.00  0.00     0.164 HD
HETATM   12  H   UNL     1       8.032  27.483  52.796  1.00  0.00     0.172 HD
BRANCH   9  13
HETATM   13  C   UNL     1       6.562  28.146  56.945  1.00  0.00     0.128 C 
BRANCH  13  14
HETATM   14  C   UNL     1       7.713  28.097  57.953  1.00  0.00     0.046 C 
BRANCH  14  15
HETATM   15  C   UNL     1       8.563  29.338  57.883  1.00  0.00    -0.029 C 
HETATM   16  C   UNL     1       9.824  29.365  57.428  1.00  0.00    -0.035 C 
HETATM   17  C   UNL     1      10.664  30.599  57.369  1.00  0.00     0.036 C 
ENDBRANCH  14  15
ENDBRANCH  13  14
ENDBRANCH   9  13
ENDBRANCH   1   7
BRANCH   3  18
HETATM   18  C   UNL     1       7.995  22.313  54.344  1.00  0.00     0.079 A 
HETATM   19  C   UNL     1       8.338  22.106  55.696  1.00  0.00     0.062 A 
HETATM   20 CL   UNL     1       8.169  23.259  56.977  1.00  0.00    -0.082 Cl
HETATM   21  C   UNL     1       8.834  20.856  56.108  1.00  0.00     0.026 A 
HETATM   22  C   UNL     1       8.992  19.809  55.203  1.00  0.00     0.002 A 
HETATM   23  C   UNL     1       8.652  19.999  53.872  1.00  0.00     0.002 A 
HETATM   24  C   UNL     1       8.159  21.236  53.445  1.00  0.00     0.033 A 
ENDBRANCH   3  18
TORSDOF 5
ENDMDL
MODEL 6
REMARK VINA RESULT:      -7.4      2.035      2.164
REMARK  5 active torsions:
REMARK  status: ('A' for Active; 'I' for Inactive)
REMARK    1  A    between atoms: C_3  and  C_4 
REMARK    2  A    between atoms: C_4  and  C_5 
REMARK    3  A    between atoms: C_5  and  N_6 
REMARK       I    between atoms: N_6  and  C_7 
REMARK       I    between atoms: C_7  and  N_8 
REMARK    4  A    between atoms: N_8  and  C_9 
REMARK    5  A    between atoms: N_11  and  C_12 
ROOT
HETATM    1  C   UNL     1       6.415  26.268  56.149  1.00  0.00     0.159 A 
HETATM    2  N   UNL     1       6.237  25.152  55.444  1.00  0.00    -0.149 NA
HETATM    3  N   UNL     1       7.415  24.491  55.471  1.00  0.00    -0.241 N 
HETATM    4  C   UNL     1       8.355  25.223  56.175  1.00  0.00     0.129 A 
HETATM    5  C   UNL     1       7.741  26.369  56.630  1.00  0.00     0.003 A 
HETATM    6  C   UNL     1       8.347  27.453  57.439  1.00  0.00     0.054 C 
ENDROOT
BRANCH   1   7
HETATM    7  N   UNL     1       5.433  27.205  56.382  1.00  0.00    -0.291 N 
HETATM    8  C   UNL     1       4.541  27.752  55.511  1.00  0.00     0.321 C 
HETATM    9  N   UNL     1       4.625  27.375  54.210  1.00  0.00    -0.343 N 
HETATM   10  O   UNL     1       3.708  28.555  55.929  1.00  0.00    -0.247 OA
HETATM   11  H   UNL     1       5.369  26.718  53.976  1.00  0.00     0.164 HD
HETATM   12  H   UNL     1       5.320  27.538  57.327  1.00  0.00     0.172 HD
BRANCH   9  13
HETATM   13  C   UNL     1       3.733  27.860  53.180  1.00  0.00     0.128 C 
BRANCH  13  14
HETATM   14  C   UNL     1       4.338  29.014  52.376  1.00  0.00     0.046 C 
BRANCH  14  15
HETATM   15  C   UNL     1       3.279  29.785  51.633  1.00  0.00    -0.029 C 
HETATM   16  C   UNL     1       2.355  29.223  50.838  1.00  0.00    -0.035 C 
HETATM   17  C   UNL     1       1.312  29.996  50.098  1.00  0.00     0.036 C 
ENDBRANCH  14  15
ENDBRANCH  13  14
ENDBRANCH   9  13
ENDBRANCH   1   7
BRANCH   3  18
HETATM   18  C   UNL     1       7.594  23.205  54.868  1.00  0.00     0.079 A 
HETATM   19  C   UNL     1       7.714  23.007  53.477  1.00  0.00     0.062 A 
HETATM   20 CL   UNL     1       7.744  24.250  52.273  1.00  0.00    -0.082 Cl
HETATM   21  C   UNL     1       7.863  21.706  52.966  1.00  0.00     0.026 A 
HETATM   22  C   UNL     1       7.898  20.598  53.810  1.00  0.00     0.002 A 
HETATM   23  C   UNL     1       7.787  20.780  55.181  1.00  0.00     0.002 A 
HETATM   24  C   UNL     1       7.637  22.067  55.706  1.00  0.00     0.033 A 
ENDBRANCH   3  18
TORSDOF 5
ENDMDL
MODEL 7
REMARK VINA RESULT:      -7.4      3.502      6.683
REMARK  5 active torsions:
REMARK  status: ('A' for Active; 'I' for Inactive)
REMARK    1  A    between atoms: C_3  and  C_4 
REMARK    2  A    between atoms: C_4  and  C_5 
REMARK    3  A    between atoms: C_5  and  N_6 
REMARK       I    between atoms: N_6  and  C_7 
REMARK       I    between atoms: C_7  and  N_8 
REMARK    4  A    between atoms: N_8  and  C_9 
REMARK    5  A    between atoms: N_11  and  C_12 
ROOT
HETATM    1  C   UNL     1       4.827  27.760  54.263  1.00  0.00     0.159 A 
HETATM    2  N   UNL     1       5.780  27.810  55.192  1.00  0.00    -0.149 NA
HETATM    3  N   UNL     1       5.890  29.106  55.559  1.00  0.00    -0.241 N 
HETATM    4  C   UNL     1       5.015  29.884  54.820  1.00  0.00     0.129 A 
HETATM    5  C   UNL     1       4.312  29.047  53.982  1.00  0.00     0.003 A 
HETATM    6  C   UNL     1       3.258  29.425  53.012  1.00  0.00     0.054 C 
ENDROOT
BRANCH   1   7
HETATM    7  N   UNL     1       4.395  26.604  53.653  1.00  0.00    -0.291 N 
HETATM    8  C   UNL     1       5.095  25.719  52.892  1.00  0.00     0.321 C 
HETATM    9  N   UNL     1       6.399  26.002  52.643  1.00  0.00    -0.343 N 
HETATM   10  O   UNL     1       4.530  24.714  52.465  1.00  0.00    -0.247 OA
HETATM   11  H   UNL     1       6.755  26.875  53.032  1.00  0.00     0.164 HD
HETATM   12  H   UNL     1       3.432  26.335  53.789  1.00  0.00     0.172 HD
BRANCH   9  13
HETATM   13  C   UNL     1       7.268  25.146  51.866  1.00  0.00     0.128 C 
BRANCH  13  14
HETATM   14  C   UNL     1       8.196  24.302  52.743  1.00  0.00     0.046 C 
BRANCH  14  15
HETATM   15  C   UNL     1       7.705  22.883  52.863  1.00  0.00    -0.029 C 
HETATM   16  C   UNL     1       8.404  21.888  53.430  1.00  0.00    -0.035 C 
HETATM   17  C   UNL     1       7.913  20.481  53.537  1.00  0.00     0.036 C 
ENDBRANCH  14  15
ENDBRANCH  13  14
ENDBRANCH   9  13
ENDBRANCH   1   7
BRANCH   3  18
HETATM   18  C   UNL     1       6.778  29.545  56.592  1.00  0.00     0.079 A 
HETATM   19  C   UNL     1       6.370  30.333  57.687  1.00  0.00     0.062 A 
HETATM   20 CL   UNL     1       4.750  30.844  58.024  1.00  0.00    -0.082 Cl
HETATM   21  C   UNL     1       7.314  30.741  58.646  1.00  0.00     0.026 A 
HETATM   22  C   UNL     1       8.654  30.378  58.539  1.00  0.00     0.002 A 
HETATM   23  C   UNL     1       9.067  29.598  57.469  1.00  0.00     0.002 A 
HETATM   24  C   UNL     1       8.142  29.185  56.506  1.00  0.00     0.033 A 
ENDBRANCH   3  18
TORSDOF 5
ENDMDL
MODEL 8
REMARK VINA RESULT:      -7.3      3.441      5.112
REMARK  5 active torsions:
REMARK  status: ('A' for Active; 'I' for Inactive)
REMARK    1  A    between atoms: C_3  and  C_4 
REMARK    2  A    between atoms: C_4  and  C_5 
REMARK    3  A    between atoms: C_5  and  N_6 
REMARK       I    between atoms: N_6  and  C_7 
REMARK       I    between atoms: C_7  and  N_8 
REMARK    4  A    between atoms: N_8  and  C_9 
REMARK    5  A    between atoms: N_11  and  C_12 
ROOT
HETATM    1  C   UNL     1       5.979  25.474  56.190  1.00  0.00     0.159 A 
HETATM    2  N   UNL     1       6.055  24.506  55.277  1.00  0.00    -0.149 NA
HETATM    3  N   UNL     1       7.222  23.864  55.497  1.00  0.00    -0.241 N 
HETATM    4  C   UNL     1       7.905  24.463  56.541  1.00  0.00     0.129 A 
HETATM    5  C   UNL     1       7.129  25.498  57.014  1.00  0.00     0.003 A 
HETATM    6  C   UNL     1       7.441  26.419  58.131  1.00  0.00     0.054 C 
ENDROOT
BRANCH   1   7
HETATM    7  N   UNL     1       4.917  26.342  56.318  1.00  0.00    -0.291 N 
HETATM    8  C   UNL     1       4.872  27.685  56.103  1.00  0.00     0.321 C 
HETATM    9  N   UNL     1       6.029  28.301  55.750  1.00  0.00    -0.343 N 
HETATM   10  O   UNL     1       3.804  28.280  56.237  1.00  0.00    -0.247 OA
HETATM   11  H   UNL     1       6.857  27.709  55.690  1.00  0.00     0.164 HD
HETATM   12  H   UNL     1       4.025  25.953  56.586  1.00  0.00     0.172 HD
BRANCH   9  13
HETATM   13  C   UNL     1       6.127  29.717  55.474  1.00  0.00     0.128 C 
BRANCH  13  14
HETATM   14  C   UNL     1       5.999  30.572  56.737  1.00  0.00     0.046 C 
BRANCH  14  15
HETATM   15  C   UNL     1       6.899  30.072  57.837  1.00  0.00    -0.029 C 
HETATM   16  C   UNL     1       7.722  30.854  58.552  1.00  0.00    -0.035 C 
HETATM   17  C   UNL     1       8.617  30.349  59.636  1.00  0.00     0.036 C 
ENDBRANCH  14  15
ENDBRANCH  13  14
ENDBRANCH   9  13
ENDBRANCH   1   7
BRANCH   3  18
HETATM   18  C   UNL     1       7.625  22.714  54.745  1.00  0.00     0.079 A 
HETATM   19  C   UNL     1       7.887  22.743  53.360  1.00  0.00     0.062 A 
HETATM   20 CL   UNL     1       7.846  24.145  52.346  1.00  0.00    -0.082 Cl
HETATM   21  C   UNL     1       8.255  21.560  52.694  1.00  0.00     0.026 A 
HETATM   22  C   UNL     1       8.371  20.352  53.377  1.00  0.00     0.002 A 
HETATM   23  C   UNL     1       8.122  20.313  54.741  1.00  0.00     0.002 A 
HETATM   24  C   UNL     1       7.754  21.479  55.419  1.00  0.00     0.033 A 
ENDBRANCH   3  18
TORSDOF 5
ENDMDL
MODEL 9
REMARK VINA RESULT:      -7.2      2.323      6.642
REMARK  5 active torsions:
REMARK  status: ('A' for Active; 'I' for Inactive)
REMARK    1  A    between atoms: C_3  and  C_4 
REMARK    2  A    between atoms: C_4  and  C_5 
REMARK    3  A    between atoms: C_5  and  N_6 
REMARK       I    between atoms: N_6  and  C_7 
REMARK       I    between atoms: C_7  and  N_8 
REMARK    4  A    between atoms: N_8  and  C_9 
REMARK    5  A    between atoms: N_11  and  C_12 
ROOT
HETATM    1  C   UNL     1       4.573  27.630  53.701  1.00  0.00     0.159 A 
HETATM    2  N   UNL     1       4.750  27.082  52.499  1.00  0.00    -0.149 NA
HETATM    3  N   UNL     1       4.600  28.078  51.599  1.00  0.00    -0.241 N 
HETATM    4  C   UNL     1       4.289  29.261  52.246  1.00  0.00     0.129 A 
HETATM    5  C   UNL     1       4.271  29.009  53.600  1.00  0.00     0.003 A 
HETATM    6  C   UNL     1       3.995  29.973  54.691  1.00  0.00     0.054 C 
ENDROOT
BRANCH   1   7
HETATM    7  N   UNL     1       4.672  26.945  54.891  1.00  0.00    -0.291 N 
HETATM    8  C   UNL     1       5.497  25.915  55.225  1.00  0.00     0.321 C 
HETATM    9  N   UNL     1       6.327  25.440  54.262  1.00  0.00    -0.343 N 
HETATM   10  O   UNL     1       5.458  25.459  56.367  1.00  0.00    -0.247 OA
HETATM   11  H   UNL     1       6.257  25.882  53.345  1.00  0.00     0.164 HD
HETATM   12  H   UNL     1       4.077  27.239  55.651  1.00  0.00     0.172 HD
BRANCH   9  13
HETATM   13  C   UNL     1       7.267  24.363  54.478  1.00  0.00     0.128 C 
BRANCH  13  14
HETATM   14  C   UNL     1       7.964  23.924  53.188  1.00  0.00     0.046 C 
BRANCH  14  15
HETATM   15  C   UNL     1       8.606  22.570  53.339  1.00  0.00    -0.029 C 
HETATM   16  C   UNL     1       7.987  21.409  53.081  1.00  0.00    -0.035 C 
HETATM   17  C   UNL     1       8.629  20.069  53.241  1.00  0.00     0.036 C 
ENDBRANCH  14  15
ENDBRANCH  13  14
ENDBRANCH   9  13
ENDBRANCH   1   7
BRANCH   3  18
HETATM   18  C   UNL     1       4.782  27.882  50.192  1.00  0.00     0.079 A 
HETATM   19  C   UNL     1       5.324  28.860  49.334  1.00  0.00     0.062 A 
HETATM   20 CL   UNL     1       5.926  30.412  49.811  1.00  0.00    -0.082 Cl
HETATM   21  C   UNL     1       5.446  28.593  47.959  1.00  0.00     0.026 A 
HETATM   22  C   UNL     1       5.043  27.373  47.422  1.00  0.00     0.002 A 
HETATM   23  C   UNL     1       4.513  26.401  48.257  1.00  0.00     0.002 A 
HETATM   24  C   UNL     1       4.384  26.650  49.627  1.00  0.00     0.033 A 
ENDBRANCH   3  18
TORSDOF 5
ENDMDL
MODEL 10
REMARK VINA RESULT:      -7.2     11.841     16.090
REMARK  5 active torsions:
REMARK  status: ('A' for Active; 'I' for Inactive)
REMARK    1  A    between atoms: C_3  and  C_4 
REMARK    2  A    between atoms: C_4  and  C_5 
REMARK    3  A    between atoms: C_5  and  N_6 
REMARK       I    between atoms: N_6  and  C_7 
REMARK       I    between atoms: C_7  and  N_8 
REMARK    4  A    between atoms: N_8  and  C_9 
REMARK    5  A    between atoms: N_11  and  C_12 
ROOT
HETATM    1  C   UNL     1       5.124  33.958  64.840  1.00  0.00     0.159 A 
HETATM    2  N   UNL     1       5.747  32.952  64.229  1.00  0.00    -0.149 NA
HETATM    3  N   UNL     1       6.308  33.470  63.114  1.00  0.00    -0.241 N 
HETATM    4  C   UNL     1       6.001  34.814  63.009  1.00  0.00     0.129 A 
HETATM    5  C   UNL     1       5.246  35.162  64.107  1.00  0.00     0.003 A 
HETATM    6  C   UNL     1       4.694  36.498  64.432  1.00  0.00     0.054 C 
ENDROOT
BRANCH   1   7
HETATM    7  N   UNL     1       4.448  33.845  66.034  1.00  0.00    -0.291 N 
HETATM    8  C   UNL     1       4.928  33.921  67.306  1.00  0.00     0.321 C 
HETATM    9  N   UNL     1       6.265  34.093  67.461  1.00  0.00    -0.343 N 
HETATM   10  O   UNL     1       4.145  33.831  68.250  1.00  0.00    -0.247 OA
HETATM   11  H   UNL     1       6.818  34.134  66.605  1.00  0.00     0.164 HD
HETATM   12  H   UNL     1       3.449  33.706  65.995  1.00  0.00     0.172 HD
BRANCH   9  13
HETATM   13  C   UNL     1       6.910  34.209  68.749  1.00  0.00     0.128 C 
BRANCH  13  14
HETATM   14  C   UNL     1       7.074  35.664  69.196  1.00  0.00     0.046 C 
BRANCH  14  15
HETATM   15  C   UNL     1       7.971  35.776  70.400  1.00  0.00    -0.029 C 
HETATM   16  C   UNL     1       7.689  36.514  71.484  1.00  0.00    -0.035 C 
HETATM   17  C   UNL     1       8.588  36.626  72.673  1.00  0.00     0.036 C 
ENDBRANCH  14  15
ENDBRANCH  13  14
ENDBRANCH   9  13
ENDBRANCH   1   7
BRANCH   3  18
HETATM   18  C   UNL     1       7.121  32.694  62.227  1.00  0.00     0.079 A 
HETATM   19  C   UNL     1       6.740  32.365  60.910  1.00  0.00     0.062 A 
HETATM   20 CL   UNL     1       5.293  32.882  60.111  1.00  0.00    -0.082 Cl
HETATM   21  C   UNL     1       7.589  31.577  60.113  1.00  0.00     0.026 A 
HETATM   22  C   UNL     1       8.809  31.114  60.597  1.00  0.00     0.002 A 
HETATM   23  C   UNL     1       9.198  31.436  61.889  1.00  0.00     0.002 A 
HETATM   24  C   UNL     1       8.365  32.217  62.696  1.00  0.00     0.033 A 
ENDBRANCH   3  18
TORSDOF 5
ENDMDL
