MODEL 1
REMARK VINA RESULT:      -8.8      0.000      0.000
REMARK  5 active torsions:
REMARK  status: ('A' for Active; 'I' for Inactive)
REMARK    1  A    between atoms: C_7  and  C_8 
REMARK    2  A    between atoms: N_9  and  C_10 
REMARK    3  A    between atoms: C_10  and  C_11 
REMARK       I    between atoms: C_11  and  N_12 
REMARK    4  A    between atoms: N_12  and  C_13 
REMARK    5  A    between atoms: C_13  and  C_14 
ROOT
HETATM    1  C   UNL     1       5.593  29.497  57.109  1.00  0.00     0.158 A 
HETATM    2  N   UNL     1       5.348  28.180  56.550  1.00  0.00    -0.326 N 
HETATM    3  C   UNL     1       4.850  28.230  55.263  1.00  0.00     0.255 A 
HETATM    4  O   UNL     1       4.527  27.302  54.548  1.00  0.00    -0.267 OA
HETATM    5  C   UNL     1       4.701  29.647  54.917  1.00  0.00     0.040 A 
HETATM    6  C   UNL     1       5.125  30.408  56.008  1.00  0.00    -0.015 A 
HETATM    7  C   UNL     1       4.198  30.208  53.759  1.00  0.00     0.017 A 
HETATM    8  C   UNL     1       4.124  31.599  53.702  1.00  0.00     0.001 A 
HETATM    9  C   UNL     1       4.544  32.385  54.791  1.00  0.00     0.001 A 
HETATM   10  C   UNL     1       5.045  31.791  55.956  1.00  0.00     0.011 A 
ENDROOT
BRANCH   1  11
HETATM   11  C   UNL     1       7.054  29.808  57.308  1.00  0.00     0.004 A 
HETATM   12  C   UNL     1       8.167  29.462  56.534  1.00  0.00     0.017 A 
HETATM   13  C   UNL     1       8.269  28.631  55.295  1.00  0.00     0.069 C 
HETATM   14  N   UNL     1       9.269  30.092  57.079  1.00  0.00    -0.354 N 
HETATM   15  C   UNL     1      10.606  30.082  56.517  1.00  0.00     0.156 C 
HETATM   16  C   UNL     1       8.925  30.762  58.234  1.00  0.00     0.045 A 
HETATM   17  C   UNL     1       7.550  30.605  58.401  1.00  0.00     0.001 A 
HETATM   18  C   UNL     1       9.706  31.507  59.135  1.00  0.00     0.030 A 
HETATM   19  C   UNL     1       6.932  31.230  59.510  1.00  0.00     0.014 A 
HETATM   20  C   UNL     1       7.700  31.978  60.409  1.00  0.00     0.001 A 
HETATM   21  C   UNL     1       9.069  32.113  60.222  1.00  0.00     0.002 A 
ENDBRANCH   1  11
BRANCH   2  22
HETATM   22  C   UNL     1       5.530  26.950  57.310  1.00  0.00     0.229 C 
BRANCH  22  23
HETATM   23  C   UNL     1       6.739  26.093  56.906  1.00  0.00     0.235 C 
HETATM   24  N   UNL     1       6.607  25.393  55.732  1.00  0.00    -0.357 N 
HETATM   25  H   UNL     1       5.728  25.441  55.238  1.00  0.00     0.162 HD
HETATM   26  O   UNL     1       7.785  26.109  57.554  1.00  0.00    -0.272 OA
BRANCH  24  27
HETATM   27  C   UNL     1       7.705  24.717  55.066  1.00  0.00     0.154 C 
BRANCH  27  28
HETATM   28  C   UNL     1       7.316  23.394  54.404  1.00  0.00     0.139 C 
HETATM   29  O   UNL     1       7.424  22.288  55.328  1.00  0.00    -0.384 OA
HETATM   30  C   UNL     1       7.924  21.154  54.602  1.00  0.00     0.168 C 
HETATM   31  C   UNL     1       7.891  21.519  53.132  1.00  0.00     0.029 C 
HETATM   32  C   UNL     1       8.129  23.008  53.181  1.00  0.00     0.035 C 
ENDBRANCH  27  28
ENDBRANCH  24  27
ENDBRANCH  22  23
ENDBRANCH   2  22
TORSDOF 5
ENDMDL
MODEL 2
REMARK VINA RESULT:      -8.7      2.453      3.687
REMARK  5 active torsions:
REMARK  status: ('A' for Active; 'I' for Inactive)
REMARK    1  A    between atoms: C_7  and  C_8 
REMARK    2  A    between atoms: N_9  and  C_10 
REMARK    3  A    between atoms: C_10  and  C_11 
REMARK       I    between atoms: C_11  and  N_12 
REMARK    4  A    between atoms: N_12  and  C_13 
REMARK    5  A    between atoms: C_13  and  C_14 
ROOT
HETATM    1  C   UNL     1       4.468  28.049  53.248  1.00  0.00     0.158 A 
HETATM    2  N   UNL     1       4.799  26.743  52.707  1.00  0.00    -0.326 N 
HETATM    3  C   UNL     1       5.285  26.808  51.415  1.00  0.00     0.255 A 
HETATM    4  O   UNL     1       5.621  25.890  50.694  1.00  0.00    -0.267 OA
HETATM    5  C   UNL     1       5.256  28.219  51.018  1.00  0.00     0.040 A 
HETATM    6  C   UNL     1       4.761  28.963  52.091  1.00  0.00    -0.015 A 
HETATM    7  C   UNL     1       5.597  28.784  49.805  1.00  0.00     0.017 A 
HETATM    8  C   UNL     1       5.434  30.163  49.672  1.00  0.00     0.001 A 
HETATM    9  C   UNL     1       4.934  30.931  50.740  1.00  0.00     0.001 A 
HETATM   10  C   UNL     1       4.590  30.333  51.958  1.00  0.00     0.011 A 
ENDROOT
BRANCH   1  11
HETATM   11  C   UNL     1       5.381  28.491  54.363  1.00  0.00     0.004 A 
HETATM   12  C   UNL     1       6.763  28.341  54.515  1.00  0.00     0.017 A 
HETATM   13  C   UNL     1       7.767  27.650  53.648  1.00  0.00     0.069 C 
HETATM   14  N   UNL     1       7.137  29.027  55.654  1.00  0.00    -0.354 N 
HETATM   15  C   UNL     1       8.499  29.212  56.115  1.00  0.00     0.156 C 
HETATM   16  C   UNL     1       6.030  29.542  56.297  1.00  0.00     0.045 A 
HETATM   17  C   UNL     1       4.921  29.225  55.514  1.00  0.00     0.001 A 
HETATM   18  C   UNL     1       5.916  30.274  57.492  1.00  0.00     0.030 A 
HETATM   19  C   UNL     1       3.648  29.670  55.942  1.00  0.00     0.014 A 
HETATM   20  C   UNL     1       3.525  30.404  57.126  1.00  0.00     0.001 A 
HETATM   21  C   UNL     1       4.646  30.700  57.891  1.00  0.00     0.002 A 
ENDBRANCH   1  11
BRANCH   2  22
HETATM   22  C   UNL     1       4.557  25.501  53.429  1.00  0.00     0.229 C 
BRANCH  22  23
HETATM   23  C   UNL     1       5.812  24.765  53.922  1.00  0.00     0.235 C 
HETATM   24  N   UNL     1       6.464  24.005  52.983  1.00  0.00    -0.357 N 
HETATM   25  H   UNL     1       6.066  23.934  52.058  1.00  0.00     0.162 HD
HETATM   26  O   UNL     1       6.243  24.924  55.063  1.00  0.00    -0.272 OA
BRANCH  24  27
HETATM   27  C   UNL     1       7.779  23.424  53.184  1.00  0.00     0.154 C 
BRANCH  27  28
HETATM   28  C   UNL     1       7.768  22.099  53.948  1.00  0.00     0.139 C 
HETATM   29  O   UNL     1       8.363  22.239  55.258  1.00  0.00    -0.384 OA
HETATM   30  C   UNL     1       9.111  21.043  55.532  1.00  0.00     0.168 C 
HETATM   31  C   UNL     1       8.758  20.042  54.450  1.00  0.00     0.029 C 
HETATM   32  C   UNL     1       8.489  20.946  53.272  1.00  0.00     0.035 C 
ENDBRANCH  27  28
ENDBRANCH  24  27
ENDBRANCH  22  23
ENDBRANCH   2  22
TORSDOF 5
ENDMDL
MODEL 3
REMARK VINA RESULT:      -8.6      1.679      2.472
REMARK  5 active torsions:
REMARK  status: ('A' for Active; 'I' for Inactive)
REMARK    1  A    between atoms: C_7  and  C_8 
REMARK    2  A    between atoms: N_9  and  C_10 
REMARK    3  A    between atoms: C_10  and  C_11 
REMARK       I    between atoms: C_11  and  N_12 
REMARK    4  A    between atoms: N_12  and  C_13 
REMARK    5  A    between atoms: C_13  and  C_14 
ROOT
HETATM    1  C   UNL     1       4.861  27.847  55.697  1.00  0.00     0.158 A 
HETATM    2  N   UNL     1       5.232  26.448  55.583  1.00  0.00    -0.326 N 
HETATM    3  C   UNL     1       5.469  26.064  54.277  1.00  0.00     0.255 A 
HETATM    4  O   UNL     1       5.770  24.961  53.864  1.00  0.00    -0.267 OA
HETATM    5  C   UNL     1       5.214  27.235  53.433  1.00  0.00     0.040 A 
HETATM    6  C   UNL     1       4.839  28.295  54.262  1.00  0.00    -0.015 A 
HETATM    7  C   UNL     1       5.268  27.339  52.057  1.00  0.00     0.017 A 
HETATM    8  C   UNL     1       4.933  28.570  51.495  1.00  0.00     0.001 A 
HETATM    9  C   UNL     1       4.550  29.651  52.311  1.00  0.00     0.001 A 
HETATM   10  C   UNL     1       4.498  29.517  53.704  1.00  0.00     0.011 A 
ENDROOT
BRANCH   1  11
HETATM   11  C   UNL     1       5.904  28.696  56.378  1.00  0.00     0.004 A 
HETATM   12  C   UNL     1       7.299  28.666  56.282  1.00  0.00     0.017 A 
HETATM   13  C   UNL     1       8.202  27.751  55.518  1.00  0.00     0.069 C 
HETATM   14  N   UNL     1       7.792  29.730  57.012  1.00  0.00    -0.354 N 
HETATM   15  C   UNL     1       9.186  30.122  57.089  1.00  0.00     0.156 C 
HETATM   16  C   UNL     1       6.769  30.396  57.654  1.00  0.00     0.045 A 
HETATM   17  C   UNL     1       5.579  29.776  57.275  1.00  0.00     0.001 A 
HETATM   18  C   UNL     1       6.790  31.503  58.521  1.00  0.00     0.030 A 
HETATM   19  C   UNL     1       4.362  30.293  57.777  1.00  0.00     0.014 A 
HETATM   20  C   UNL     1       4.373  31.398  58.636  1.00  0.00     0.001 A 
HETATM   21  C   UNL     1       5.573  31.993  59.002  1.00  0.00     0.002 A 
ENDBRANCH   1  11
BRANCH   2  22
HETATM   22  C   UNL     1       5.261  25.540  56.722  1.00  0.00     0.229 C 
BRANCH  22  23
HETATM   23  C   UNL     1       6.642  24.974  57.084  1.00  0.00     0.235 C 
HETATM   24  N   UNL     1       7.034  23.862  56.381  1.00  0.00    -0.357 N 
HETATM   25  H   UNL     1       6.389  23.460  55.717  1.00  0.00     0.162 HD
HETATM   26  O   UNL     1       7.377  25.542  57.892  1.00  0.00    -0.272 OA
BRANCH  24  27
HETATM   27  C   UNL     1       8.380  23.320  56.409  1.00  0.00     0.154 C 
BRANCH  27  28
HETATM   28  C   UNL     1       8.705  22.389  55.240  1.00  0.00     0.139 C 
HETATM   29  O   UNL     1       8.478  23.038  53.969  1.00  0.00    -0.384 OA
HETATM   30  C   UNL     1       7.933  22.062  53.067  1.00  0.00     0.168 C 
HETATM   31  C   UNL     1       8.058  20.713  53.745  1.00  0.00     0.029 C 
HETATM   32  C   UNL     1       7.924  21.088  55.200  1.00  0.00     0.035 C 
ENDBRANCH  27  28
ENDBRANCH  24  27
ENDBRANCH  22  23
ENDBRANCH   2  22
TORSDOF 5
ENDMDL
MODEL 4
REMARK VINA RESULT:      -8.6      8.442     12.401
REMARK  5 active torsions:
REMARK  status: ('A' for Active; 'I' for Inactive)
REMARK    1  A    between atoms: C_7  and  C_8 
REMARK    2  A    between atoms: N_9  and  C_10 
REMARK    3  A    between atoms: C_10  and  C_11 
REMARK       I    between atoms: C_11  and  N_12 
REMARK    4  A    between atoms: N_12  and  C_13 
REMARK    5  A    between atoms: C_13  and  C_14 
ROOT
HETATM    1  C   UNL     1       4.564  33.511  63.210  1.00  0.00     0.158 A 
HETATM    2  N   UNL     1       4.909  33.816  64.587  1.00  0.00    -0.326 N 
HETATM    3  C   UNL     1       6.242  33.589  64.867  1.00  0.00     0.255 A 
HETATM    4  O   UNL     1       6.819  33.726  65.928  1.00  0.00    -0.267 OA
HETATM    5  C   UNL     1       6.852  33.062  63.642  1.00  0.00     0.040 A 
HETATM    6  C   UNL     1       5.865  32.998  62.657  1.00  0.00    -0.015 A 
HETATM    7  C   UNL     1       8.151  32.640  63.435  1.00  0.00     0.017 A 
HETATM    8  C   UNL     1       8.466  32.136  62.174  1.00  0.00     0.001 A 
HETATM    9  C   UNL     1       7.485  32.060  61.166  1.00  0.00     0.001 A 
HETATM   10  C   UNL     1       6.174  32.489  61.405  1.00  0.00     0.011 A 
ENDROOT
BRANCH   1  11
HETATM   11  C   UNL     1       4.218  34.727  62.390  1.00  0.00     0.004 A 
HETATM   12  C   UNL     1       3.296  34.885  61.351  1.00  0.00     0.017 A 
HETATM   13  C   UNL     1       2.399  33.889  60.686  1.00  0.00     0.069 C 
HETATM   14  N   UNL     1       3.271  36.224  61.012  1.00  0.00    -0.354 N 
HETATM   15  C   UNL     1       2.371  36.831  60.049  1.00  0.00     0.156 C 
HETATM   16  C   UNL     1       4.212  36.927  61.735  1.00  0.00     0.045 A 
HETATM   17  C   UNL     1       4.817  36.020  62.604  1.00  0.00     0.001 A 
HETATM   18  C   UNL     1       4.569  38.286  61.708  1.00  0.00     0.030 A 
HETATM   19  C   UNL     1       5.811  36.499  63.489  1.00  0.00     0.014 A 
HETATM   20  C   UNL     1       6.168  37.851  63.474  1.00  0.00     0.001 A 
HETATM   21  C   UNL     1       5.554  38.732  62.593  1.00  0.00     0.002 A 
ENDBRANCH   1  11
BRANCH   2  22
HETATM   22  C   UNL     1       3.924  34.232  65.577  1.00  0.00     0.229 C 
BRANCH  22  23
HETATM   23  C   UNL     1       4.474  35.044  66.760  1.00  0.00     0.235 C 
HETATM   24  N   UNL     1       4.744  34.328  67.899  1.00  0.00    -0.357 N 
HETATM   25  H   UNL     1       4.526  33.342  67.913  1.00  0.00     0.162 HD
HETATM   26  O   UNL     1       4.734  36.242  66.652  1.00  0.00    -0.272 OA
BRANCH  24  27
HETATM   27  C   UNL     1       5.475  34.860  69.034  1.00  0.00     0.154 C 
BRANCH  27  28
HETATM   28  C   UNL     1       6.319  33.822  69.778  1.00  0.00     0.139 C 
HETATM   29  O   UNL     1       5.585  33.230  70.873  1.00  0.00    -0.384 OA
HETATM   30  C   UNL     1       6.501  33.034  71.962  1.00  0.00     0.168 C 
HETATM   31  C   UNL     1       7.892  33.294  71.423  1.00  0.00     0.029 C 
HETATM   32  C   UNL     1       7.622  34.335  70.365  1.00  0.00     0.035 C 
ENDBRANCH  27  28
ENDBRANCH  24  27
ENDBRANCH  22  23
ENDBRANCH   2  22
TORSDOF 5
ENDMDL
MODEL 5
REMARK VINA RESULT:      -8.5      1.525      2.840
REMARK  5 active torsions:
REMARK  status: ('A' for Active; 'I' for Inactive)
REMARK    1  A    between atoms: C_7  and  C_8 
REMARK    2  A    between atoms: N_9  and  C_10 
REMARK    3  A    between atoms: C_10  and  C_11 
REMARK       I    between atoms: C_11  and  N_12 
REMARK    4  A    between atoms: N_12  and  C_13 
REMARK    5  A    between atoms: C_13  and  C_14 
ROOT
HETATM    1  C   UNL     1       4.688  28.319  56.009  1.00  0.00     0.158 A 
HETATM    2  N   UNL     1       5.305  27.008  55.911  1.00  0.00    -0.326 N 
HETATM    3  C   UNL     1       5.744  26.719  54.633  1.00  0.00     0.255 A 
HETATM    4  O   UNL     1       6.274  25.700  54.236  1.00  0.00    -0.267 OA
HETATM    5  C   UNL     1       5.382  27.861  53.788  1.00  0.00     0.040 A 
HETATM    6  C   UNL     1       4.743  28.810  54.588  1.00  0.00    -0.015 A 
HETATM    7  C   UNL     1       5.564  28.024  52.428  1.00  0.00     0.017 A 
HETATM    8  C   UNL     1       5.083  29.200  51.855  1.00  0.00     0.001 A 
HETATM    9  C   UNL     1       4.435  30.169  52.643  1.00  0.00     0.001 A 
HETATM   10  C   UNL     1       4.257  29.976  54.018  1.00  0.00     0.011 A 
ENDROOT
BRANCH   1  11
HETATM   11  C   UNL     1       5.489  29.306  56.817  1.00  0.00     0.004 A 
HETATM   12  C   UNL     1       5.070  30.292  57.716  1.00  0.00     0.017 A 
HETATM   13  C   UNL     1       3.694  30.717  58.121  1.00  0.00     0.069 C 
HETATM   14  N   UNL     1       6.199  30.848  58.286  1.00  0.00    -0.354 N 
HETATM   15  C   UNL     1       6.205  31.835  59.348  1.00  0.00     0.156 C 
HETATM   16  C   UNL     1       7.340  30.319  57.721  1.00  0.00     0.045 A 
HETATM   17  C   UNL     1       6.929  29.353  56.803  1.00  0.00     0.001 A 
HETATM   18  C   UNL     1       8.698  30.598  57.953  1.00  0.00     0.030 A 
HETATM   19  C   UNL     1       7.921  28.631  56.099  1.00  0.00     0.014 A 
HETATM   20  C   UNL     1       9.275  28.896  56.328  1.00  0.00     0.001 A 
HETATM   21  C   UNL     1       9.657  29.869  57.243  1.00  0.00     0.002 A 
ENDBRANCH   1  11
BRANCH   2  22
HETATM   22  C   UNL     1       5.369  26.077  57.029  1.00  0.00     0.229 C 
BRANCH  22  23
HETATM   23  C   UNL     1       6.765  25.522  57.352  1.00  0.00     0.235 C 
HETATM   24  N   UNL     1       7.115  24.370  56.691  1.00  0.00    -0.357 N 
HETATM   25  H   UNL     1       6.435  23.936  56.083  1.00  0.00     0.162 HD
HETATM   26  O   UNL     1       7.542  26.126  58.089  1.00  0.00    -0.272 OA
BRANCH  24  27
HETATM   27  C   UNL     1       8.458  23.821  56.681  1.00  0.00     0.154 C 
BRANCH  27  28
HETATM   28  C   UNL     1       8.702  22.782  55.585  1.00  0.00     0.139 C 
HETATM   29  O   UNL     1       8.556  23.359  54.268  1.00  0.00    -0.384 OA
HETATM   30  C   UNL     1       7.926  22.381  53.426  1.00  0.00     0.168 C 
HETATM   31  C   UNL     1       7.908  21.077  54.197  1.00  0.00     0.029 C 
HETATM   32  C   UNL     1       7.795  21.565  55.621  1.00  0.00     0.035 C 
ENDBRANCH  27  28
ENDBRANCH  24  27
ENDBRANCH  22  23
ENDBRANCH   2  22
TORSDOF 5
ENDMDL
MODEL 6
REMARK VINA RESULT:      -8.5      8.506     12.462
REMARK  5 active torsions:
REMARK  status: ('A' for Active; 'I' for Inactive)
REMARK    1  A    between atoms: C_7  and  C_8 
REMARK    2  A    between atoms: N_9  and  C_10 
REMARK    3  A    between atoms: C_10  and  C_11 
REMARK       I    between atoms: C_11  and  N_12 
REMARK    4  A    between atoms: N_12  and  C_13 
REMARK    5  A    between atoms: C_13  and  C_14 
ROOT
HETATM    1  C   UNL     1       4.576  33.755  63.158  1.00  0.00     0.158 A 
HETATM    2  N   UNL     1       4.905  33.893  64.566  1.00  0.00    -0.326 N 
HETATM    3  C   UNL     1       6.220  33.567  64.840  1.00  0.00     0.255 A 
HETATM    4  O   UNL     1       6.780  33.560  65.919  1.00  0.00    -0.267 OA
HETATM    5  C   UNL     1       6.828  33.143  63.576  1.00  0.00     0.040 A 
HETATM    6  C   UNL     1       5.860  33.237  62.574  1.00  0.00    -0.015 A 
HETATM    7  C   UNL     1       8.108  32.678  63.344  1.00  0.00     0.017 A 
HETATM    8  C   UNL     1       8.424  32.295  62.041  1.00  0.00     0.001 A 
HETATM    9  C   UNL     1       7.462  32.379  61.017  1.00  0.00     0.001 A 
HETATM   10  C   UNL     1       6.170  32.848  61.280  1.00  0.00     0.011 A 
ENDROOT
BRANCH   1  11
HETATM   11  C   UNL     1       4.309  35.068  62.468  1.00  0.00     0.004 A 
HETATM   12  C   UNL     1       4.981  36.291  62.559  1.00  0.00     0.017 A 
HETATM   13  C   UNL     1       6.141  36.703  63.407  1.00  0.00     0.069 C 
HETATM   14  N   UNL     1       4.418  37.148  61.633  1.00  0.00    -0.354 N 
HETATM   15  C   UNL     1       4.890  38.486  61.330  1.00  0.00     0.156 C 
HETATM   16  C   UNL     1       3.343  36.551  61.007  1.00  0.00     0.045 A 
HETATM   17  C   UNL     1       3.253  35.252  61.506  1.00  0.00     0.001 A 
HETATM   18  C   UNL     1       2.456  37.040  60.033  1.00  0.00     0.030 A 
HETATM   19  C   UNL     1       2.239  34.408  60.998  1.00  0.00     0.014 A 
HETATM   20  C   UNL     1       1.354  34.883  60.023  1.00  0.00     0.001 A 
HETATM   21  C   UNL     1       1.463  36.184  59.549  1.00  0.00     0.002 A 
ENDBRANCH   1  11
BRANCH   2  22
HETATM   22  C   UNL     1       3.922  34.253  65.579  1.00  0.00     0.229 C 
BRANCH  22  23
HETATM   23  C   UNL     1       4.437  35.149  66.715  1.00  0.00     0.235 C 
HETATM   24  N   UNL     1       4.753  34.505  67.885  1.00  0.00    -0.357 N 
HETATM   25  H   UNL     1       4.588  33.511  67.949  1.00  0.00     0.162 HD
HETATM   26  O   UNL     1       4.633  36.353  66.546  1.00  0.00    -0.272 OA
BRANCH  24  27
HETATM   27  C   UNL     1       5.464  35.130  68.986  1.00  0.00     0.154 C 
BRANCH  27  28
HETATM   28  C   UNL     1       6.815  34.487  69.305  1.00  0.00     0.139 C 
HETATM   29  O   UNL     1       6.681  33.434  70.285  1.00  0.00    -0.384 OA
HETATM   30  C   UNL     1       7.825  33.491  71.151  1.00  0.00     0.168 C 
HETATM   31  C   UNL     1       8.807  34.460  70.526  1.00  0.00     0.029 C 
HETATM   32  C   UNL     1       7.882  35.429  69.833  1.00  0.00     0.035 C 
ENDBRANCH  27  28
ENDBRANCH  24  27
ENDBRANCH  22  23
ENDBRANCH   2  22
TORSDOF 5
ENDMDL
MODEL 7
REMARK VINA RESULT:      -8.5      6.440      9.856
REMARK  5 active torsions:
REMARK  status: ('A' for Active; 'I' for Inactive)
REMARK    1  A    between atoms: C_7  and  C_8 
REMARK    2  A    between atoms: N_9  and  C_10 
REMARK    3  A    between atoms: C_10  and  C_11 
REMARK       I    between atoms: C_11  and  N_12 
REMARK    4  A    between atoms: N_12  and  C_13 
REMARK    5  A    between atoms: C_13  and  C_14 
ROOT
HETATM    1  C   UNL     1       4.061  36.685  63.485  1.00  0.00     0.158 A 
HETATM    2  N   UNL     1       3.473  36.042  62.323  1.00  0.00    -0.326 N 
HETATM    3  C   UNL     1       4.010  36.496  61.134  1.00  0.00     0.255 A 
HETATM    4  O   UNL     1       3.709  36.168  60.003  1.00  0.00    -0.267 OA
HETATM    5  C   UNL     1       4.989  37.532  61.474  1.00  0.00     0.040 A 
HETATM    6  C   UNL     1       5.019  37.664  62.864  1.00  0.00    -0.015 A 
HETATM    7  C   UNL     1       5.752  38.315  60.628  1.00  0.00     0.017 A 
HETATM    8  C   UNL     1       6.583  39.268  61.214  1.00  0.00     0.001 A 
HETATM    9  C   UNL     1       6.626  39.419  62.613  1.00  0.00     0.001 A 
HETATM   10  C   UNL     1       5.838  38.617  63.448  1.00  0.00     0.011 A 
ENDROOT
BRANCH   1  11
HETATM   11  C   UNL     1       4.903  35.762  64.326  1.00  0.00     0.004 A 
HETATM   12  C   UNL     1       4.952  35.593  65.714  1.00  0.00     0.017 A 
HETATM   13  C   UNL     1       4.226  36.311  66.807  1.00  0.00     0.069 C 
HETATM   14  N   UNL     1       5.801  34.536  65.978  1.00  0.00    -0.354 N 
HETATM   15  C   UNL     1       6.049  33.965  67.288  1.00  0.00     0.156 C 
HETATM   16  C   UNL     1       6.375  34.070  64.814  1.00  0.00     0.045 A 
HETATM   17  C   UNL     1       5.833  34.813  63.767  1.00  0.00     0.001 A 
HETATM   18  C   UNL     1       7.313  33.046  64.595  1.00  0.00     0.030 A 
HETATM   19  C   UNL     1       6.239  34.509  62.447  1.00  0.00     0.014 A 
HETATM   20  C   UNL     1       7.167  33.488  62.218  1.00  0.00     0.001 A 
HETATM   21  C   UNL     1       7.697  32.767  63.280  1.00  0.00     0.002 A 
ENDBRANCH   1  11
BRANCH   2  22
HETATM   22  C   UNL     1       2.377  35.088  62.415  1.00  0.00     0.229 C 
BRANCH  22  23
HETATM   23  C   UNL     1       2.753  33.619  62.170  1.00  0.00     0.235 C 
HETATM   24  N   UNL     1       2.720  33.206  60.861  1.00  0.00    -0.357 N 
HETATM   25  H   UNL     1       2.411  33.859  60.157  1.00  0.00     0.162 HD
HETATM   26  O   UNL     1       3.142  32.893  63.085  1.00  0.00    -0.272 OA
BRANCH  24  27
HETATM   27  C   UNL     1       3.256  31.939  60.400  1.00  0.00     0.154 C 
BRANCH  27  28
HETATM   28  C   UNL     1       3.983  32.018  59.056  1.00  0.00     0.139 C 
HETATM   29  O   UNL     1       3.793  30.815  58.279  1.00  0.00    -0.384 OA
HETATM   30  C   UNL     1       5.026  30.529  57.600  1.00  0.00     0.168 C 
HETATM   31  C   UNL     1       5.922  31.737  57.782  1.00  0.00     0.029 C 
HETATM   32  C   UNL     1       5.483  32.244  59.133  1.00  0.00     0.035 C 
ENDBRANCH  27  28
ENDBRANCH  24  27
ENDBRANCH  22  23
ENDBRANCH   2  22
TORSDOF 5
ENDMDL
MODEL 8
REMARK VINA RESULT:      -8.4      3.978      6.282
REMARK  5 active torsions:
REMARK  status: ('A' for Active; 'I' for Inactive)
REMARK    1  A    between atoms: C_7  and  C_8 
REMARK    2  A    between atoms: N_9  and  C_10 
REMARK    3  A    between atoms: C_10  and  C_11 
REMARK       I    between atoms: C_11  and  N_12 
REMARK    4  A    between atoms: N_12  and  C_13 
REMARK    5  A    between atoms: C_13  and  C_14 
ROOT
HETATM    1  C   UNL     1       6.994  27.965  53.286  1.00  0.00     0.158 A 
HETATM    2  N   UNL     1       5.852  28.126  52.404  1.00  0.00    -0.326 N 
HETATM    3  C   UNL     1       5.222  26.929  52.123  1.00  0.00     0.255 A 
HETATM    4  O   UNL     1       4.261  26.740  51.403  1.00  0.00    -0.267 OA
HETATM    5  C   UNL     1       5.979  25.876  52.806  1.00  0.00     0.040 A 
HETATM    6  C   UNL     1       7.041  26.475  53.487  1.00  0.00    -0.015 A 
HETATM    7  C   UNL     1       5.771  24.511  52.789  1.00  0.00     0.017 A 
HETATM    8  C   UNL     1       6.674  23.717  53.496  1.00  0.00     0.001 A 
HETATM    9  C   UNL     1       7.752  24.301  54.188  1.00  0.00     0.001 A 
HETATM   10  C   UNL     1       7.944  25.688  54.184  1.00  0.00     0.011 A 
ENDROOT
BRANCH   1  11
HETATM   11  C   UNL     1       6.790  28.559  54.655  1.00  0.00     0.004 A 
HETATM   12  C   UNL     1       5.619  28.748  55.395  1.00  0.00     0.017 A 
HETATM   13  C   UNL     1       4.192  28.470  55.044  1.00  0.00     0.069 C 
HETATM   14  N   UNL     1       5.981  29.221  56.641  1.00  0.00    -0.354 N 
HETATM   15  C   UNL     1       5.074  29.448  57.750  1.00  0.00     0.156 C 
HETATM   16  C   UNL     1       7.342  29.432  56.705  1.00  0.00     0.045 A 
HETATM   17  C   UNL     1       7.875  29.026  55.482  1.00  0.00     0.001 A 
HETATM   18  C   UNL     1       8.151  29.929  57.743  1.00  0.00     0.030 A 
HETATM   19  C   UNL     1       9.274  29.112  55.297  1.00  0.00     0.014 A 
HETATM   20  C   UNL     1      10.087  29.600  56.326  1.00  0.00     0.001 A 
HETATM   21  C   UNL     1       9.530  30.003  57.532  1.00  0.00     0.002 A 
ENDBRANCH   1  11
BRANCH   2  22
HETATM   22  C   UNL     1       5.478  29.406  51.818  1.00  0.00     0.229 C 
BRANCH  22  23
HETATM   23  C   UNL     1       5.758  29.555  50.315  1.00  0.00     0.235 C 
HETATM   24  N   UNL     1       5.187  28.604  49.506  1.00  0.00    -0.357 N 
HETATM   25  H   UNL     1       4.669  27.852  49.936  1.00  0.00     0.162 HD
HETATM   26  O   UNL     1       6.381  30.517  49.869  1.00  0.00    -0.272 OA
BRANCH  24  27
HETATM   27  C   UNL     1       5.139  28.697  48.058  1.00  0.00     0.154 C 
BRANCH  27  28
HETATM   28  C   UNL     1       4.293  27.613  47.388  1.00  0.00     0.139 C 
HETATM   29  O   UNL     1       2.884  27.926  47.455  1.00  0.00    -0.384 OA
HETATM   30  C   UNL     1       2.170  26.699  47.676  1.00  0.00     0.168 C 
HETATM   31  C   UNL     1       3.163  25.570  47.497  1.00  0.00     0.029 C 
HETATM   32  C   UNL     1       4.447  26.214  47.959  1.00  0.00     0.035 C 
ENDBRANCH  27  28
ENDBRANCH  24  27
ENDBRANCH  22  23
ENDBRANCH   2  22
TORSDOF 5
ENDMDL
MODEL 9
REMARK VINA RESULT:      -8.2      3.351      5.797
REMARK  5 active torsions:
REMARK  status: ('A' for Active; 'I' for Inactive)
REMARK    1  A    between atoms: C_7  and  C_8 
REMARK    2  A    between atoms: N_9  and  C_10 
REMARK    3  A    between atoms: C_10  and  C_11 
REMARK       I    between atoms: C_11  and  N_12 
REMARK    4  A    between atoms: N_12  and  C_13 
REMARK    5  A    between atoms: C_13  and  C_14 
ROOT
HETATM    1  C   UNL     1       7.727  27.479  55.093  1.00  0.00     0.158 A 
HETATM    2  N   UNL     1       6.864  27.065  54.000  1.00  0.00    -0.326 N 
HETATM    3  C   UNL     1       6.457  25.750  54.110  1.00  0.00     0.255 A 
HETATM    4  O   UNL     1       5.758  25.115  53.344  1.00  0.00    -0.267 OA
HETATM    5  C   UNL     1       7.095  25.204  55.312  1.00  0.00     0.040 A 
HETATM    6  C   UNL     1       7.861  26.214  55.896  1.00  0.00    -0.015 A 
HETATM    7  C   UNL     1       7.034  23.919  55.817  1.00  0.00     0.017 A 
HETATM    8  C   UNL     1       7.778  23.646  56.964  1.00  0.00     0.001 A 
HETATM    9  C   UNL     1       8.559  24.650  57.567  1.00  0.00     0.001 A 
HETATM   10  C   UNL     1       8.608  25.943  57.032  1.00  0.00     0.011 A 
ENDROOT
BRANCH   1  11
HETATM   11  C   UNL     1       7.093  28.487  56.015  1.00  0.00     0.004 A 
HETATM   12  C   UNL     1       5.746  28.747  56.285  1.00  0.00     0.017 A 
HETATM   13  C   UNL     1       4.505  28.145  55.706  1.00  0.00     0.069 C 
HETATM   14  N   UNL     1       5.693  29.686  57.296  1.00  0.00    -0.354 N 
HETATM   15  C   UNL     1       4.484  30.156  57.945  1.00  0.00     0.156 C 
HETATM   16  C   UNL     1       6.962  30.113  57.630  1.00  0.00     0.045 A 
HETATM   17  C   UNL     1       7.856  29.381  56.850  1.00  0.00     0.001 A 
HETATM   18  C   UNL     1       7.396  31.069  58.565  1.00  0.00     0.030 A 
HETATM   19  C   UNL     1       9.241  29.609  57.023  1.00  0.00     0.014 A 
HETATM   20  C   UNL     1       9.683  30.553  57.956  1.00  0.00     0.001 A 
HETATM   21  C   UNL     1       8.770  31.274  58.715  1.00  0.00     0.002 A 
ENDBRANCH   1  11
BRANCH   2  22
HETATM   22  C   UNL     1       6.545  27.930  52.873  1.00  0.00     0.229 C 
BRANCH  22  23
HETATM   23  C   UNL     1       5.370  27.469  51.996  1.00  0.00     0.235 C 
HETATM   24  N   UNL     1       5.706  26.728  50.890  1.00  0.00    -0.357 N 
HETATM   25  H   UNL     1       6.684  26.572  50.693  1.00  0.00     0.162 HD
HETATM   26  O   UNL     1       4.203  27.683  52.321  1.00  0.00    -0.272 OA
BRANCH  24  27
HETATM   27  C   UNL     1       4.744  26.013  50.073  1.00  0.00     0.154 C 
BRANCH  27  28
HETATM   28  C   UNL     1       4.228  26.808  48.872  1.00  0.00     0.139 C 
HETATM   29  O   UNL     1       3.221  27.767  49.266  1.00  0.00    -0.384 OA
HETATM   30  C   UNL     1       2.224  27.807  48.233  1.00  0.00     0.168 C 
HETATM   31  C   UNL     1       2.770  27.021  47.059  1.00  0.00     0.029 C 
HETATM   32  C   UNL     1       3.619  25.984  47.752  1.00  0.00     0.035 C 
ENDBRANCH  27  28
ENDBRANCH  24  27
ENDBRANCH  22  23
ENDBRANCH   2  22
TORSDOF 5
ENDMDL
MODEL 10
REMARK VINA RESULT:      -8.1      3.466      8.165
REMARK  5 active torsions:
REMARK  status: ('A' for Active; 'I' for Inactive)
REMARK    1  A    between atoms: C_7  and  C_8 
REMARK    2  A    between atoms: N_9  and  C_10 
REMARK    3  A    between atoms: C_10  and  C_11 
REMARK       I    between atoms: C_11  and  N_12 
REMARK    4  A    between atoms: N_12  and  C_13 
REMARK    5  A    between atoms: C_13  and  C_14 
ROOT
HETATM    1  C   UNL     1       5.594  29.303  57.617  1.00  0.00     0.158 A 
HETATM    2  N   UNL     1       5.117  30.592  58.084  1.00  0.00    -0.326 N 
HETATM    3  C   UNL     1       6.144  31.480  58.340  1.00  0.00     0.255 A 
HETATM    4  O   UNL     1       6.063  32.618  58.761  1.00  0.00    -0.267 OA
HETATM    5  C   UNL     1       7.399  30.769  58.081  1.00  0.00     0.040 A 
HETATM    6  C   UNL     1       7.087  29.473  57.665  1.00  0.00    -0.015 A 
HETATM    7  C   UNL     1       8.697  31.217  58.239  1.00  0.00     0.017 A 
HETATM    8  C   UNL     1       9.723  30.315  57.960  1.00  0.00     0.001 A 
HETATM    9  C   UNL     1       9.431  29.003  57.542  1.00  0.00     0.001 A 
HETATM   10  C   UNL     1       8.106  28.573  57.396  1.00  0.00     0.011 A 
ENDROOT
BRANCH   1  11
HETATM   11  C   UNL     1       5.258  29.018  56.177  1.00  0.00     0.004 A 
HETATM   12  C   UNL     1       4.913  29.889  55.138  1.00  0.00     0.017 A 
HETATM   13  C   UNL     1       4.716  31.372  55.138  1.00  0.00     0.069 C 
HETATM   14  N   UNL     1       4.819  29.144  53.979  1.00  0.00    -0.354 N 
HETATM   15  C   UNL     1       4.585  29.680  52.652  1.00  0.00     0.156 C 
HETATM   16  C   UNL     1       5.003  27.803  54.246  1.00  0.00     0.045 A 
HETATM   17  C   UNL     1       5.280  27.694  55.608  1.00  0.00     0.001 A 
HETATM   18  C   UNL     1       4.965  26.681  53.400  1.00  0.00     0.030 A 
HETATM   19  C   UNL     1       5.541  26.410  56.140  1.00  0.00     0.014 A 
HETATM   20  C   UNL     1       5.512  25.288  55.304  1.00  0.00     0.001 A 
HETATM   21  C   UNL     1       5.226  25.424  53.952  1.00  0.00     0.002 A 
ENDBRANCH   1  11
BRANCH   2  22
HETATM   22  C   UNL     1       3.710  30.874  58.333  1.00  0.00     0.229 C 
BRANCH  22  23
HETATM   23  C   UNL     1       3.420  31.821  59.508  1.00  0.00     0.235 C 
HETATM   24  N   UNL     1       3.906  31.422  60.728  1.00  0.00    -0.357 N 
HETATM   25  H   UNL     1       4.371  30.528  60.794  1.00  0.00     0.162 HD
HETATM   26  O   UNL     1       2.865  32.906  59.337  1.00  0.00    -0.272 OA
BRANCH  24  27
HETATM   27  C   UNL     1       3.939  32.273  61.903  1.00  0.00     0.154 C 
BRANCH  27  28
HETATM   28  C   UNL     1       5.169  32.070  62.789  1.00  0.00     0.139 C 
HETATM   29  O   UNL     1       4.946  32.571  64.126  1.00  0.00    -0.384 OA
HETATM   30  C   UNL     1       6.169  33.171  64.581  1.00  0.00     0.168 C 
HETATM   31  C   UNL     1       7.242  32.807  63.576  1.00  0.00     0.029 C 
HETATM   32  C   UNL     1       6.448  32.723  62.296  1.00  0.00     0.035 C 
ENDBRANCH  27  28
ENDBRANCH  24  27
ENDBRANCH  22  23
ENDBRANCH   2  22
TORSDOF 5
ENDMDL
