MODEL 1
REMARK VINA RESULT:     -10.8      0.000      0.000
REMARK  5 active torsions:
REMARK  status: ('A' for Active; 'I' for Inactive)
REMARK    1  A    between atoms: C_3  and  C_4 
REMARK    2  A    between atoms: C_9  and  C_10 
REMARK    3  A    between atoms: C_10  and  C_11 
REMARK       I    between atoms: C_11  and  N_12 
REMARK    4  A    between atoms: N_12  and  C_13 
REMARK    5  A    between atoms: C_20  and  C_21 
REMARK       I    between atoms: C_21  and  N_22 
ROOT
HETATM    1  C   UNL     1       8.306  28.417  57.236  1.00  0.00     0.035 A 
HETATM    2  C   UNL     1       7.769  29.308  58.175  1.00  0.00     0.046 A 
HETATM    3  C   UNL     1       8.515  30.441  58.573  1.00  0.00     0.030 A 
HETATM    4  C   UNL     1       9.774  30.640  58.022  1.00  0.00     0.063 A 
HETATM    5  N   UNL     1      10.238  31.796  58.587  1.00  0.00    -0.277 N 
HETATM    6  H   UNL     1      11.129  32.248  58.415  1.00  0.00     0.189 HD
HETATM    7  N   UNL     1       9.391  32.370  59.456  1.00  0.00    -0.168 NA
HETATM    8  C   UNL     1       8.319  31.544  59.458  1.00  0.00     0.156 A 
HETATM    9  C   UNL     1      10.344  29.773  57.088  1.00  0.00     0.034 A 
HETATM   10  C   UNL     1       9.581  28.660  56.707  1.00  0.00     0.032 A 
ENDROOT
BRANCH   1  11
HETATM   11  N   UNL     1       7.620  27.281  56.752  1.00  0.00    -0.327 N 
HETATM   12  C   UNL     1       7.718  25.979  57.216  1.00  0.00     0.226 C 
HETATM   13  O   UNL     1       8.519  25.561  58.046  1.00  0.00    -0.273 OA
HETATM   14  H   UNL     1       7.008  27.434  55.960  1.00  0.00     0.169 HD
BRANCH  12  15
HETATM   15  C   UNL     1       6.702  25.041  56.579  1.00  0.00     0.141 C 
BRANCH  15  16
HETATM   16  C   UNL     1       7.106  24.444  55.250  1.00  0.00    -0.049 A 
HETATM   17  C   UNL     1       7.294  23.054  55.160  1.00  0.00     0.023 A 
HETATM   18  C   UNL     1       7.744  22.452  53.972  1.00  0.00     0.048 A 
HETATM   19  C   UNL     1       8.000  23.261  52.858  1.00  0.00     0.016 A 
HETATM   20  C   UNL     1       7.830  24.643  52.938  1.00  0.00     0.001 A 
HETATM   21  C   UNL     1       7.398  25.231  54.129  1.00  0.00     0.007 A 
BRANCH  18  22
HETATM   22  C   UNL     1       7.939  20.957  53.910  1.00  0.00     0.417 C 
HETATM   23  F   UNL     1       9.243  20.578  53.800  1.00  0.00    -0.166 F 
HETATM   24  F   UNL     1       7.458  20.318  55.013  1.00  0.00    -0.166 F 
HETATM   25  F   UNL     1       7.296  20.396  52.847  1.00  0.00    -0.166 F 
ENDBRANCH  18  22
ENDBRANCH  15  16
ENDBRANCH  12  15
ENDBRANCH   1  11
BRANCH   8  26
HETATM   26  C   UNL     1       7.143  31.827  60.293  1.00  0.00     0.270 C 
HETATM   27  N   UNL     1       7.138  31.167  61.492  1.00  0.00    -0.365 N 
HETATM   28  H   UNL     1       7.915  30.558  61.715  1.00  0.00     0.159 HD
HETATM   29  H   UNL     1       6.371  31.303  62.133  1.00  0.00     0.159 HD
HETATM   30  O   UNL     1       6.228  32.581  59.981  1.00  0.00    -0.266 OA
ENDBRANCH   8  26
TORSDOF 5
ENDMDL
MODEL 2
REMARK VINA RESULT:     -10.2      2.110      2.623
REMARK  5 active torsions:
REMARK  status: ('A' for Active; 'I' for Inactive)
REMARK    1  A    between atoms: C_3  and  C_4 
REMARK    2  A    between atoms: C_9  and  C_10 
REMARK    3  A    between atoms: C_10  and  C_11 
REMARK       I    between atoms: C_11  and  N_12 
REMARK    4  A    between atoms: N_12  and  C_13 
REMARK    5  A    between atoms: C_20  and  C_21 
REMARK       I    between atoms: C_21  and  N_22 
ROOT
HETATM    1  C   UNL     1       8.316  28.295  57.331  1.00  0.00     0.035 A 
HETATM    2  C   UNL     1       7.795  29.215  58.252  1.00  0.00     0.046 A 
HETATM    3  C   UNL     1       8.540  30.369  58.587  1.00  0.00     0.030 A 
HETATM    4  C   UNL     1       9.782  30.559  57.994  1.00  0.00     0.063 A 
HETATM    5  N   UNL     1      10.249  31.739  58.503  1.00  0.00    -0.277 N 
HETATM    6  H   UNL     1      11.130  32.194  58.290  1.00  0.00     0.189 HD
HETATM    7  N   UNL     1       9.420  32.337  59.375  1.00  0.00    -0.168 NA
HETATM    8  C   UNL     1       8.357  31.502  59.437  1.00  0.00     0.156 A 
HETATM    9  C   UNL     1      10.335  29.664  57.077  1.00  0.00     0.034 A 
HETATM   10  C   UNL     1       9.573  28.531  56.758  1.00  0.00     0.032 A 
ENDROOT
BRANCH   1  11
HETATM   11  N   UNL     1       7.629  27.136  56.908  1.00  0.00    -0.327 N 
HETATM   12  C   UNL     1       7.619  25.893  57.522  1.00  0.00     0.226 C 
HETATM   13  O   UNL     1       8.312  25.546  58.472  1.00  0.00    -0.273 OA
HETATM   14  H   UNL     1       7.107  27.218  56.044  1.00  0.00     0.169 HD
BRANCH  12  15
HETATM   15  C   UNL     1       6.628  24.926  56.892  1.00  0.00     0.141 C 
BRANCH  15  16
HETATM   16  C   UNL     1       6.899  24.558  55.450  1.00  0.00    -0.049 A 
HETATM   17  C   UNL     1       6.030  25.034  54.453  1.00  0.00     0.023 A 
HETATM   18  C   UNL     1       6.187  24.662  53.107  1.00  0.00     0.048 A 
HETATM   19  C   UNL     1       7.240  23.805  52.760  1.00  0.00     0.016 A 
HETATM   20  C   UNL     1       8.100  23.315  53.741  1.00  0.00     0.001 A 
HETATM   21  C   UNL     1       7.924  23.679  55.078  1.00  0.00     0.007 A 
BRANCH  18  22
HETATM   22  C   UNL     1       5.235  25.188  52.061  1.00  0.00     0.417 C 
HETATM   23  F   UNL     1       4.505  26.261  52.475  1.00  0.00    -0.166 F 
HETATM   24  F   UNL     1       5.872  25.588  50.924  1.00  0.00    -0.166 F 
HETATM   25  F   UNL     1       4.330  24.249  51.668  1.00  0.00    -0.166 F 
ENDBRANCH  18  22
ENDBRANCH  15  16
ENDBRANCH  12  15
ENDBRANCH   1  11
BRANCH   8  26
HETATM   26  C   UNL     1       7.202  31.804  60.293  1.00  0.00     0.270 C 
HETATM   27  N   UNL     1       7.209  31.146  61.493  1.00  0.00    -0.365 N 
HETATM   28  H   UNL     1       7.981  30.525  61.703  1.00  0.00     0.159 HD
HETATM   29  H   UNL     1       6.457  31.295  62.148  1.00  0.00     0.159 HD
HETATM   30  O   UNL     1       6.293  32.572  59.997  1.00  0.00    -0.266 OA
ENDBRANCH   8  26
TORSDOF 5
ENDMDL
MODEL 3
REMARK VINA RESULT:     -10.0      1.533      1.863
REMARK  5 active torsions:
REMARK  status: ('A' for Active; 'I' for Inactive)
REMARK    1  A    between atoms: C_3  and  C_4 
REMARK    2  A    between atoms: C_9  and  C_10 
REMARK    3  A    between atoms: C_10  and  C_11 
REMARK       I    between atoms: C_11  and  N_12 
REMARK    4  A    between atoms: N_12  and  C_13 
REMARK    5  A    between atoms: C_20  and  C_21 
REMARK       I    between atoms: C_21  and  N_22 
ROOT
HETATM    1  C   UNL     1       7.899  28.350  57.292  1.00  0.00     0.035 A 
HETATM    2  C   UNL     1       7.424  29.395  58.097  1.00  0.00     0.046 A 
HETATM    3  C   UNL     1       8.293  30.446  58.466  1.00  0.00     0.030 A 
HETATM    4  C   UNL     1       9.609  30.414  58.022  1.00  0.00     0.063 A 
HETATM    5  N   UNL     1      10.190  31.543  58.528  1.00  0.00    -0.277 N 
HETATM    6  H   UNL     1      11.149  31.849  58.404  1.00  0.00     0.189 HD
HETATM    7  N   UNL     1       9.368  32.312  59.262  1.00  0.00    -0.168 NA
HETATM    8  C   UNL     1       8.190  31.647  59.232  1.00  0.00     0.156 A 
HETATM    9  C   UNL     1      10.119  29.389  57.223  1.00  0.00     0.034 A 
HETATM   10  C   UNL     1       9.235  28.361  56.867  1.00  0.00     0.032 A 
ENDROOT
BRANCH   1  11
HETATM   11  N   UNL     1       7.096  27.279  56.842  1.00  0.00    -0.327 N 
HETATM   12  C   UNL     1       6.879  26.883  55.532  1.00  0.00     0.226 C 
HETATM   13  O   UNL     1       7.244  27.478  54.523  1.00  0.00    -0.273 OA
HETATM   14  H   UNL     1       6.604  26.759  57.559  1.00  0.00     0.169 HD
BRANCH  12  15
HETATM   15  C   UNL     1       6.103  25.578  55.424  1.00  0.00     0.141 C 
BRANCH  15  16
HETATM   16  C   UNL     1       6.876  24.400  54.875  1.00  0.00    -0.049 A 
HETATM   17  C   UNL     1       7.223  23.351  55.743  1.00  0.00     0.023 A 
HETATM   18  C   UNL     1       8.007  22.269  55.307  1.00  0.00     0.048 A 
HETATM   19  C   UNL     1       8.439  22.240  53.974  1.00  0.00     0.016 A 
HETATM   20  C   UNL     1       8.113  23.281  53.106  1.00  0.00     0.001 A 
HETATM   21  C   UNL     1       7.346  24.359  53.556  1.00  0.00     0.007 A 
BRANCH  18  22
HETATM   22  C   UNL     1       8.365  21.161  56.265  1.00  0.00     0.417 C 
HETATM   23  F   UNL     1       7.482  20.123  56.259  1.00  0.00    -0.166 F 
HETATM   24  F   UNL     1       9.585  20.612  56.002  1.00  0.00    -0.166 F 
HETATM   25  F   UNL     1       8.424  21.593  57.556  1.00  0.00    -0.166 F 
ENDBRANCH  18  22
ENDBRANCH  15  16
ENDBRANCH  12  15
ENDBRANCH   1  11
BRANCH   8  26
HETATM   26  C   UNL     1       7.004  32.170  59.925  1.00  0.00     0.270 C 
HETATM   27  N   UNL     1       6.003  32.580  59.086  1.00  0.00    -0.365 N 
HETATM   28  H   UNL     1       6.141  32.494  58.086  1.00  0.00     0.159 HD
HETATM   29  H   UNL     1       5.149  32.950  59.473  1.00  0.00     0.159 HD
HETATM   30  O   UNL     1       6.881  32.247  61.143  1.00  0.00    -0.266 OA
ENDBRANCH   8  26
TORSDOF 5
ENDMDL
MODEL 4
REMARK VINA RESULT:      -9.8      5.324      7.824
REMARK  5 active torsions:
REMARK  status: ('A' for Active; 'I' for Inactive)
REMARK    1  A    between atoms: C_3  and  C_4 
REMARK    2  A    between atoms: C_9  and  C_10 
REMARK    3  A    between atoms: C_10  and  C_11 
REMARK       I    between atoms: C_11  and  N_12 
REMARK    4  A    between atoms: N_12  and  C_13 
REMARK    5  A    between atoms: C_20  and  C_21 
REMARK       I    between atoms: C_21  and  N_22 
ROOT
HETATM    1  C   UNL     1       4.824  27.024  52.401  1.00  0.00     0.035 A 
HETATM    2  C   UNL     1       4.940  26.842  51.016  1.00  0.00     0.046 A 
HETATM    3  C   UNL     1       4.336  27.767  50.136  1.00  0.00     0.030 A 
HETATM    4  C   UNL     1       3.631  28.839  50.670  1.00  0.00     0.063 A 
HETATM    5  N   UNL     1       3.174  29.545  49.592  1.00  0.00    -0.277 N 
HETATM    6  H   UNL     1       2.620  30.394  49.605  1.00  0.00     0.189 HD
HETATM    7  N   UNL     1       3.520  29.031  48.401  1.00  0.00    -0.168 NA
HETATM    8  C   UNL     1       4.241  27.930  48.720  1.00  0.00     0.156 A 
HETATM    9  C   UNL     1       3.490  29.050  52.043  1.00  0.00     0.034 A 
HETATM   10  C   UNL     1       4.103  28.121  52.894  1.00  0.00     0.032 A 
ENDROOT
BRANCH   1  11
HETATM   11  N   UNL     1       5.425  26.174  53.357  1.00  0.00    -0.327 N 
HETATM   12  C   UNL     1       6.703  26.273  53.883  1.00  0.00     0.226 C 
HETATM   13  O   UNL     1       7.585  27.040  53.512  1.00  0.00    -0.273 OA
HETATM   14  H   UNL     1       4.865  25.392  53.672  1.00  0.00     0.169 HD
BRANCH  12  15
HETATM   15  C   UNL     1       6.955  25.296  55.023  1.00  0.00     0.141 C 
BRANCH  15  16
HETATM   16  C   UNL     1       7.361  23.899  54.610  1.00  0.00    -0.049 A 
HETATM   17  C   UNL     1       7.679  22.961  55.607  1.00  0.00     0.023 A 
HETATM   18  C   UNL     1       8.138  21.673  55.281  1.00  0.00     0.048 A 
HETATM   19  C   UNL     1       8.268  21.323  53.931  1.00  0.00     0.016 A 
HETATM   20  C   UNL     1       7.969  22.248  52.932  1.00  0.00     0.001 A 
HETATM   21  C   UNL     1       7.530  23.531  53.269  1.00  0.00     0.007 A 
BRANCH  18  22
HETATM   22  C   UNL     1       8.474  20.691  56.376  1.00  0.00     0.417 C 
HETATM   23  F   UNL     1       8.311  21.194  57.632  1.00  0.00    -0.166 F 
HETATM   24  F   UNL     1       7.708  19.564  56.325  1.00  0.00    -0.166 F 
HETATM   25  F   UNL     1       9.766  20.265  56.309  1.00  0.00    -0.166 F 
ENDBRANCH  18  22
ENDBRANCH  15  16
ENDBRANCH  12  15
ENDBRANCH   1  11
BRANCH   8  26
HETATM   26  C   UNL     1       4.820  27.072  47.677  1.00  0.00     0.270 C 
HETATM   27  N   UNL     1       6.004  27.533  47.169  1.00  0.00    -0.365 N 
HETATM   28  H   UNL     1       6.387  28.396  47.534  1.00  0.00     0.159 HD
HETATM   29  H   UNL     1       6.477  27.006  46.451  1.00  0.00     0.159 HD
HETATM   30  O   UNL     1       4.320  26.028  47.272  1.00  0.00    -0.266 OA
ENDBRANCH   8  26
TORSDOF 5
ENDMDL
MODEL 5
REMARK VINA RESULT:      -9.5      6.226      8.716
REMARK  5 active torsions:
REMARK  status: ('A' for Active; 'I' for Inactive)
REMARK    1  A    between atoms: C_3  and  C_4 
REMARK    2  A    between atoms: C_9  and  C_10 
REMARK    3  A    between atoms: C_10  and  C_11 
REMARK       I    between atoms: C_11  and  N_12 
REMARK    4  A    between atoms: N_12  and  C_13 
REMARK    5  A    between atoms: C_20  and  C_21 
REMARK       I    between atoms: C_21  and  N_22 
ROOT
HETATM    1  C   UNL     1       4.590  26.624  49.620  1.00  0.00     0.035 A 
HETATM    2  C   UNL     1       3.812  27.787  49.694  1.00  0.00     0.046 A 
HETATM    3  C   UNL     1       2.649  27.904  48.900  1.00  0.00     0.030 A 
HETATM    4  C   UNL     1       2.308  26.856  48.054  1.00  0.00     0.063 A 
HETATM    5  N   UNL     1       1.157  27.252  47.431  1.00  0.00    -0.277 N 
HETATM    6  H   UNL     1       0.620  26.734  46.745  1.00  0.00     0.189 HD
HETATM    7  N   UNL     1       0.716  28.467  47.797  1.00  0.00    -0.168 NA
HETATM    8  C   UNL     1       1.628  28.883  48.706  1.00  0.00     0.156 A 
HETATM    9  C   UNL     1       3.059  25.684  47.951  1.00  0.00     0.034 A 
HETATM   10  C   UNL     1       4.205  25.591  48.753  1.00  0.00     0.032 A 
ENDROOT
BRANCH   1  11
HETATM   11  N   UNL     1       5.745  26.402  50.402  1.00  0.00    -0.327 N 
HETATM   12  C   UNL     1       5.856  25.605  51.531  1.00  0.00     0.226 C 
HETATM   13  O   UNL     1       4.935  25.055  52.126  1.00  0.00    -0.273 OA
HETATM   14  H   UNL     1       6.578  26.903  50.119  1.00  0.00     0.169 HD
BRANCH  12  15
HETATM   15  C   UNL     1       7.291  25.454  52.015  1.00  0.00     0.141 C 
BRANCH  15  16
HETATM   16  C   UNL     1       7.497  24.486  53.158  1.00  0.00    -0.049 A 
HETATM   17  C   UNL     1       7.724  23.130  52.867  1.00  0.00     0.023 A 
HETATM   18  C   UNL     1       7.845  22.172  53.889  1.00  0.00     0.048 A 
HETATM   19  C   UNL     1       7.744  22.589  55.223  1.00  0.00     0.016 A 
HETATM   20  C   UNL     1       7.506  23.929  55.525  1.00  0.00     0.001 A 
HETATM   21  C   UNL     1       7.371  24.869  54.500  1.00  0.00     0.007 A 
BRANCH  18  22
HETATM   22  C   UNL     1       8.085  20.724  53.543  1.00  0.00     0.417 C 
HETATM   23  F   UNL     1       9.277  20.498  52.923  1.00  0.00    -0.166 F 
HETATM   24  F   UNL     1       8.077  19.913  54.638  1.00  0.00    -0.166 F 
HETATM   25  F   UNL     1       7.130  20.228  52.707  1.00  0.00    -0.166 F 
ENDBRANCH  18  22
ENDBRANCH  15  16
ENDBRANCH  12  15
ENDBRANCH   1  11
BRANCH   8  26
HETATM   26  C   UNL     1       1.502  30.190  49.366  1.00  0.00     0.270 C 
HETATM   27  N   UNL     1       1.166  30.117  50.691  1.00  0.00    -0.365 N 
HETATM   28  H   UNL     1       1.038  29.205  51.110  1.00  0.00     0.159 HD
HETATM   29  H   UNL     1       1.062  30.965  51.226  1.00  0.00     0.159 HD
HETATM   30  O   UNL     1       1.676  31.272  48.815  1.00  0.00    -0.266 OA
ENDBRANCH   8  26
TORSDOF 5
ENDMDL
MODEL 6
REMARK VINA RESULT:      -9.5      6.083      9.411
REMARK  5 active torsions:
REMARK  status: ('A' for Active; 'I' for Inactive)
REMARK    1  A    between atoms: C_3  and  C_4 
REMARK    2  A    between atoms: C_9  and  C_10 
REMARK    3  A    between atoms: C_10  and  C_11 
REMARK       I    between atoms: C_11  and  N_12 
REMARK    4  A    between atoms: N_12  and  C_13 
REMARK    5  A    between atoms: C_20  and  C_21 
REMARK       I    between atoms: C_21  and  N_22 
ROOT
HETATM    1  C   UNL     1       8.697  30.010  58.535  1.00  0.00     0.035 A 
HETATM    2  C   UNL     1       7.424  29.634  58.084  1.00  0.00     0.046 A 
HETATM    3  C   UNL     1       7.254  29.199  56.750  1.00  0.00     0.030 A 
HETATM    4  C   UNL     1       8.361  29.160  55.912  1.00  0.00     0.063 A 
HETATM    5  N   UNL     1       7.891  28.705  54.712  1.00  0.00    -0.277 N 
HETATM    6  H   UNL     1       8.423  28.548  53.863  1.00  0.00     0.189 HD
HETATM    7  N   UNL     1       6.574  28.440  54.693  1.00  0.00    -0.168 NA
HETATM    8  C   UNL     1       6.165  28.740  55.948  1.00  0.00     0.156 A 
HETATM    9  C   UNL     1       9.642  29.531  56.324  1.00  0.00     0.034 A 
HETATM   10  C   UNL     1       9.785  29.953  57.653  1.00  0.00     0.032 A 
ENDROOT
BRANCH   1  11
HETATM   11  N   UNL     1       8.970  30.421  59.859  1.00  0.00    -0.327 N 
HETATM   12  C   UNL     1       9.047  31.719  60.337  1.00  0.00     0.226 C 
HETATM   13  O   UNL     1       9.022  32.745  59.663  1.00  0.00    -0.273 OA
HETATM   14  H   UNL     1       9.155  29.682  60.525  1.00  0.00     0.169 HD
BRANCH  12  15
HETATM   15  C   UNL     1       9.181  31.790  61.851  1.00  0.00     0.141 C 
BRANCH  15  16
HETATM   16  C   UNL     1       7.934  32.205  62.599  1.00  0.00    -0.049 A 
HETATM   17  C   UNL     1       6.683  32.034  61.981  1.00  0.00     0.023 A 
HETATM   18  C   UNL     1       5.497  32.472  62.596  1.00  0.00     0.048 A 
HETATM   19  C   UNL     1       5.572  33.083  63.854  1.00  0.00     0.016 A 
HETATM   20  C   UNL     1       6.808  33.271  64.471  1.00  0.00     0.001 A 
HETATM   21  C   UNL     1       7.981  32.846  63.843  1.00  0.00     0.007 A 
BRANCH  18  22
HETATM   22  C   UNL     1       4.171  32.276  61.904  1.00  0.00     0.417 C 
HETATM   23  F   UNL     1       4.244  32.349  60.545  1.00  0.00    -0.166 F 
HETATM   24  F   UNL     1       3.607  31.066  62.180  1.00  0.00    -0.166 F 
HETATM   25  F   UNL     1       3.250  33.207  62.279  1.00  0.00    -0.166 F 
ENDBRANCH  18  22
ENDBRANCH  15  16
ENDBRANCH  12  15
ENDBRANCH   1  11
BRANCH   8  26
HETATM   26  C   UNL     1       4.761  28.579  56.349  1.00  0.00     0.270 C 
HETATM   27  N   UNL     1       4.404  27.287  56.628  1.00  0.00    -0.365 N 
HETATM   28  H   UNL     1       5.105  26.561  56.547  1.00  0.00     0.159 HD
HETATM   29  H   UNL     1       3.460  27.082  56.915  1.00  0.00     0.159 HD
HETATM   30  O   UNL     1       3.949  29.494  56.440  1.00  0.00    -0.266 OA
ENDBRANCH   8  26
TORSDOF 5
ENDMDL
MODEL 7
REMARK VINA RESULT:      -9.2      2.224      2.896
REMARK  5 active torsions:
REMARK  status: ('A' for Active; 'I' for Inactive)
REMARK    1  A    between atoms: C_3  and  C_4 
REMARK    2  A    between atoms: C_9  and  C_10 
REMARK    3  A    between atoms: C_10  and  C_11 
REMARK       I    between atoms: C_11  and  N_12 
REMARK    4  A    between atoms: N_12  and  C_13 
REMARK    5  A    between atoms: C_20  and  C_21 
REMARK       I    between atoms: C_21  and  N_22 
ROOT
HETATM    1  C   UNL     1       6.262  28.685  55.960  1.00  0.00     0.035 A 
HETATM    2  C   UNL     1       6.992  29.115  57.076  1.00  0.00     0.046 A 
HETATM    3  C   UNL     1       6.720  30.378  57.648  1.00  0.00     0.030 A 
HETATM    4  C   UNL     1       5.730  31.170  57.080  1.00  0.00     0.063 A 
HETATM    5  N   UNL     1       5.696  32.307  57.839  1.00  0.00    -0.277 N 
HETATM    6  H   UNL     1       5.089  33.110  57.716  1.00  0.00     0.189 HD
HETATM    7  N   UNL     1       6.576  32.326  58.854  1.00  0.00    -0.168 NA
HETATM    8  C   UNL     1       7.216  31.138  58.750  1.00  0.00     0.156 A 
HETATM    9  C   UNL     1       4.985  30.779  55.966  1.00  0.00     0.034 A 
HETATM   10  C   UNL     1       5.271  29.519  55.421  1.00  0.00     0.032 A 
ENDROOT
BRANCH   1  11
HETATM   11  N   UNL     1       6.437  27.425  55.345  1.00  0.00    -0.327 N 
HETATM   12  C   UNL     1       5.774  26.245  55.642  1.00  0.00     0.226 C 
HETATM   13  O   UNL     1       5.010  26.057  56.584  1.00  0.00    -0.273 OA
HETATM   14  H   UNL     1       7.145  27.376  54.623  1.00  0.00     0.169 HD
BRANCH  12  15
HETATM   15  C   UNL     1       6.083  25.124  54.660  1.00  0.00     0.141 C 
BRANCH  15  16
HETATM   16  C   UNL     1       7.028  24.056  55.163  1.00  0.00    -0.049 A 
HETATM   17  C   UNL     1       7.279  22.935  54.353  1.00  0.00     0.023 A 
HETATM   18  C   UNL     1       8.087  21.875  54.800  1.00  0.00     0.048 A 
HETATM   19  C   UNL     1       8.656  21.950  56.078  1.00  0.00     0.016 A 
HETATM   20  C   UNL     1       8.403  23.050  56.897  1.00  0.00     0.001 A 
HETATM   21  C   UNL     1       7.586  24.090  56.447  1.00  0.00     0.007 A 
BRANCH  18  22
HETATM   22  C   UNL     1       8.333  20.685  53.907  1.00  0.00     0.417 C 
HETATM   23  F   UNL     1       7.252  20.327  53.159  1.00  0.00    -0.166 F 
HETATM   24  F   UNL     1       9.346  20.894  53.019  1.00  0.00    -0.166 F 
HETATM   25  F   UNL     1       8.684  19.573  54.613  1.00  0.00    -0.166 F 
ENDBRANCH  18  22
ENDBRANCH  15  16
ENDBRANCH  12  15
ENDBRANCH   1  11
BRANCH   8  26
HETATM   26  C   UNL     1       8.272  30.758  59.698  1.00  0.00     0.270 C 
HETATM   27  N   UNL     1       7.867  30.734  61.006  1.00  0.00    -0.365 N 
HETATM   28  H   UNL     1       6.905  30.965  61.221  1.00  0.00     0.159 HD
HETATM   29  H   UNL     1       8.525  30.480  61.726  1.00  0.00     0.159 HD
HETATM   30  O   UNL     1       9.425  30.478  59.387  1.00  0.00    -0.266 OA
ENDBRANCH   8  26
TORSDOF 5
ENDMDL
MODEL 8
REMARK VINA RESULT:      -9.1      2.476      3.353
REMARK  5 active torsions:
REMARK  status: ('A' for Active; 'I' for Inactive)
REMARK    1  A    between atoms: C_3  and  C_4 
REMARK    2  A    between atoms: C_9  and  C_10 
REMARK    3  A    between atoms: C_10  and  C_11 
REMARK       I    between atoms: C_11  and  N_12 
REMARK    4  A    between atoms: N_12  and  C_13 
REMARK    5  A    between atoms: C_20  and  C_21 
REMARK       I    between atoms: C_21  and  N_22 
ROOT
HETATM    1  C   UNL     1       6.440  28.081  55.645  1.00  0.00     0.035 A 
HETATM    2  C   UNL     1       6.957  28.939  56.625  1.00  0.00     0.046 A 
HETATM    3  C   UNL     1       6.098  29.850  57.282  1.00  0.00     0.030 A 
HETATM    4  C   UNL     1       4.754  29.874  56.932  1.00  0.00     0.063 A 
HETATM    5  N   UNL     1       4.191  30.835  57.725  1.00  0.00    -0.277 N 
HETATM    6  H   UNL     1       3.219  31.124  57.743  1.00  0.00     0.189 HD
HETATM    7  N   UNL     1       5.049  31.439  58.563  1.00  0.00    -0.168 NA
HETATM    8  C   UNL     1       6.234  30.839  58.302  1.00  0.00     0.156 A 
HETATM    9  C   UNL     1       4.204  29.038  55.958  1.00  0.00     0.034 A 
HETATM   10  C   UNL     1       5.076  28.141  55.326  1.00  0.00     0.032 A 
ENDROOT
BRANCH   1  11
HETATM   11  N   UNL     1       7.212  27.113  54.963  1.00  0.00    -0.327 N 
HETATM   12  C   UNL     1       6.854  25.807  54.668  1.00  0.00     0.226 C 
HETATM   13  O   UNL     1       5.852  25.221  55.065  1.00  0.00    -0.273 OA
HETATM   14  H   UNL     1       8.140  27.402  54.682  1.00  0.00     0.169 HD
BRANCH  12  15
HETATM   15  C   UNL     1       7.856  25.104  53.765  1.00  0.00     0.141 C 
BRANCH  15  16
HETATM   16  C   UNL     1       7.861  23.594  53.844  1.00  0.00    -0.049 A 
HETATM   17  C   UNL     1       8.053  22.979  55.093  1.00  0.00     0.023 A 
HETATM   18  C   UNL     1       8.144  21.582  55.215  1.00  0.00     0.048 A 
HETATM   19  C   UNL     1       8.030  20.793  54.063  1.00  0.00     0.016 A 
HETATM   20  C   UNL     1       7.853  21.391  52.816  1.00  0.00     0.001 A 
HETATM   21  C   UNL     1       7.780  22.782  52.705  1.00  0.00     0.007 A 
BRANCH  18  22
HETATM   22  C   UNL     1       8.354  20.954  56.571  1.00  0.00     0.417 C 
HETATM   23  F   UNL     1       9.528  20.273  56.684  1.00  0.00    -0.166 F 
HETATM   24  F   UNL     1       8.358  21.871  57.580  1.00  0.00    -0.166 F 
HETATM   25  F   UNL     1       7.373  20.062  56.885  1.00  0.00    -0.166 F 
ENDBRANCH  18  22
ENDBRANCH  15  16
ENDBRANCH  12  15
ENDBRANCH   1  11
BRANCH   8  26
HETATM   26  C   UNL     1       7.454  31.218  59.029  1.00  0.00     0.270 C 
HETATM   27  N   UNL     1       7.947  30.234  59.842  1.00  0.00    -0.365 N 
HETATM   28  H   UNL     1       7.460  29.347  59.883  1.00  0.00     0.159 HD
HETATM   29  H   UNL     1       8.785  30.404  60.377  1.00  0.00     0.159 HD
HETATM   30  O   UNL     1       8.012  32.306  58.940  1.00  0.00    -0.266 OA
ENDBRANCH   8  26
TORSDOF 5
ENDMDL
MODEL 9
REMARK VINA RESULT:      -9.1      3.264      4.071
REMARK  5 active torsions:
REMARK  status: ('A' for Active; 'I' for Inactive)
REMARK    1  A    between atoms: C_3  and  C_4 
REMARK    2  A    between atoms: C_9  and  C_10 
REMARK    3  A    between atoms: C_10  and  C_11 
REMARK       I    between atoms: C_11  and  N_12 
REMARK    4  A    between atoms: N_12  and  C_13 
REMARK    5  A    between atoms: C_20  and  C_21 
REMARK       I    between atoms: C_21  and  N_22 
ROOT
HETATM    1  C   UNL     1       5.097  27.974  55.251  1.00  0.00     0.035 A 
HETATM    2  C   UNL     1       6.030  28.330  56.235  1.00  0.00     0.046 A 
HETATM    3  C   UNL     1       5.977  29.615  56.818  1.00  0.00     0.030 A 
HETATM    4  C   UNL     1       4.995  30.503  56.395  1.00  0.00     0.063 A 
HETATM    5  N   UNL     1       5.193  31.639  57.129  1.00  0.00    -0.277 N 
HETATM    6  H   UNL     1       4.657  32.499  57.086  1.00  0.00     0.189 HD
HETATM    7  N   UNL     1       6.216  31.571  57.997  1.00  0.00    -0.168 NA
HETATM    8  C   UNL     1       6.711  30.324  57.818  1.00  0.00     0.156 A 
HETATM    9  C   UNL     1       4.052  30.186  55.415  1.00  0.00     0.034 A 
HETATM   10  C   UNL     1       4.124  28.903  54.856  1.00  0.00     0.032 A 
ENDROOT
BRANCH   1  11
HETATM   11  N   UNL     1       5.049  26.701  54.639  1.00  0.00    -0.327 N 
HETATM   12  C   UNL     1       5.502  26.359  53.375  1.00  0.00     0.226 C 
HETATM   13  O   UNL     1       5.907  27.132  52.514  1.00  0.00    -0.273 OA
HETATM   14  H   UNL     1       4.610  25.964  55.177  1.00  0.00     0.169 HD
BRANCH  12  15
HETATM   15  C   UNL     1       5.455  24.861  53.111  1.00  0.00     0.141 C 
BRANCH  15  16
HETATM   16  C   UNL     1       6.602  24.059  53.684  1.00  0.00    -0.049 A 
HETATM   17  C   UNL     1       6.979  24.273  55.022  1.00  0.00     0.023 A 
HETATM   18  C   UNL     1       8.085  23.614  55.585  1.00  0.00     0.048 A 
HETATM   19  C   UNL     1       8.818  22.721  54.791  1.00  0.00     0.016 A 
HETATM   20  C   UNL     1       8.463  22.511  53.459  1.00  0.00     0.001 A 
HETATM   21  C   UNL     1       7.371  23.184  52.906  1.00  0.00     0.007 A 
BRANCH  18  22
HETATM   22  C   UNL     1       8.464  23.868  57.022  1.00  0.00     0.417 C 
HETATM   23  F   UNL     1       8.455  22.748  57.799  1.00  0.00    -0.166 F 
HETATM   24  F   UNL     1       9.714  24.398  57.151  1.00  0.00    -0.166 F 
HETATM   25  F   UNL     1       7.623  24.751  57.630  1.00  0.00    -0.166 F 
ENDBRANCH  18  22
ENDBRANCH  15  16
ENDBRANCH  12  15
ENDBRANCH   1  11
BRANCH   8  26
HETATM   26  C   UNL     1       7.857  29.841  58.600  1.00  0.00     0.270 C 
HETATM   27  N   UNL     1       7.924  30.353  59.868  1.00  0.00    -0.365 N 
HETATM   28  H   UNL     1       7.205  30.998  60.170  1.00  0.00     0.159 HD
HETATM   29  H   UNL     1       8.676  30.074  60.479  1.00  0.00     0.159 HD
HETATM   30  O   UNL     1       8.700  29.049  58.191  1.00  0.00    -0.266 OA
ENDBRANCH   8  26
TORSDOF 5
ENDMDL
MODEL 10
REMARK VINA RESULT:      -9.1      6.134      8.921
REMARK  5 active torsions:
REMARK  status: ('A' for Active; 'I' for Inactive)
REMARK    1  A    between atoms: C_3  and  C_4 
REMARK    2  A    between atoms: C_9  and  C_10 
REMARK    3  A    between atoms: C_10  and  C_11 
REMARK       I    between atoms: C_11  and  N_12 
REMARK    4  A    between atoms: N_12  and  C_13 
REMARK    5  A    between atoms: C_20  and  C_21 
REMARK       I    between atoms: C_21  and  N_22 
ROOT
HETATM    1  C   UNL     1       5.381  26.867  50.849  1.00  0.00     0.035 A 
HETATM    2  C   UNL     1       4.631  26.567  49.703  1.00  0.00     0.046 A 
HETATM    3  C   UNL     1       3.612  27.450  49.283  1.00  0.00     0.030 A 
HETATM    4  C   UNL     1       3.374  28.600  50.025  1.00  0.00     0.063 A 
HETATM    5  N   UNL     1       2.352  29.242  49.381  1.00  0.00    -0.277 N 
HETATM    6  H   UNL     1       1.917  30.120  49.643  1.00  0.00     0.189 HD
HETATM    7  N   UNL     1       1.904  28.613  48.282  1.00  0.00    -0.168 NA
HETATM    8  C   UNL     1       2.674  27.503  48.207  1.00  0.00     0.156 A 
HETATM    9  C   UNL     1       4.096  28.930  51.173  1.00  0.00     0.034 A 
HETATM   10  C   UNL     1       5.105  28.040  51.566  1.00  0.00     0.032 A 
ENDROOT
BRANCH   1  11
HETATM   11  N   UNL     1       6.443  26.065  51.324  1.00  0.00    -0.327 N 
HETATM   12  C   UNL     1       6.351  24.933  52.119  1.00  0.00     0.226 C 
HETATM   13  O   UNL     1       5.337  24.505  52.660  1.00  0.00    -0.273 OA
HETATM   14  H   UNL     1       7.376  26.367  51.074  1.00  0.00     0.169 HD
BRANCH  12  15
HETATM   15  C   UNL     1       7.682  24.216  52.290  1.00  0.00     0.141 C 
BRANCH  15  16
HETATM   16  C   UNL     1       7.935  23.623  53.658  1.00  0.00    -0.049 A 
HETATM   17  C   UNL     1       7.938  24.474  54.776  1.00  0.00     0.023 A 
HETATM   18  C   UNL     1       8.243  23.992  56.061  1.00  0.00     0.048 A 
HETATM   19  C   UNL     1       8.541  22.632  56.222  1.00  0.00     0.016 A 
HETATM   20  C   UNL     1       8.555  21.781  55.118  1.00  0.00     0.001 A 
HETATM   21  C   UNL     1       8.266  22.274  53.844  1.00  0.00     0.007 A 
BRANCH  18  22
HETATM   22  C   UNL     1       8.240  24.933  57.241  1.00  0.00     0.417 C 
HETATM   23  F   UNL     1       7.005  25.138  57.777  1.00  0.00    -0.166 F 
HETATM   24  F   UNL     1       9.021  24.491  58.267  1.00  0.00    -0.166 F 
HETATM   25  F   UNL     1       8.717  26.167  56.918  1.00  0.00    -0.166 F 
ENDBRANCH  18  22
ENDBRANCH  15  16
ENDBRANCH  12  15
ENDBRANCH   1  11
BRANCH   8  26
HETATM   26  C   UNL     1       2.502  26.531  47.118  1.00  0.00     0.270 C 
HETATM   27  N   UNL     1       1.365  26.715  46.379  1.00  0.00    -0.365 N 
HETATM   28  H   UNL     1       0.747  27.480  46.620  1.00  0.00     0.159 HD
HETATM   29  H   UNL     1       1.166  26.097  45.608  1.00  0.00     0.159 HD
HETATM   30  O   UNL     1       3.286  25.623  46.860  1.00  0.00    -0.266 OA
ENDBRANCH   8  26
TORSDOF 5
ENDMDL
