MODEL 1
REMARK VINA RESULT:      -8.9      0.000      0.000
REMARK  4 active torsions:
REMARK  status: ('A' for Active; 'I' for Inactive)
REMARK    1  A    between atoms: C_5  and  N_6 
REMARK    2  A    between atoms: N_9  and  C_11 
REMARK    3  A    between atoms: C_11  and  C_12 
REMARK    4  A    between atoms: C_13  and  O_14 
ROOT
HETATM    1  N   UNL     1       6.301  24.678  55.663  1.00  0.00    -0.363 N 
HETATM    2  C   UNL     1       6.007  25.848  54.825  1.00  0.00     0.152 C 
HETATM    3  C   UNL     1       7.141  26.891  54.761  1.00  0.00     0.255 C 
HETATM    4  N   UNL     1       7.280  27.570  56.119  1.00  0.00    -0.066 N 
HETATM    5  H   UNL     1       6.372  27.459  56.582  1.00  0.00     0.280 HD
HETATM    6  C   UNL     1       8.281  26.921  57.038  1.00  0.00     0.237 C 
HETATM    7  C   UNL     1       8.147  25.405  57.151  1.00  0.00     0.047 C 
HETATM    8  C   UNL     1       6.726  24.854  57.055  1.00  0.00     0.126 C 
ENDROOT
BRANCH   4   9
HETATM    9  C   UNL     1       7.426  29.080  56.049  1.00  0.00     0.276 C 
BRANCH   9  10
HETATM   10  C   UNL     1       8.525  29.707  56.862  1.00  0.00     0.002 A 
HETATM   11  C   UNL     1       8.255  30.295  58.107  1.00  0.00     0.091 A 
HETATM   12  C   UNL     1       9.266  30.921  58.844  1.00  0.00     0.044 A 
HETATM   13 BR   UNL     1       8.889  31.717  60.521  1.00  0.00    -0.048 Br
HETATM   14  C   UNL     1      10.565  30.965  58.347  1.00  0.00     0.022 A 
HETATM   15  C   UNL     1      10.851  30.382  57.114  1.00  0.00     0.002 A 
HETATM   16  C   UNL     1       9.840  29.758  56.376  1.00  0.00     0.012 A 
BRANCH  11  17
HETATM   17  O   UNL     1       6.969  30.239  58.579  1.00  0.00    -0.359 OA
HETATM   18  H   UNL     1       6.509  31.043  58.259  1.00  0.00     0.218 HD
ENDBRANCH  11  17
ENDBRANCH   9  10
ENDBRANCH   4   9
BRANCH   1  19
HETATM   19  C   UNL     1       6.896  23.614  54.962  1.00  0.00     0.147 A 
HETATM   20  N   UNL     1       7.278  22.501  55.623  1.00  0.00    -0.132 NA
HETATM   21  N   UNL     1       7.893  21.457  54.971  1.00  0.00    -0.153 NA
HETATM   22  C   UNL     1       8.136  21.538  53.648  1.00  0.00     0.053 A 
HETATM   23  C   UNL     1       8.852  20.401  52.990  1.00  0.00     0.072 C 
HETATM   24  C   UNL     1       7.758  22.656  52.927  1.00  0.00     0.032 A 
HETATM   25  C   UNL     1       7.128  23.703  53.595  1.00  0.00     0.054 A 
ENDBRANCH   1  19
TORSDOF 4
ENDMDL
MODEL 2
REMARK VINA RESULT:      -8.5      1.180      1.780
REMARK  4 active torsions:
REMARK  status: ('A' for Active; 'I' for Inactive)
REMARK    1  A    between atoms: C_5  and  N_6 
REMARK    2  A    between atoms: N_9  and  C_11 
REMARK    3  A    between atoms: C_11  and  C_12 
REMARK    4  A    between atoms: C_13  and  O_14 
ROOT
HETATM    1  N   UNL     1       6.347  25.133  55.482  1.00  0.00    -0.363 N 
HETATM    2  C   UNL     1       6.353  26.328  54.627  1.00  0.00     0.152 C 
HETATM    3  C   UNL     1       7.632  27.184  54.733  1.00  0.00     0.255 C 
HETATM    4  N   UNL     1       7.685  27.844  56.107  1.00  0.00    -0.066 N 
HETATM    5  H   UNL     1       6.716  27.877  56.439  1.00  0.00     0.280 HD
HETATM    6  C   UNL     1       8.439  27.057  57.145  1.00  0.00     0.237 C 
HETATM    7  C   UNL     1       8.061  25.580  57.218  1.00  0.00     0.047 C 
HETATM    8  C   UNL     1       6.599  25.253  56.921  1.00  0.00     0.126 C 
ENDROOT
BRANCH   4   9
HETATM    9  C   UNL     1       8.068  29.314  56.078  1.00  0.00     0.276 C 
BRANCH   9  10
HETATM   10  C   UNL     1       7.617  30.169  57.230  1.00  0.00     0.002 A 
HETATM   11  C   UNL     1       8.527  30.597  58.208  1.00  0.00     0.091 A 
HETATM   12  C   UNL     1       8.104  31.352  59.307  1.00  0.00     0.044 A 
HETATM   13 BR   UNL     1       9.340  31.919  60.625  1.00  0.00    -0.048 Br
HETATM   14  C   UNL     1       6.761  31.694  59.442  1.00  0.00     0.022 A 
HETATM   15  C   UNL     1       5.845  31.280  58.477  1.00  0.00     0.002 A 
HETATM   16  C   UNL     1       6.268  30.524  57.379  1.00  0.00     0.012 A 
BRANCH  11  17
HETATM   17  O   UNL     1       9.845  30.251  58.056  1.00  0.00    -0.359 OA
HETATM   18  H   UNL     1      10.165  29.943  58.929  1.00  0.00     0.218 HD
ENDBRANCH  11  17
ENDBRANCH   9  10
ENDBRANCH   4   9
BRANCH   1  19
HETATM   19  C   UNL     1       6.864  23.986  54.854  1.00  0.00     0.147 A 
HETATM   20  N   UNL     1       7.173  22.897  55.590  1.00  0.00    -0.132 NA
HETATM   21  N   UNL     1       7.709  21.770  55.010  1.00  0.00    -0.153 NA
HETATM   22  C   UNL     1       7.949  21.743  53.684  1.00  0.00     0.053 A 
HETATM   23  C   UNL     1       8.582  20.517  53.106  1.00  0.00     0.072 C 
HETATM   24  C   UNL     1       7.644  22.833  52.889  1.00  0.00     0.032 A 
HETATM   25  C   UNL     1       7.092  23.964  53.484  1.00  0.00     0.054 A 
ENDBRANCH   1  19
TORSDOF 4
ENDMDL
MODEL 3
REMARK VINA RESULT:      -8.4      3.744      8.133
REMARK  4 active torsions:
REMARK  status: ('A' for Active; 'I' for Inactive)
REMARK    1  A    between atoms: C_5  and  N_6 
REMARK    2  A    between atoms: N_9  and  C_11 
REMARK    3  A    between atoms: C_11  and  C_12 
REMARK    4  A    between atoms: C_13  and  O_14 
ROOT
HETATM    1  N   UNL     1       7.351  30.017  57.218  1.00  0.00    -0.363 N 
HETATM    2  C   UNL     1       6.016  29.430  57.034  1.00  0.00     0.152 C 
HETATM    3  C   UNL     1       5.939  27.915  57.309  1.00  0.00     0.255 C 
HETATM    4  N   UNL     1       6.706  27.165  56.224  1.00  0.00    -0.066 N 
HETATM    5  H   UNL     1       6.730  27.793  55.414  1.00  0.00     0.280 HD
HETATM    6  C   UNL     1       8.147  26.890  56.560  1.00  0.00     0.237 C 
HETATM    7  C   UNL     1       8.915  28.096  57.096  1.00  0.00     0.047 C 
HETATM    8  C   UNL     1       8.509  29.451  56.520  1.00  0.00     0.126 C 
ENDROOT
BRANCH   4   9
HETATM    9  C   UNL     1       5.979  25.951  55.672  1.00  0.00     0.276 C 
BRANCH   9  10
HETATM   10  C   UNL     1       6.569  25.284  54.460  1.00  0.00     0.002 A 
HETATM   11  C   UNL     1       7.059  23.972  54.527  1.00  0.00     0.091 A 
HETATM   12  C   UNL     1       7.651  23.364  53.414  1.00  0.00     0.044 A 
HETATM   13 BR   UNL     1       8.315  21.594  53.518  1.00  0.00    -0.048 Br
HETATM   14  C   UNL     1       7.760  24.062  52.215  1.00  0.00     0.022 A 
HETATM   15  C   UNL     1       7.275  25.366  52.130  1.00  0.00     0.002 A 
HETATM   16  C   UNL     1       6.684  25.974  53.243  1.00  0.00     0.012 A 
BRANCH  11  17
HETATM   17  O   UNL     1       6.940  23.301  55.717  1.00  0.00    -0.359 OA
HETATM   18  H   UNL     1       7.505  22.503  55.655  1.00  0.00     0.218 HD
ENDBRANCH  11  17
ENDBRANCH   9  10
ENDBRANCH   4   9
BRANCH   1  19
HETATM   19  C   UNL     1       7.583  30.497  58.519  1.00  0.00     0.147 A 
HETATM   20  N   UNL     1       8.478  29.876  59.316  1.00  0.00    -0.132 NA
HETATM   21  N   UNL     1       8.705  30.301  60.605  1.00  0.00    -0.153 NA
HETATM   22  C   UNL     1       8.019  31.350  61.100  1.00  0.00     0.053 A 
HETATM   23  C   UNL     1       8.260  31.745  62.522  1.00  0.00     0.072 C 
HETATM   24  C   UNL     1       7.095  32.021  60.319  1.00  0.00     0.032 A 
HETATM   25  C   UNL     1       6.880  31.588  59.013  1.00  0.00     0.054 A 
ENDBRANCH   1  19
TORSDOF 4
ENDMDL
MODEL 4
REMARK VINA RESULT:      -8.3      2.873      3.925
REMARK  4 active torsions:
REMARK  status: ('A' for Active; 'I' for Inactive)
REMARK    1  A    between atoms: C_5  and  N_6 
REMARK    2  A    between atoms: N_9  and  C_11 
REMARK    3  A    between atoms: C_11  and  C_12 
REMARK    4  A    between atoms: C_13  and  O_14 
ROOT
HETATM    1  N   UNL     1       6.142  27.229  57.166  1.00  0.00    -0.363 N 
HETATM    2  C   UNL     1       5.569  28.574  57.312  1.00  0.00     0.152 C 
HETATM    3  C   UNL     1       6.509  29.721  56.889  1.00  0.00     0.255 C 
HETATM    4  N   UNL     1       7.664  29.818  57.880  1.00  0.00    -0.066 N 
HETATM    5  H   UNL     1       7.324  29.392  58.749  1.00  0.00     0.280 HD
HETATM    6  C   UNL     1       8.883  29.024  57.494  1.00  0.00     0.237 C 
HETATM    7  C   UNL     1       8.594  27.587  57.069  1.00  0.00     0.047 C 
HETATM    8  C   UNL     1       7.430  26.904  57.784  1.00  0.00     0.126 C 
ENDROOT
BRANCH   4   9
HETATM    9  C   UNL     1       7.990  31.235  58.320  1.00  0.00     0.276 C 
BRANCH   9  10
HETATM   10  C   UNL     1       8.113  31.489  59.798  1.00  0.00     0.002 A 
HETATM   11  C   UNL     1       6.973  31.663  60.596  1.00  0.00     0.091 A 
HETATM   12  C   UNL     1       7.085  31.946  61.962  1.00  0.00     0.044 A 
HETATM   13 BR   UNL     1       5.539  32.186  63.029  1.00  0.00    -0.048 Br
HETATM   14  C   UNL     1       8.341  32.056  62.550  1.00  0.00     0.022 A 
HETATM   15  C   UNL     1       9.484  31.882  61.772  1.00  0.00     0.002 A 
HETATM   16  C   UNL     1       9.373  31.600  60.406  1.00  0.00     0.012 A 
BRANCH  11  17
HETATM   17  O   UNL     1       5.745  31.549  59.997  1.00  0.00    -0.359 OA
HETATM   18  H   UNL     1       5.075  31.543  60.713  1.00  0.00     0.218 HD
ENDBRANCH  11  17
ENDBRANCH   9  10
ENDBRANCH   4   9
BRANCH   1  19
HETATM   19  C   UNL     1       5.886  26.639  55.915  1.00  0.00     0.147 A 
HETATM   20  N   UNL     1       5.242  27.339  54.958  1.00  0.00    -0.132 NA
HETATM   21  N   UNL     1       4.949  26.780  53.735  1.00  0.00    -0.153 NA
HETATM   22  C   UNL     1       5.294  25.502  53.479  1.00  0.00     0.053 A 
HETATM   23  C   UNL     1       4.909  24.919  52.156  1.00  0.00     0.072 C 
HETATM   24  C   UNL     1       5.959  24.746  54.427  1.00  0.00     0.032 A 
HETATM   25  C   UNL     1       6.260  25.326  55.657  1.00  0.00     0.054 A 
ENDBRANCH   1  19
TORSDOF 4
ENDMDL
MODEL 5
REMARK VINA RESULT:      -8.3      2.327      2.944
REMARK  4 active torsions:
REMARK  status: ('A' for Active; 'I' for Inactive)
REMARK    1  A    between atoms: C_5  and  N_6 
REMARK    2  A    between atoms: N_9  and  C_11 
REMARK    3  A    between atoms: C_11  and  C_12 
REMARK    4  A    between atoms: C_13  and  O_14 
ROOT
HETATM    1  N   UNL     1       6.321  24.852  55.588  1.00  0.00    -0.363 N 
HETATM    2  C   UNL     1       6.144  26.040  54.742  1.00  0.00     0.152 C 
HETATM    3  C   UNL     1       7.344  27.009  54.740  1.00  0.00     0.255 C 
HETATM    4  N   UNL     1       7.457  27.675  56.107  1.00  0.00    -0.066 N 
HETATM    5  H   UNL     1       6.522  27.621  56.523  1.00  0.00     0.280 HD
HETATM    6  C   UNL     1       8.367  26.963  57.072  1.00  0.00     0.237 C 
HETATM    7  C   UNL     1       8.132  25.458  57.169  1.00  0.00     0.047 C 
HETATM    8  C   UNL     1       6.686  24.998  57.000  1.00  0.00     0.126 C 
ENDROOT
BRANCH   4   9
HETATM    9  C   UNL     1       7.702  29.174  56.052  1.00  0.00     0.276 C 
BRANCH   9  10
HETATM   10  C   UNL     1       6.647  30.068  56.643  1.00  0.00     0.002 A 
HETATM   11  C   UNL     1       5.469  30.357  55.937  1.00  0.00     0.091 A 
HETATM   12  C   UNL     1       4.507  31.226  56.463  1.00  0.00     0.044 A 
HETATM   13 BR   UNL     1       2.925  31.614  55.499  1.00  0.00    -0.048 Br
HETATM   14  C   UNL     1       4.708  31.817  57.707  1.00  0.00     0.022 A 
HETATM   15  C   UNL     1       5.870  31.537  58.423  1.00  0.00     0.002 A 
HETATM   16  C   UNL     1       6.833  30.670  57.897  1.00  0.00     0.012 A 
BRANCH  11  17
HETATM   17  O   UNL     1       5.290  29.763  54.714  1.00  0.00    -0.359 OA
HETATM   18  H   UNL     1       4.773  30.387  54.164  1.00  0.00     0.218 HD
ENDBRANCH  11  17
ENDBRANCH   9  10
ENDBRANCH   4   9
BRANCH   1  19
HETATM   19  C   UNL     1       6.882  23.754  54.912  1.00  0.00     0.147 A 
HETATM   20  N   UNL     1       7.236  22.648  55.600  1.00  0.00    -0.132 NA
HETATM   21  N   UNL     1       7.817  21.570  54.973  1.00  0.00    -0.153 NA
HETATM   22  C   UNL     1       8.055  21.609  53.647  1.00  0.00     0.053 A 
HETATM   23  C   UNL     1       8.736  20.436  53.017  1.00  0.00     0.072 C 
HETATM   24  C   UNL     1       7.705  22.719  52.899  1.00  0.00     0.032 A 
HETATM   25  C   UNL     1       7.109  23.800  53.542  1.00  0.00     0.054 A 
ENDBRANCH   1  19
TORSDOF 4
ENDMDL
MODEL 6
REMARK VINA RESULT:      -8.2      4.226      8.262
REMARK  4 active torsions:
REMARK  status: ('A' for Active; 'I' for Inactive)
REMARK    1  A    between atoms: C_5  and  N_6 
REMARK    2  A    between atoms: N_9  and  C_11 
REMARK    3  A    between atoms: C_11  and  C_12 
REMARK    4  A    between atoms: C_13  and  O_14 
ROOT
HETATM    1  N   UNL     1       5.934  29.499  56.425  1.00  0.00    -0.363 N 
HETATM    2  C   UNL     1       5.111  28.355  56.009  1.00  0.00     0.152 C 
HETATM    3  C   UNL     1       5.325  27.075  56.842  1.00  0.00     0.255 C 
HETATM    4  N   UNL     1       6.715  26.515  56.559  1.00  0.00    -0.066 N 
HETATM    5  H   UNL     1       6.981  26.879  55.638  1.00  0.00     0.280 HD
HETATM    6  C   UNL     1       7.783  26.996  57.504  1.00  0.00     0.237 C 
HETATM    7  C   UNL     1       7.793  28.506  57.732  1.00  0.00     0.047 C 
HETATM    8  C   UNL     1       7.389  29.362  56.534  1.00  0.00     0.126 C 
ENDROOT
BRANCH   4   9
HETATM    9  C   UNL     1       6.749  25.013  56.336  1.00  0.00     0.276 C 
BRANCH   9  10
HETATM   10  C   UNL     1       7.120  24.526  54.962  1.00  0.00     0.002 A 
HETATM   11  C   UNL     1       7.383  23.168  54.726  1.00  0.00     0.091 A 
HETATM   12  C   UNL     1       7.774  22.719  53.460  1.00  0.00     0.044 A 
HETATM   13 BR   UNL     1       8.135  20.885  53.154  1.00  0.00    -0.048 Br
HETATM   14  C   UNL     1       7.904  23.622  52.409  1.00  0.00     0.022 A 
HETATM   15  C   UNL     1       7.642  24.973  52.626  1.00  0.00     0.002 A 
HETATM   16  C   UNL     1       7.252  25.424  53.892  1.00  0.00     0.012 A 
BRANCH  11  17
HETATM   17  O   UNL     1       7.248  22.295  55.774  1.00  0.00    -0.359 OA
HETATM   18  H   UNL     1       7.047  21.416  55.392  1.00  0.00     0.218 HD
ENDBRANCH  11  17
ENDBRANCH   9  10
ENDBRANCH   4   9
BRANCH   1  19
HETATM   19  C   UNL     1       5.315  30.322  57.383  1.00  0.00     0.147 A 
HETATM   20  N   UNL     1       4.002  30.167  57.657  1.00  0.00    -0.132 NA
HETATM   21  N   UNL     1       3.359  30.977  58.565  1.00  0.00    -0.153 NA
HETATM   22  C   UNL     1       4.039  31.957  59.192  1.00  0.00     0.053 A 
HETATM   23  C   UNL     1       3.288  32.847  60.132  1.00  0.00     0.072 C 
HETATM   24  C   UNL     1       5.386  32.151  58.948  1.00  0.00     0.032 A 
HETATM   25  C   UNL     1       6.029  31.319  58.035  1.00  0.00     0.054 A 
ENDBRANCH   1  19
TORSDOF 4
ENDMDL
MODEL 7
REMARK VINA RESULT:      -8.0      5.449      7.141
REMARK  4 active torsions:
REMARK  status: ('A' for Active; 'I' for Inactive)
REMARK    1  A    between atoms: C_5  and  N_6 
REMARK    2  A    between atoms: N_9  and  C_11 
REMARK    3  A    between atoms: C_11  and  C_12 
REMARK    4  A    between atoms: C_13  and  O_14 
ROOT
HETATM    1  N   UNL     1       5.602  25.092  54.224  1.00  0.00    -0.363 N 
HETATM    2  C   UNL     1       5.101  25.145  52.844  1.00  0.00     0.152 C 
HETATM    3  C   UNL     1       5.917  26.051  51.901  1.00  0.00     0.255 C 
HETATM    4  N   UNL     1       5.721  27.508  52.307  1.00  0.00    -0.066 N 
HETATM    5  H   UNL     1       4.830  27.541  52.813  1.00  0.00     0.280 HD
HETATM    6  C   UNL     1       6.752  28.028  53.274  1.00  0.00     0.237 C 
HETATM    7  C   UNL     1       7.015  27.115  54.469  1.00  0.00     0.047 C 
HETATM    8  C   UNL     1       5.811  26.329  54.982  1.00  0.00     0.126 C 
ENDROOT
BRANCH   4   9
HETATM    9  C   UNL     1       5.466  28.451  51.143  1.00  0.00     0.276 C 
BRANCH   9  10
HETATM   10  C   UNL     1       4.121  28.377  50.475  1.00  0.00     0.002 A 
HETATM   11  C   UNL     1       3.939  27.629  49.303  1.00  0.00     0.091 A 
HETATM   12  C   UNL     1       2.701  27.596  48.652  1.00  0.00     0.044 A 
HETATM   13 BR   UNL     1       2.469  26.588  47.066  1.00  0.00    -0.048 Br
HETATM   14  C   UNL     1       1.623  28.309  49.169  1.00  0.00     0.022 A 
HETATM   15  C   UNL     1       1.786  29.054  50.335  1.00  0.00     0.002 A 
HETATM   16  C   UNL     1       3.024  29.089  50.985  1.00  0.00     0.012 A 
BRANCH  11  17
HETATM   17  O   UNL     1       5.013  26.932  48.812  1.00  0.00    -0.359 OA
HETATM   18  H   UNL     1       5.710  27.588  48.602  1.00  0.00     0.218 HD
ENDBRANCH  11  17
ENDBRANCH   9  10
ENDBRANCH   4   9
BRANCH   1  19
HETATM   19  C   UNL     1       6.532  24.061  54.449  1.00  0.00     0.147 A 
HETATM   20  N   UNL     1       6.860  23.713  55.711  1.00  0.00    -0.132 NA
HETATM   21  N   UNL     1       7.789  22.731  55.965  1.00  0.00    -0.153 NA
HETATM   22  C   UNL     1       8.402  22.103  54.942  1.00  0.00     0.053 A 
HETATM   23  C   UNL     1       9.444  21.078  55.265  1.00  0.00     0.072 C 
HETATM   24  C   UNL     1       8.096  22.421  53.632  1.00  0.00     0.032 A 
HETATM   25  C   UNL     1       7.146  23.410  53.387  1.00  0.00     0.054 A 
ENDBRANCH   1  19
TORSDOF 4
ENDMDL
MODEL 8
REMARK VINA RESULT:      -7.9      1.616      2.277
REMARK  4 active torsions:
REMARK  status: ('A' for Active; 'I' for Inactive)
REMARK    1  A    between atoms: C_5  and  N_6 
REMARK    2  A    between atoms: N_9  and  C_11 
REMARK    3  A    between atoms: C_11  and  C_12 
REMARK    4  A    between atoms: C_13  and  O_14 
ROOT
HETATM    1  N   UNL     1       6.121  26.158  55.237  1.00  0.00    -0.363 N 
HETATM    2  C   UNL     1       6.597  27.384  54.582  1.00  0.00     0.152 C 
HETATM    3  C   UNL     1       7.865  27.996  55.211  1.00  0.00     0.255 C 
HETATM    4  N   UNL     1       7.527  28.550  56.591  1.00  0.00    -0.066 N 
HETATM    5  H   UNL     1       6.518  28.732  56.580  1.00  0.00     0.280 HD
HETATM    6  C   UNL     1       7.749  27.581  57.721  1.00  0.00     0.237 C 
HETATM    7  C   UNL     1       7.163  26.191  57.487  1.00  0.00     0.047 C 
HETATM    8  C   UNL     1       5.868  26.142  56.681  1.00  0.00     0.126 C 
ENDROOT
BRANCH   4   9
HETATM    9  C   UNL     1       8.101  29.930  56.866  1.00  0.00     0.276 C 
BRANCH   9  10
HETATM   10  C   UNL     1       7.506  30.711  58.005  1.00  0.00     0.002 A 
HETATM   11  C   UNL     1       8.226  30.917  59.191  1.00  0.00     0.091 A 
HETATM   12  C   UNL     1       7.659  31.603  60.271  1.00  0.00     0.044 A 
HETATM   13 BR   UNL     1       8.638  31.869  61.870  1.00  0.00    -0.048 Br
HETATM   14  C   UNL     1       6.361  32.096  60.178  1.00  0.00     0.022 A 
HETATM   15  C   UNL     1       5.633  31.904  59.005  1.00  0.00     0.002 A 
HETATM   16  C   UNL     1       6.199  31.217  57.926  1.00  0.00     0.012 A 
BRANCH  11  17
HETATM   17  O   UNL     1       9.504  30.424  59.261  1.00  0.00    -0.359 OA
HETATM   18  H   UNL     1       9.513  29.748  59.971  1.00  0.00     0.218 HD
ENDBRANCH  11  17
ENDBRANCH   9  10
ENDBRANCH   4   9
BRANCH   1  19
HETATM   19  C   UNL     1       6.656  24.979  54.688  1.00  0.00     0.147 A 
HETATM   20  N   UNL     1       6.763  23.870  55.449  1.00  0.00    -0.132 NA
HETATM   21  N   UNL     1       7.311  22.710  54.952  1.00  0.00    -0.153 NA
HETATM   22  C   UNL     1       7.767  22.669  53.684  1.00  0.00     0.053 A 
HETATM   23  C   UNL     1       8.402  21.404  53.202  1.00  0.00     0.072 C 
HETATM   24  C   UNL     1       7.674  23.780  52.864  1.00  0.00     0.032 A 
HETATM   25  C   UNL     1       7.109  24.945  53.375  1.00  0.00     0.054 A 
ENDBRANCH   1  19
TORSDOF 4
ENDMDL
MODEL 9
REMARK VINA RESULT:      -7.9      4.416      6.048
REMARK  4 active torsions:
REMARK  status: ('A' for Active; 'I' for Inactive)
REMARK    1  A    between atoms: C_5  and  N_6 
REMARK    2  A    between atoms: N_9  and  C_11 
REMARK    3  A    between atoms: C_11  and  C_12 
REMARK    4  A    between atoms: C_13  and  O_14 
ROOT
HETATM    1  N   UNL     1       7.819  25.323  53.616  1.00  0.00    -0.363 N 
HETATM    2  C   UNL     1       7.287  26.346  54.526  1.00  0.00     0.152 C 
HETATM    3  C   UNL     1       5.748  26.411  54.588  1.00  0.00     0.255 C 
HETATM    4  N   UNL     1       5.210  26.936  53.261  1.00  0.00    -0.066 N 
HETATM    5  H   UNL     1       5.979  27.466  52.838  1.00  0.00     0.280 HD
HETATM    6  C   UNL     1       4.866  25.863  52.263  1.00  0.00     0.237 C 
HETATM    7  C   UNL     1       5.944  24.798  52.080  1.00  0.00     0.047 C 
HETATM    8  C   UNL     1       7.386  25.282  52.216  1.00  0.00     0.126 C 
ENDROOT
BRANCH   4   9
HETATM    9  C   UNL     1       4.127  27.992  53.401  1.00  0.00     0.276 C 
BRANCH   9  10
HETATM   10  C   UNL     1       3.830  28.840  52.195  1.00  0.00     0.002 A 
HETATM   11  C   UNL     1       4.846  29.565  51.556  1.00  0.00     0.091 A 
HETATM   12  C   UNL     1       4.566  30.392  50.463  1.00  0.00     0.044 A 
HETATM   13 BR   UNL     1       5.945  31.371  49.611  1.00  0.00    -0.048 Br
HETATM   14  C   UNL     1       3.261  30.505  49.991  1.00  0.00     0.022 A 
HETATM   15  C   UNL     1       2.240  29.789  50.613  1.00  0.00     0.002 A 
HETATM   16  C   UNL     1       2.520  28.962  51.706  1.00  0.00     0.012 A 
BRANCH  11  17
HETATM   17  O   UNL     1       6.125  29.438  52.035  1.00  0.00    -0.359 OA
HETATM   18  H   UNL     1       6.348  30.279  52.486  1.00  0.00     0.218 HD
ENDBRANCH  11  17
ENDBRANCH   9  10
ENDBRANCH   4   9
BRANCH   1  19
HETATM   19  C   UNL     1       8.044  24.079  54.233  1.00  0.00     0.147 A 
HETATM   20  N   UNL     1       8.086  23.993  55.579  1.00  0.00    -0.132 NA
HETATM   21  N   UNL     1       8.335  22.797  56.213  1.00  0.00    -0.153 NA
HETATM   22  C   UNL     1       8.557  21.683  55.487  1.00  0.00     0.053 A 
HETATM   23  C   UNL     1       8.876  20.417  56.216  1.00  0.00     0.072 C 
HETATM   24  C   UNL     1       8.519  21.721  54.105  1.00  0.00     0.032 A 
HETATM   25  C   UNL     1       8.256  22.935  53.474  1.00  0.00     0.054 A 
ENDBRANCH   1  19
TORSDOF 4
ENDMDL
MODEL 10
REMARK VINA RESULT:      -7.8      2.074      3.335
REMARK  4 active torsions:
REMARK  status: ('A' for Active; 'I' for Inactive)
REMARK    1  A    between atoms: C_5  and  N_6 
REMARK    2  A    between atoms: N_9  and  C_11 
REMARK    3  A    between atoms: C_11  and  C_12 
REMARK    4  A    between atoms: C_13  and  O_14 
ROOT
HETATM    1  N   UNL     1       7.159  28.058  55.001  1.00  0.00    -0.363 N 
HETATM    2  C   UNL     1       8.361  28.903  55.009  1.00  0.00     0.152 C 
HETATM    3  C   UNL     1       9.160  28.866  56.328  1.00  0.00     0.255 C 
HETATM    4  N   UNL     1       8.352  29.549  57.427  1.00  0.00    -0.066 N 
HETATM    5  H   UNL     1       7.703  30.180  56.946  1.00  0.00     0.280 HD
HETATM    6  C   UNL     1       7.484  28.617  58.230  1.00  0.00     0.237 C 
HETATM    7  C   UNL     1       6.643  27.657  57.393  1.00  0.00     0.047 C 
HETATM    8  C   UNL     1       6.149  28.199  56.054  1.00  0.00     0.126 C 
ENDROOT
BRANCH   4   9
HETATM    9  C   UNL     1       9.157  30.506  58.289  1.00  0.00     0.276 C 
BRANCH   9  10
HETATM   10  C   UNL     1       8.557  30.924  59.603  1.00  0.00     0.002 A 
HETATM   11  C   UNL     1       7.414  31.736  59.647  1.00  0.00     0.091 A 
HETATM   12  C   UNL     1       6.880  32.166  60.867  1.00  0.00     0.044 A 
HETATM   13 BR   UNL     1       5.340  33.267  60.914  1.00  0.00    -0.048 Br
HETATM   14  C   UNL     1       7.482  31.786  62.063  1.00  0.00     0.022 A 
HETATM   15  C   UNL     1       8.616  30.977  62.037  1.00  0.00     0.002 A 
HETATM   16  C   UNL     1       9.151  30.548  60.818  1.00  0.00     0.012 A 
BRANCH  11  17
HETATM   17  O   UNL     1       6.835  32.097  58.457  1.00  0.00    -0.359 OA
HETATM   18  H   UNL     1       7.543  32.478  57.897  1.00  0.00     0.218 HD
ENDBRANCH  11  17
ENDBRANCH   9  10
ENDBRANCH   4   9
BRANCH   1  19
HETATM   19  C   UNL     1       7.388  26.753  54.531  1.00  0.00     0.147 A 
HETATM   20  N   UNL     1       7.529  25.736  55.408  1.00  0.00    -0.132 NA
HETATM   21  N   UNL     1       7.785  24.453  54.982  1.00  0.00    -0.153 NA
HETATM   22  C   UNL     1       7.914  24.193  53.666  1.00  0.00     0.053 A 
HETATM   23  C   UNL     1       8.244  22.794  53.252  1.00  0.00     0.072 C 
HETATM   24  C   UNL     1       7.773  25.201  52.730  1.00  0.00     0.032 A 
HETATM   25  C   UNL     1       7.503  26.494  53.171  1.00  0.00     0.054 A 
ENDBRANCH   1  19
TORSDOF 4
ENDMDL
