MODEL 1
REMARK VINA RESULT:      -8.8      0.000      0.000
REMARK  5 active torsions:
REMARK  status: ('A' for Active; 'I' for Inactive)
REMARK    1  A    between atoms: C_2  and  O_3 
REMARK    2  A    between atoms: O_3  and  C_4 
REMARK    3  A    between atoms: C_5  and  C_6 
REMARK       I    between atoms: C_6  and  N_7 
REMARK    4  A    between atoms: N_7  and  N_8 
REMARK    5  A    between atoms: C_9  and  C_10 
ROOT
HETATM    1  C   UNL     1       5.301  27.252  51.269  1.00  0.00     0.274 C 
HETATM    2  N   UNL     1       6.182  26.185  51.212  1.00  0.00    -0.243 N 
HETATM    3  O   UNL     1       4.620  27.542  52.250  1.00  0.00    -0.266 OA
HETATM    4  H   UNL     1       6.723  26.022  50.367  1.00  0.00     0.192 HD
ENDROOT
BRANCH   2   5
HETATM    5  N   UNL     1       6.219  25.291  52.242  1.00  0.00    -0.183 NA
HETATM    6  C   UNL     1       7.269  25.328  52.996  1.00  0.00     0.152 C 
BRANCH   6   7
HETATM    7  C   UNL     1       7.397  24.363  54.068  1.00  0.00     0.011 A 
HETATM    8  C   UNL     1       7.689  22.964  53.965  1.00  0.00     0.004 A 
HETATM    9  C   UNL     1       7.675  22.438  55.259  1.00  0.00     0.043 A 
HETATM   10  C   UNL     1       7.955  22.087  52.892  1.00  0.00     0.014 A 
HETATM   11  C   UNL     1       7.908  21.085  55.534  1.00  0.00     0.030 A 
HETATM   12  N   UNL     1       7.397  23.476  56.118  1.00  0.00    -0.364 N 
HETATM   13  C   UNL     1       8.167  20.240  54.452  1.00  0.00     0.002 A 
HETATM   14  C   UNL     1       8.193  20.731  53.149  1.00  0.00     0.001 A 
HETATM   15  H   UNL     1       7.320  23.390  57.121  1.00  0.00     0.165 HD
HETATM   16  C   UNL     1       7.229  24.635  55.414  1.00  0.00     0.102 A 
ENDBRANCH   6   7
ENDBRANCH   2   5
BRANCH   1  17
HETATM   17  C   UNL     1       5.140  28.054  50.016  1.00  0.00     0.068 A 
HETATM   18  C   UNL     1       4.645  27.543  48.801  1.00  0.00     0.084 A 
HETATM   19  C   UNL     1       4.478  28.410  47.710  1.00  0.00     0.039 A 
HETATM   20  C   UNL     1       4.834  29.758  47.808  1.00  0.00     0.022 A 
HETATM   21  C   UNL     1       5.357  30.249  48.999  1.00  0.00     0.012 A 
HETATM   22  C   UNL     1       5.509  29.409  50.097  1.00  0.00     0.039 A 
HETATM   23 BR   UNL     1       5.838  32.072  49.131  1.00  0.00    -0.051 Br
BRANCH  18  24
HETATM   24  O   UNL     1       4.308  26.213  48.738  1.00  0.00    -0.350 OA
BRANCH  24  25
HETATM   25  C   UNL     1       3.107  25.911  48.016  1.00  0.00     0.171 C 
HETATM   26  C   UNL     1       2.936  24.403  47.994  1.00  0.00     0.034 C 
ENDBRANCH  24  25
ENDBRANCH  18  24
ENDBRANCH   1  17
TORSDOF 5
ENDMDL
MODEL 2
REMARK VINA RESULT:      -8.7      5.743      7.565
REMARK  5 active torsions:
REMARK  status: ('A' for Active; 'I' for Inactive)
REMARK    1  A    between atoms: C_2  and  O_3 
REMARK    2  A    between atoms: O_3  and  C_4 
REMARK    3  A    between atoms: C_5  and  C_6 
REMARK       I    between atoms: C_6  and  N_7 
REMARK    4  A    between atoms: N_7  and  N_8 
REMARK    5  A    between atoms: C_9  and  C_10 
ROOT
HETATM    1  C   UNL     1       8.404  28.568  57.719  1.00  0.00     0.274 C 
HETATM    2  N   UNL     1       7.636  27.424  57.860  1.00  0.00    -0.243 N 
HETATM    3  O   UNL     1       9.484  28.616  57.134  1.00  0.00    -0.266 OA
HETATM    4  H   UNL     1       6.744  27.472  58.344  1.00  0.00     0.192 HD
ENDROOT
BRANCH   2   5
HETATM    5  N   UNL     1       8.144  26.224  57.459  1.00  0.00    -0.183 NA
HETATM    6  C   UNL     1       7.319  25.419  56.870  1.00  0.00     0.152 C 
BRANCH   6   7
HETATM    7  C   UNL     1       7.783  24.104  56.478  1.00  0.00     0.011 A 
HETATM    8  C   UNL     1       7.790  23.527  55.166  1.00  0.00     0.004 A 
HETATM    9  C   UNL     1       8.295  22.229  55.285  1.00  0.00     0.043 A 
HETATM   10  C   UNL     1       7.406  23.979  53.886  1.00  0.00     0.014 A 
HETATM   11  C   UNL     1       8.430  21.363  54.194  1.00  0.00     0.030 A 
HETATM   12  N   UNL     1       8.593  22.027  56.612  1.00  0.00    -0.364 N 
HETATM   13  C   UNL     1       8.040  21.836  52.938  1.00  0.00     0.002 A 
HETATM   14  C   UNL     1       7.537  23.125  52.783  1.00  0.00     0.001 A 
HETATM   15  H   UNL     1       8.973  21.173  56.994  1.00  0.00     0.165 HD
HETATM   16  C   UNL     1       8.291  23.146  57.336  1.00  0.00     0.102 A 
ENDBRANCH   6   7
ENDBRANCH   2   5
BRANCH   1  17
HETATM   17  C   UNL     1       7.891  29.804  58.389  1.00  0.00     0.068 A 
HETATM   18  C   UNL     1       6.752  30.522  57.975  1.00  0.00     0.084 A 
HETATM   19  C   UNL     1       6.329  31.630  58.724  1.00  0.00     0.039 A 
HETATM   20  C   UNL     1       7.048  32.048  59.847  1.00  0.00     0.022 A 
HETATM   21  C   UNL     1       8.192  31.358  60.232  1.00  0.00     0.012 A 
HETATM   22  C   UNL     1       8.614  30.244  59.513  1.00  0.00     0.039 A 
HETATM   23 BR   UNL     1       9.164  31.924  61.751  1.00  0.00    -0.051 Br
BRANCH  18  24
HETATM   24  O   UNL     1       6.071  30.085  56.865  1.00  0.00    -0.350 OA
BRANCH  24  25
HETATM   25  C   UNL     1       4.751  29.581  57.105  1.00  0.00     0.171 C 
HETATM   26  C   UNL     1       4.406  28.611  55.990  1.00  0.00     0.034 C 
ENDBRANCH  24  25
ENDBRANCH  18  24
ENDBRANCH   1  17
TORSDOF 5
ENDMDL
MODEL 3
REMARK VINA RESULT:      -8.6      5.413      7.131
REMARK  5 active torsions:
REMARK  status: ('A' for Active; 'I' for Inactive)
REMARK    1  A    between atoms: C_2  and  O_3 
REMARK    2  A    between atoms: O_3  and  C_4 
REMARK    3  A    between atoms: C_5  and  C_6 
REMARK       I    between atoms: C_6  and  N_7 
REMARK    4  A    between atoms: N_7  and  N_8 
REMARK    5  A    between atoms: C_9  and  C_10 
ROOT
HETATM    1  C   UNL     1       7.336  27.279  57.272  1.00  0.00     0.274 C 
HETATM    2  N   UNL     1       7.059  26.851  55.985  1.00  0.00    -0.243 N 
HETATM    3  O   UNL     1       7.808  26.568  58.157  1.00  0.00    -0.266 OA
HETATM    4  H   UNL     1       6.684  27.507  55.304  1.00  0.00     0.192 HD
ENDROOT
BRANCH   2   5
HETATM    5  N   UNL     1       7.174  25.526  55.680  1.00  0.00    -0.183 NA
HETATM    6  C   UNL     1       7.694  25.244  54.530  1.00  0.00     0.152 C 
BRANCH   6   7
HETATM    7  C   UNL     1       7.785  23.857  54.122  1.00  0.00     0.011 A 
HETATM    8  C   UNL     1       8.015  22.709  54.948  1.00  0.00     0.004 A 
HETATM    9  C   UNL     1       8.057  21.593  54.107  1.00  0.00     0.043 A 
HETATM   10  C   UNL     1       8.204  22.508  56.332  1.00  0.00     0.014 A 
HETATM   11  C   UNL     1       8.280  20.294  54.578  1.00  0.00     0.030 A 
HETATM   12  N   UNL     1       7.849  22.041  52.824  1.00  0.00    -0.364 N 
HETATM   13  C   UNL     1       8.466  20.126  55.953  1.00  0.00     0.002 A 
HETATM   14  C   UNL     1       8.426  21.214  56.819  1.00  0.00     0.001 A 
HETATM   15  H   UNL     1       7.830  21.453  52.003  1.00  0.00     0.165 HD
HETATM   16  C   UNL     1       7.684  23.398  52.822  1.00  0.00     0.102 A 
ENDBRANCH   6   7
ENDBRANCH   2   5
BRANCH   1  17
HETATM   17  C   UNL     1       6.965  28.691  57.601  1.00  0.00     0.068 A 
HETATM   18  C   UNL     1       7.864  29.657  58.093  1.00  0.00     0.084 A 
HETATM   19  C   UNL     1       7.413  30.969  58.302  1.00  0.00     0.039 A 
HETATM   20  C   UNL     1       6.079  31.312  58.065  1.00  0.00     0.022 A 
HETATM   21  C   UNL     1       5.187  30.346  57.614  1.00  0.00     0.012 A 
HETATM   22  C   UNL     1       5.622  29.045  57.381  1.00  0.00     0.039 A 
HETATM   23 BR   UNL     1       3.384  30.810  57.294  1.00  0.00    -0.051 Br
BRANCH  18  24
HETATM   24  O   UNL     1       9.167  29.286  58.317  1.00  0.00    -0.350 OA
BRANCH  24  25
HETATM   25  C   UNL     1      10.163  30.136  57.736  1.00  0.00     0.171 C 
HETATM   26  C   UNL     1      10.358  29.715  56.290  1.00  0.00     0.034 C 
ENDBRANCH  24  25
ENDBRANCH  18  24
ENDBRANCH   1  17
TORSDOF 5
ENDMDL
MODEL 4
REMARK VINA RESULT:      -8.6      5.734      8.448
REMARK  5 active torsions:
REMARK  status: ('A' for Active; 'I' for Inactive)
REMARK    1  A    between atoms: C_2  and  O_3 
REMARK    2  A    between atoms: O_3  and  C_4 
REMARK    3  A    between atoms: C_5  and  C_6 
REMARK       I    between atoms: C_6  and  N_7 
REMARK    4  A    between atoms: N_7  and  N_8 
REMARK    5  A    between atoms: C_9  and  C_10 
ROOT
HETATM    1  C   UNL     1       6.600  25.418  55.777  1.00  0.00     0.274 C 
HETATM    2  N   UNL     1       7.420  26.518  55.967  1.00  0.00    -0.243 N 
HETATM    3  O   UNL     1       5.490  25.279  56.288  1.00  0.00    -0.266 OA
HETATM    4  H   UNL     1       8.318  26.565  55.494  1.00  0.00     0.192 HD
ENDROOT
BRANCH   2   5
HETATM    5  N   UNL     1       7.069  27.464  56.885  1.00  0.00    -0.183 NA
HETATM    6  C   UNL     1       7.035  28.687  56.464  1.00  0.00     0.152 C 
BRANCH   6   7
HETATM    7  C   UNL     1       6.731  29.744  57.407  1.00  0.00     0.011 A 
HETATM    8  C   UNL     1       7.646  30.499  58.211  1.00  0.00     0.004 A 
HETATM    9  C   UNL     1       6.889  31.380  58.988  1.00  0.00     0.043 A 
HETATM   10  C   UNL     1       9.049  30.512  58.363  1.00  0.00     0.014 A 
HETATM   11  C   UNL     1       7.462  32.267  59.907  1.00  0.00     0.030 A 
HETATM   12  N   UNL     1       5.569  31.179  58.663  1.00  0.00    -0.364 N 
HETATM   13  C   UNL     1       8.853  32.256  60.038  1.00  0.00     0.002 A 
HETATM   14  C   UNL     1       9.638  31.394  59.277  1.00  0.00     0.001 A 
HETATM   15  H   UNL     1       4.791  31.678  59.072  1.00  0.00     0.165 HD
HETATM   16  C   UNL     1       5.462  30.201  57.715  1.00  0.00     0.102 A 
ENDBRANCH   6   7
ENDBRANCH   2   5
BRANCH   1  17
HETATM   17  C   UNL     1       7.152  24.310  54.938  1.00  0.00     0.068 A 
HETATM   18  C   UNL     1       7.477  24.428  53.573  1.00  0.00     0.084 A 
HETATM   19  C   UNL     1       8.051  23.335  52.907  1.00  0.00     0.039 A 
HETATM   20  C   UNL     1       8.265  22.125  53.574  1.00  0.00     0.022 A 
HETATM   21  C   UNL     1       7.910  22.002  54.912  1.00  0.00     0.012 A 
HETATM   22  C   UNL     1       7.360  23.082  55.594  1.00  0.00     0.039 A 
HETATM   23 BR   UNL     1       8.201  20.366  55.813  1.00  0.00    -0.051 Br
BRANCH  18  24
HETATM   24  O   UNL     1       7.250  25.630  52.948  1.00  0.00    -0.350 OA
BRANCH  24  25
HETATM   25  C   UNL     1       6.473  25.567  51.745  1.00  0.00     0.171 C 
HETATM   26  C   UNL     1       5.042  25.231  52.125  1.00  0.00     0.034 C 
ENDBRANCH  24  25
ENDBRANCH  18  24
ENDBRANCH   1  17
TORSDOF 5
ENDMDL
MODEL 5
REMARK VINA RESULT:      -8.4      1.964      2.929
REMARK  5 active torsions:
REMARK  status: ('A' for Active; 'I' for Inactive)
REMARK    1  A    between atoms: C_2  and  O_3 
REMARK    2  A    between atoms: O_3  and  C_4 
REMARK    3  A    between atoms: C_5  and  C_6 
REMARK       I    between atoms: C_6  and  N_7 
REMARK    4  A    between atoms: N_7  and  N_8 
REMARK    5  A    between atoms: C_9  and  C_10 
ROOT
HETATM    1  C   UNL     1       5.618  26.970  51.411  1.00  0.00     0.274 C 
HETATM    2  N   UNL     1       6.731  26.148  51.350  1.00  0.00    -0.243 N 
HETATM    3  O   UNL     1       5.044  27.290  52.450  1.00  0.00    -0.266 OA
HETATM    4  H   UNL     1       7.159  25.945  50.450  1.00  0.00     0.192 HD
ENDROOT
BRANCH   2   5
HETATM    5  N   UNL     1       7.163  25.521  52.481  1.00  0.00    -0.183 NA
HETATM    6  C   UNL     1       6.650  24.359  52.726  1.00  0.00     0.152 C 
BRANCH   6   7
HETATM    7  C   UNL     1       7.022  23.671  53.945  1.00  0.00     0.011 A 
HETATM    8  C   UNL     1       7.631  22.381  54.078  1.00  0.00     0.004 A 
HETATM    9  C   UNL     1       7.767  22.124  55.445  1.00  0.00     0.043 A 
HETATM   10  C   UNL     1       8.071  21.397  53.168  1.00  0.00     0.014 A 
HETATM   11  C   UNL     1       8.316  20.937  55.945  1.00  0.00     0.030 A 
HETATM   12  N   UNL     1       7.273  23.217  56.117  1.00  0.00    -0.364 N 
HETATM   13  C   UNL     1       8.742  19.980  55.020  1.00  0.00     0.002 A 
HETATM   14  C   UNL     1       8.624  20.205  53.651  1.00  0.00     0.001 A 
HETATM   15  H   UNL     1       7.240  23.310  57.122  1.00  0.00     0.165 HD
HETATM   16  C   UNL     1       6.824  24.151  55.227  1.00  0.00     0.102 A 
ENDBRANCH   6   7
ENDBRANCH   2   5
BRANCH   1  17
HETATM   17  C   UNL     1       5.059  27.436  50.104  1.00  0.00     0.068 A 
HETATM   18  C   UNL     1       5.232  28.731  49.578  1.00  0.00     0.084 A 
HETATM   19  C   UNL     1       4.714  29.031  48.309  1.00  0.00     0.039 A 
HETATM   20  C   UNL     1       3.998  28.073  47.585  1.00  0.00     0.022 A 
HETATM   21  C   UNL     1       3.799  26.807  48.125  1.00  0.00     0.012 A 
HETATM   22  C   UNL     1       4.323  26.486  49.372  1.00  0.00     0.039 A 
HETATM   23 BR   UNL     1       2.830  25.512  47.146  1.00  0.00    -0.051 Br
BRANCH  18  24
HETATM   24  O   UNL     1       5.938  29.649  50.316  1.00  0.00    -0.350 OA
BRANCH  24  25
HETATM   25  C   UNL     1       5.328  30.939  50.450  1.00  0.00     0.171 C 
HETATM   26  C   UNL     1       4.342  30.877  51.602  1.00  0.00     0.034 C 
ENDBRANCH  24  25
ENDBRANCH  18  24
ENDBRANCH   1  17
TORSDOF 5
ENDMDL
MODEL 6
REMARK VINA RESULT:      -8.2      6.267      8.704
REMARK  5 active torsions:
REMARK  status: ('A' for Active; 'I' for Inactive)
REMARK    1  A    between atoms: C_2  and  O_3 
REMARK    2  A    between atoms: O_3  and  C_4 
REMARK    3  A    between atoms: C_5  and  C_6 
REMARK       I    between atoms: C_6  and  N_7 
REMARK    4  A    between atoms: N_7  and  N_8 
REMARK    5  A    between atoms: C_9  and  C_10 
ROOT
HETATM    1  C   UNL     1       6.828  30.228  57.928  1.00  0.00     0.274 C 
HETATM    2  N   UNL     1       7.025  28.857  57.945  1.00  0.00    -0.243 N 
HETATM    3  O   UNL     1       6.238  30.837  57.038  1.00  0.00    -0.266 OA
HETATM    4  H   UNL     1       7.509  28.427  58.727  1.00  0.00     0.192 HD
ENDROOT
BRANCH   2   5
HETATM    5  N   UNL     1       6.677  28.117  56.853  1.00  0.00    -0.183 NA
HETATM    6  C   UNL     1       7.644  27.742  56.081  1.00  0.00     0.152 C 
BRANCH   6   7
HETATM    7  C   UNL     1       7.333  27.007  54.872  1.00  0.00     0.011 A 
HETATM    8  C   UNL     1       7.465  25.600  54.636  1.00  0.00     0.004 A 
HETATM    9  C   UNL     1       7.077  25.361  53.315  1.00  0.00     0.043 A 
HETATM   10  C   UNL     1       7.889  24.503  55.416  1.00  0.00     0.014 A 
HETATM   11  C   UNL     1       7.096  24.087  52.736  1.00  0.00     0.030 A 
HETATM   12  N   UNL     1       6.712  26.570  52.772  1.00  0.00    -0.364 N 
HETATM   13  C   UNL     1       7.522  23.019  53.531  1.00  0.00     0.002 A 
HETATM   14  C   UNL     1       7.911  23.222  54.852  1.00  0.00     0.001 A 
HETATM   15  H   UNL     1       6.389  26.703  51.824  1.00  0.00     0.165 HD
HETATM   16  C   UNL     1       6.861  27.565  53.697  1.00  0.00     0.102 A 
ENDBRANCH   6   7
ENDBRANCH   2   5
BRANCH   1  17
HETATM   17  C   UNL     1       7.442  31.004  59.049  1.00  0.00     0.068 A 
HETATM   18  C   UNL     1       8.808  30.966  59.393  1.00  0.00     0.084 A 
HETATM   19  C   UNL     1       9.279  31.791  60.425  1.00  0.00     0.039 A 
HETATM   20  C   UNL     1       8.403  32.614  61.137  1.00  0.00     0.022 A 
HETATM   21  C   UNL     1       7.050  32.622  60.819  1.00  0.00     0.012 A 
HETATM   22  C   UNL     1       6.568  31.827  59.784  1.00  0.00     0.039 A 
HETATM   23 BR   UNL     1       5.865  33.736  61.782  1.00  0.00    -0.051 Br
BRANCH  18  24
HETATM   24  O   UNL     1       9.641  30.143  58.674  1.00  0.00    -0.350 OA
BRANCH  24  25
HETATM   25  C   UNL     1      10.459  30.793  57.693  1.00  0.00     0.171 C 
HETATM   26  C   UNL     1      10.658  29.833  56.534  1.00  0.00     0.034 C 
ENDBRANCH  24  25
ENDBRANCH  18  24
ENDBRANCH   1  17
TORSDOF 5
ENDMDL
MODEL 7
REMARK VINA RESULT:      -8.0      1.967      3.224
REMARK  5 active torsions:
REMARK  status: ('A' for Active; 'I' for Inactive)
REMARK    1  A    between atoms: C_2  and  O_3 
REMARK    2  A    between atoms: O_3  and  C_4 
REMARK    3  A    between atoms: C_5  and  C_6 
REMARK       I    between atoms: C_6  and  N_7 
REMARK    4  A    between atoms: N_7  and  N_8 
REMARK    5  A    between atoms: C_9  and  C_10 
ROOT
HETATM    1  C   UNL     1       5.435  26.180  51.894  1.00  0.00     0.274 C 
HETATM    2  N   UNL     1       4.904  25.754  53.100  1.00  0.00    -0.243 N 
HETATM    3  O   UNL     1       6.332  25.602  51.284  1.00  0.00    -0.266 OA
HETATM    4  H   UNL     1       4.150  26.280  53.533  1.00  0.00     0.192 HD
ENDROOT
BRANCH   2   5
HETATM    5  N   UNL     1       5.483  24.706  53.754  1.00  0.00    -0.183 NA
HETATM    6  C   UNL     1       6.552  24.971  54.431  1.00  0.00     0.152 C 
BRANCH   6   7
HETATM    7  C   UNL     1       7.248  23.888  55.095  1.00  0.00     0.011 A 
HETATM    8  C   UNL     1       7.702  22.653  54.529  1.00  0.00     0.004 A 
HETATM    9  C   UNL     1       8.285  21.911  55.560  1.00  0.00     0.043 A 
HETATM   10  C   UNL     1       7.665  22.085  53.237  1.00  0.00     0.014 A 
HETATM   11  C   UNL     1       8.826  20.634  55.366  1.00  0.00     0.030 A 
HETATM   12  N   UNL     1       8.200  22.667  56.705  1.00  0.00    -0.364 N 
HETATM   13  C   UNL     1       8.774  20.097  54.077  1.00  0.00     0.002 A 
HETATM   14  C   UNL     1       8.205  20.810  53.026  1.00  0.00     0.001 A 
HETATM   15  H   UNL     1       8.539  22.381  57.612  1.00  0.00     0.165 HD
HETATM   16  C   UNL     1       7.580  23.855  56.437  1.00  0.00     0.102 A 
ENDBRANCH   6   7
ENDBRANCH   2   5
BRANCH   1  17
HETATM   17  C   UNL     1       4.907  27.470  51.351  1.00  0.00     0.068 A 
HETATM   18  C   UNL     1       4.808  28.666  52.088  1.00  0.00     0.084 A 
HETATM   19  C   UNL     1       4.357  29.831  51.449  1.00  0.00     0.039 A 
HETATM   20  C   UNL     1       3.969  29.804  50.107  1.00  0.00     0.022 A 
HETATM   21  C   UNL     1       4.034  28.613  49.393  1.00  0.00     0.012 A 
HETATM   22  C   UNL     1       4.499  27.453  50.004  1.00  0.00     0.039 A 
HETATM   23 BR   UNL     1       3.511  28.578  47.577  1.00  0.00    -0.051 Br
BRANCH  18  24
HETATM   24  O   UNL     1       5.194  28.656  53.406  1.00  0.00    -0.350 OA
BRANCH  24  25
HETATM   25  C   UNL     1       4.199  29.078  54.348  1.00  0.00     0.171 C 
HETATM   26  C   UNL     1       4.403  28.296  55.632  1.00  0.00     0.034 C 
ENDBRANCH  24  25
ENDBRANCH  18  24
ENDBRANCH   1  17
TORSDOF 5
ENDMDL
MODEL 8
REMARK VINA RESULT:      -7.9      3.203      8.508
REMARK  5 active torsions:
REMARK  status: ('A' for Active; 'I' for Inactive)
REMARK    1  A    between atoms: C_2  and  O_3 
REMARK    2  A    between atoms: O_3  and  C_4 
REMARK    3  A    between atoms: C_5  and  C_6 
REMARK       I    between atoms: C_6  and  N_7 
REMARK    4  A    between atoms: N_7  and  N_8 
REMARK    5  A    between atoms: C_9  and  C_10 
ROOT
HETATM    1  C   UNL     1       6.642  25.465  53.525  1.00  0.00     0.274 C 
HETATM    2  N   UNL     1       5.432  25.313  52.870  1.00  0.00    -0.243 N 
HETATM    3  O   UNL     1       7.309  26.497  53.528  1.00  0.00    -0.266 OA
HETATM    4  H   UNL     1       4.933  24.430  52.930  1.00  0.00     0.192 HD
ENDROOT
BRANCH   2   5
HETATM    5  N   UNL     1       4.985  26.307  52.049  1.00  0.00    -0.183 NA
HETATM    6  C   UNL     1       5.279  26.193  50.795  1.00  0.00     0.152 C 
BRANCH   6   7
HETATM    7  C   UNL     1       4.887  27.249  49.884  1.00  0.00     0.011 A 
HETATM    8  C   UNL     1       3.851  27.219  48.895  1.00  0.00     0.004 A 
HETATM    9  C   UNL     1       3.868  28.453  48.237  1.00  0.00     0.043 A 
HETATM   10  C   UNL     1       2.904  26.258  48.484  1.00  0.00     0.014 A 
HETATM   11  C   UNL     1       2.992  28.770  47.192  1.00  0.00     0.030 A 
HETATM   12  N   UNL     1       4.865  29.206  48.810  1.00  0.00    -0.364 N 
HETATM   13  C   UNL     1       2.066  27.797  46.805  1.00  0.00     0.002 A 
HETATM   14  C   UNL     1       2.019  26.560  47.441  1.00  0.00     0.001 A 
HETATM   15  H   UNL     1       5.109  30.147  48.533  1.00  0.00     0.165 HD
HETATM   16  C   UNL     1       5.482  28.494  49.800  1.00  0.00     0.102 A 
ENDBRANCH   6   7
ENDBRANCH   2   5
BRANCH   1  17
HETATM   17  C   UNL     1       7.185  24.253  54.215  1.00  0.00     0.068 A 
HETATM   18  C   UNL     1       7.404  24.157  55.603  1.00  0.00     0.084 A 
HETATM   19  C   UNL     1       7.856  22.943  56.143  1.00  0.00     0.039 A 
HETATM   20  C   UNL     1       8.126  21.850  55.316  1.00  0.00     0.022 A 
HETATM   21  C   UNL     1       7.942  21.961  53.942  1.00  0.00     0.012 A 
HETATM   22  C   UNL     1       7.475  23.150  53.391  1.00  0.00     0.039 A 
HETATM   23 BR   UNL     1       8.307  20.482  52.824  1.00  0.00    -0.051 Br
BRANCH  18  24
HETATM   24  O   UNL     1       7.132  25.252  56.386  1.00  0.00    -0.350 OA
BRANCH  24  25
HETATM   25  C   UNL     1       5.871  25.228  57.068  1.00  0.00     0.171 C 
HETATM   26  C   UNL     1       5.154  26.534  56.780  1.00  0.00     0.034 C 
ENDBRANCH  24  25
ENDBRANCH  18  24
ENDBRANCH   1  17
TORSDOF 5
ENDMDL
MODEL 9
REMARK VINA RESULT:      -7.8      3.153      8.577
REMARK  5 active torsions:
REMARK  status: ('A' for Active; 'I' for Inactive)
REMARK    1  A    between atoms: C_2  and  O_3 
REMARK    2  A    between atoms: O_3  and  C_4 
REMARK    3  A    between atoms: C_5  and  C_6 
REMARK       I    between atoms: C_6  and  N_7 
REMARK    4  A    between atoms: N_7  and  N_8 
REMARK    5  A    between atoms: C_9  and  C_10 
ROOT
HETATM    1  C   UNL     1       6.766  25.552  53.249  1.00  0.00     0.274 C 
HETATM    2  N   UNL     1       5.479  25.403  52.760  1.00  0.00    -0.243 N 
HETATM    3  O   UNL     1       7.485  26.525  53.036  1.00  0.00    -0.266 OA
HETATM    4  H   UNL     1       4.942  24.574  52.997  1.00  0.00     0.192 HD
ENDROOT
BRANCH   2   5
HETATM    5  N   UNL     1       4.994  26.311  51.865  1.00  0.00    -0.183 NA
HETATM    6  C   UNL     1       5.107  26.002  50.614  1.00  0.00     0.152 C 
BRANCH   6   7
HETATM    7  C   UNL     1       4.668  26.953  49.614  1.00  0.00     0.011 A 
HETATM    8  C   UNL     1       4.928  28.361  49.562  1.00  0.00     0.004 A 
HETATM    9  C   UNL     1       4.271  28.864  48.436  1.00  0.00     0.043 A 
HETATM   10  C   UNL     1       5.652  29.263  50.370  1.00  0.00     0.014 A 
HETATM   11  C   UNL     1       4.298  30.218  48.082  1.00  0.00     0.030 A 
HETATM   12  N   UNL     1       3.645  27.805  47.821  1.00  0.00    -0.364 N 
HETATM   13  C   UNL     1       5.021  31.089  48.902  1.00  0.00     0.002 A 
HETATM   14  C   UNL     1       5.690  30.620  50.029  1.00  0.00     0.001 A 
HETATM   15  H   UNL     1       3.089  27.872  46.980  1.00  0.00     0.165 HD
HETATM   16  C   UNL     1       3.878  26.654  48.519  1.00  0.00     0.102 A 
ENDBRANCH   6   7
ENDBRANCH   2   5
BRANCH   1  17
HETATM   17  C   UNL     1       7.318  24.405  54.036  1.00  0.00     0.068 A 
HETATM   18  C   UNL     1       7.593  24.443  55.417  1.00  0.00     0.084 A 
HETATM   19  C   UNL     1       8.048  23.282  56.059  1.00  0.00     0.039 A 
HETATM   20  C   UNL     1       8.268  22.106  55.335  1.00  0.00     0.022 A 
HETATM   21  C   UNL     1       8.029  22.083  53.966  1.00  0.00     0.012 A 
HETATM   22  C   UNL     1       7.558  23.220  53.317  1.00  0.00     0.039 A 
HETATM   23 BR   UNL     1       8.327  20.494  52.988  1.00  0.00    -0.051 Br
BRANCH  18  24
HETATM   24  O   UNL     1       7.368  25.616  56.096  1.00  0.00    -0.350 OA
BRANCH  24  25
HETATM   25  C   UNL     1       6.634  25.492  57.321  1.00  0.00     0.171 C 
HETATM   26  C   UNL     1       5.159  25.390  56.977  1.00  0.00     0.034 C 
ENDBRANCH  24  25
ENDBRANCH  18  24
ENDBRANCH   1  17
TORSDOF 5
ENDMDL
MODEL 10
REMARK VINA RESULT:      -7.6      3.088      8.446
REMARK  5 active torsions:
REMARK  status: ('A' for Active; 'I' for Inactive)
REMARK    1  A    between atoms: C_2  and  O_3 
REMARK    2  A    between atoms: O_3  and  C_4 
REMARK    3  A    between atoms: C_5  and  C_6 
REMARK       I    between atoms: C_6  and  N_7 
REMARK    4  A    between atoms: N_7  and  N_8 
REMARK    5  A    between atoms: C_9  and  C_10 
ROOT
HETATM    1  C   UNL     1       6.882  25.222  52.693  1.00  0.00     0.274 C 
HETATM    2  N   UNL     1       5.587  25.668  52.488  1.00  0.00    -0.243 N 
HETATM    3  O   UNL     1       7.704  25.031  51.800  1.00  0.00    -0.266 OA
HETATM    4  H   UNL     1       4.973  25.818  53.284  1.00  0.00     0.192 HD
ENDROOT
BRANCH   2   5
HETATM    5  N   UNL     1       5.111  25.780  51.214  1.00  0.00    -0.183 NA
HETATM    6  C   UNL     1       4.853  26.978  50.801  1.00  0.00     0.152 C 
BRANCH   6   7
HETATM    7  C   UNL     1       4.286  27.156  49.480  1.00  0.00     0.011 A 
HETATM    8  C   UNL     1       3.197  28.005  49.095  1.00  0.00     0.004 A 
HETATM    9  C   UNL     1       2.985  27.816  47.727  1.00  0.00     0.043 A 
HETATM   10  C   UNL     1       2.360  28.910  49.781  1.00  0.00     0.014 A 
HETATM   11  C   UNL     1       1.981  28.481  47.014  1.00  0.00     0.030 A 
HETATM   12  N   UNL     1       3.914  26.900  47.293  1.00  0.00    -0.364 N 
HETATM   13  C   UNL     1       1.166  29.371  47.719  1.00  0.00     0.002 A 
HETATM   14  C   UNL     1       1.352  29.586  49.081  1.00  0.00     0.001 A 
HETATM   15  H   UNL     1       3.996  26.567  46.342  1.00  0.00     0.165 HD
HETATM   16  C   UNL     1       4.700  26.498  48.336  1.00  0.00     0.102 A 
ENDBRANCH   6   7
ENDBRANCH   2   5
BRANCH   1  17
HETATM   17  C   UNL     1       7.261  24.898  54.104  1.00  0.00     0.068 A 
HETATM   18  C   UNL     1       7.511  23.598  54.584  1.00  0.00     0.084 A 
HETATM   19  C   UNL     1       7.924  23.425  55.914  1.00  0.00     0.039 A 
HETATM   20  C   UNL     1       8.049  24.522  56.771  1.00  0.00     0.022 A 
HETATM   21  C   UNL     1       7.765  25.801  56.302  1.00  0.00     0.012 A 
HETATM   22  C   UNL     1       7.376  25.992  54.981  1.00  0.00     0.039 A 
HETATM   23 BR   UNL     1       7.934  27.283  57.461  1.00  0.00    -0.051 Br
BRANCH  18  24
HETATM   24  O   UNL     1       7.377  22.542  53.716  1.00  0.00    -0.350 OA
BRANCH  24  25
HETATM   25  C   UNL     1       8.005  21.320  54.123  1.00  0.00     0.171 C 
HETATM   26  C   UNL     1       8.258  20.483  52.882  1.00  0.00     0.034 C 
ENDBRANCH  24  25
ENDBRANCH  18  24
ENDBRANCH   1  17
TORSDOF 5
ENDMDL
