MODEL 1
REMARK VINA RESULT:      -9.4      0.000      0.000
REMARK  7 active torsions:
REMARK  status: ('A' for Active; 'I' for Inactive)
REMARK    1  A    between atoms: O_2  and  C_3 
REMARK    2  A    between atoms: C_4  and  C_5 
REMARK    3  A    between atoms: C_5  and  C_6 
REMARK       I    between atoms: C_6  and  N_7 
REMARK    4  A    between atoms: N_7  and  N_8 
REMARK       I    between atoms: N_8  and  C_9 
REMARK    5  A    between atoms: C_9  and  C_10 
REMARK    6  A    between atoms: C_15  and  O_16 
REMARK    7  A    between atoms: O_16  and  C_17 
ROOT
HETATM    1  N   UNL     1       8.600  28.721  56.640  1.00  0.00    -0.262 N 
HETATM    2  C   UNL     1       7.553  27.843  56.819  1.00  0.00     0.286 C 
HETATM    3  O   UNL     1       6.597  28.111  57.546  1.00  0.00    -0.264 OA
HETATM    4  H   UNL     1       9.405  28.529  56.048  1.00  0.00     0.190 HD
ENDROOT
BRANCH   2   5
HETATM    5  C   UNL     1       7.659  26.591  56.105  1.00  0.00     0.103 A 
HETATM    6  N   UNL     1       7.464  26.525  54.742  1.00  0.00    -0.351 N 
HETATM    7  H   UNL     1       7.246  27.330  54.168  1.00  0.00     0.166 HD
HETATM    8  C   UNL     1       7.571  25.232  54.286  1.00  0.00     0.045 A 
HETATM    9  C   UNL     1       7.850  24.431  55.391  1.00  0.00     0.026 A 
HETATM   10  C   UNL     1       7.430  24.718  52.994  1.00  0.00     0.030 A 
HETATM   11  C   UNL     1       7.998  23.037  55.211  1.00  0.00     0.087 A 
HETATM   12  C   UNL     1       7.918  25.297  56.523  1.00  0.00     0.052 A 
HETATM   13  C   UNL     1       7.826  22.505  53.923  1.00  0.00     0.038 A 
HETATM   14  C   UNL     1       7.557  23.336  52.834  1.00  0.00     0.005 A 
BRANCH  11  15
HETATM   15  O   UNL     1       8.236  22.267  56.320  1.00  0.00    -0.289 OA
BRANCH  15  16
HETATM   16  C   UNL     1       8.366  20.882  56.046  1.00  0.00     0.505 C 
HETATM   17  F   UNL     1       9.246  20.373  56.945  1.00  0.00    -0.184 F 
HETATM   18  F   UNL     1       7.177  20.274  56.286  1.00  0.00    -0.184 F 
ENDBRANCH  15  16
ENDBRANCH  11  15
ENDBRANCH   2   5
BRANCH   1  19
HETATM   19  N   UNL     1       8.641  29.899  57.391  1.00  0.00    -0.267 N 
HETATM   20  C   UNL     1       9.868  30.351  57.833  1.00  0.00     0.240 C 
HETATM   21  O   UNL     1      10.922  29.792  57.529  1.00  0.00    -0.272 OA
HETATM   22  H   UNL     1       7.756  30.367  57.579  1.00  0.00     0.190 HD
BRANCH  20  23
HETATM   23  C   UNL     1       9.800  31.574  58.719  1.00  0.00     0.146 C 
BRANCH  23  24
HETATM   24  C   UNL     1       9.008  31.439  60.004  1.00  0.00    -0.016 A 
HETATM   25  C   UNL     1       7.674  31.902  60.029  1.00  0.00     0.074 A 
HETATM   26  C   UNL     1       6.922  31.809  61.205  1.00  0.00     0.037 A 
HETATM   27  C   UNL     1       7.483  31.254  62.356  1.00  0.00     0.003 A 
HETATM   28  C   UNL     1       8.794  30.792  62.340  1.00  0.00     0.001 A 
HETATM   29  C   UNL     1       9.553  30.883  61.172  1.00  0.00     0.010 A 
BRANCH  25  30
HETATM   30  O   UNL     1       7.211  32.442  58.855  1.00  0.00    -0.355 OA
HETATM   31  C   UNL     1       5.911  32.056  58.428  1.00  0.00     0.210 C 
ENDBRANCH  25  30
ENDBRANCH  23  24
ENDBRANCH  20  23
ENDBRANCH   1  19
TORSDOF 7
ENDMDL
MODEL 2
REMARK VINA RESULT:      -9.2      1.578      2.150
REMARK  7 active torsions:
REMARK  status: ('A' for Active; 'I' for Inactive)
REMARK    1  A    between atoms: O_2  and  C_3 
REMARK    2  A    between atoms: C_4  and  C_5 
REMARK    3  A    between atoms: C_5  and  C_6 
REMARK       I    between atoms: C_6  and  N_7 
REMARK    4  A    between atoms: N_7  and  N_8 
REMARK       I    between atoms: N_8  and  C_9 
REMARK    5  A    between atoms: C_9  and  C_10 
REMARK    6  A    between atoms: C_15  and  O_16 
REMARK    7  A    between atoms: O_16  and  C_17 
ROOT
HETATM    1  N   UNL     1       6.001  27.730  57.085  1.00  0.00    -0.262 N 
HETATM    2  C   UNL     1       7.122  26.962  57.312  1.00  0.00     0.286 C 
HETATM    3  O   UNL     1       7.911  27.217  58.222  1.00  0.00    -0.264 OA
HETATM    4  H   UNL     1       5.331  27.547  56.342  1.00  0.00     0.190 HD
ENDROOT
BRANCH   2   5
HETATM    5  C   UNL     1       7.312  25.850  56.409  1.00  0.00     0.103 A 
HETATM    6  N   UNL     1       7.550  26.050  55.066  1.00  0.00    -0.351 N 
HETATM    7  H   UNL     1       7.612  26.966  54.640  1.00  0.00     0.166 HD
HETATM    8  C   UNL     1       7.655  24.854  54.396  1.00  0.00     0.045 A 
HETATM    9  C   UNL     1       7.483  23.841  55.338  1.00  0.00     0.026 A 
HETATM   10  C   UNL     1       7.873  24.598  53.039  1.00  0.00     0.030 A 
HETATM   11  C   UNL     1       7.529  22.494  54.915  1.00  0.00     0.087 A 
HETATM   12  C   UNL     1       7.284  24.479  56.598  1.00  0.00     0.052 A 
HETATM   13  C   UNL     1       7.715  22.224  53.550  1.00  0.00     0.038 A 
HETATM   14  C   UNL     1       7.894  23.262  52.633  1.00  0.00     0.005 A 
BRANCH  11  15
HETATM   15  O   UNL     1       7.321  21.518  55.855  1.00  0.00    -0.289 OA
BRANCH  15  16
HETATM   16  C   UNL     1       8.512  20.959  56.383  1.00  0.00     0.505 C 
HETATM   17  F   UNL     1       8.437  21.047  57.735  1.00  0.00    -0.184 F 
HETATM   18  F   UNL     1       8.545  19.636  56.086  1.00  0.00    -0.184 F 
ENDBRANCH  15  16
ENDBRANCH  11  15
ENDBRANCH   2   5
BRANCH   1  19
HETATM   19  N   UNL     1       5.808  28.897  57.828  1.00  0.00    -0.267 N 
HETATM   20  C   UNL     1       6.093  30.108  57.231  1.00  0.00     0.240 C 
HETATM   21  O   UNL     1       6.440  30.194  56.053  1.00  0.00    -0.272 OA
HETATM   22  H   UNL     1       5.467  28.795  58.783  1.00  0.00     0.190 HD
BRANCH  20  23
HETATM   23  C   UNL     1       5.948  31.304  58.145  1.00  0.00     0.146 C 
BRANCH  23  24
HETATM   24  C   UNL     1       7.113  31.597  59.070  1.00  0.00    -0.016 A 
HETATM   25  C   UNL     1       6.850  32.189  60.324  1.00  0.00     0.074 A 
HETATM   26  C   UNL     1       7.905  32.489  61.192  1.00  0.00     0.037 A 
HETATM   27  C   UNL     1       9.220  32.201  60.827  1.00  0.00     0.003 A 
HETATM   28  C   UNL     1       9.489  31.614  59.595  1.00  0.00     0.001 A 
HETATM   29  C   UNL     1       8.444  31.314  58.721  1.00  0.00     0.010 A 
BRANCH  25  30
HETATM   30  O   UNL     1       5.529  32.447  60.593  1.00  0.00    -0.355 OA
HETATM   31  C   UNL     1       5.221  33.686  61.220  1.00  0.00     0.210 C 
ENDBRANCH  25  30
ENDBRANCH  23  24
ENDBRANCH  20  23
ENDBRANCH   1  19
TORSDOF 7
ENDMDL
MODEL 3
REMARK VINA RESULT:      -9.1      1.222      2.169
REMARK  7 active torsions:
REMARK  status: ('A' for Active; 'I' for Inactive)
REMARK    1  A    between atoms: O_2  and  C_3 
REMARK    2  A    between atoms: C_4  and  C_5 
REMARK    3  A    between atoms: C_5  and  C_6 
REMARK       I    between atoms: C_6  and  N_7 
REMARK    4  A    between atoms: N_7  and  N_8 
REMARK       I    between atoms: N_8  and  C_9 
REMARK    5  A    between atoms: C_9  and  C_10 
REMARK    6  A    between atoms: C_15  and  O_16 
REMARK    7  A    between atoms: O_16  and  C_17 
ROOT
HETATM    1  N   UNL     1       7.163  29.264  56.640  1.00  0.00    -0.262 N 
HETATM    2  C   UNL     1       7.573  28.048  57.141  1.00  0.00     0.286 C 
HETATM    3  O   UNL     1       7.937  27.915  58.309  1.00  0.00    -0.264 OA
HETATM    4  H   UNL     1       6.858  29.408  55.681  1.00  0.00     0.190 HD
ENDROOT
BRANCH   2   5
HETATM    5  C   UNL     1       7.553  26.948  56.204  1.00  0.00     0.103 A 
HETATM    6  N   UNL     1       7.630  27.163  54.844  1.00  0.00    -0.351 N 
HETATM    7  H   UNL     1       7.710  28.082  54.428  1.00  0.00     0.166 HD
HETATM    8  C   UNL     1       7.551  25.981  54.148  1.00  0.00     0.045 A 
HETATM    9  C   UNL     1       7.422  24.960  55.088  1.00  0.00     0.026 A 
HETATM   10  C   UNL     1       7.570  25.743  52.770  1.00  0.00     0.030 A 
HETATM   11  C   UNL     1       7.304  23.625  54.642  1.00  0.00     0.087 A 
HETATM   12  C   UNL     1       7.441  25.579  56.373  1.00  0.00     0.052 A 
HETATM   13  C   UNL     1       7.289  23.377  53.260  1.00  0.00     0.038 A 
HETATM   14  C   UNL     1       7.430  24.421  52.344  1.00  0.00     0.005 A 
BRANCH  11  15
HETATM   15  O   UNL     1       7.143  22.644  55.586  1.00  0.00    -0.289 OA
BRANCH  15  16
HETATM   16  C   UNL     1       7.953  21.499  55.376  1.00  0.00     0.505 C 
HETATM   17  F   UNL     1       9.235  21.857  55.639  1.00  0.00    -0.184 F 
HETATM   18  F   UNL     1       7.622  20.554  56.292  1.00  0.00    -0.184 F 
ENDBRANCH  15  16
ENDBRANCH  11  15
ENDBRANCH   2   5
BRANCH   1  19
HETATM   19  N   UNL     1       7.272  30.405  57.440  1.00  0.00    -0.267 N 
HETATM   20  C   UNL     1       6.127  30.906  58.025  1.00  0.00     0.240 C 
HETATM   21  O   UNL     1       5.037  30.343  57.922  1.00  0.00    -0.272 OA
HETATM   22  H   UNL     1       8.198  30.815  57.549  1.00  0.00     0.190 HD
BRANCH  20  23
HETATM   23  C   UNL     1       6.329  32.195  58.788  1.00  0.00     0.146 C 
BRANCH  23  24
HETATM   24  C   UNL     1       7.051  32.092  60.117  1.00  0.00    -0.016 A 
HETATM   25  C   UNL     1       8.459  32.186  60.131  1.00  0.00     0.074 A 
HETATM   26  C   UNL     1       9.157  32.075  61.338  1.00  0.00     0.037 A 
HETATM   27  C   UNL     1       8.466  31.877  62.534  1.00  0.00     0.003 A 
HETATM   28  C   UNL     1       7.079  31.787  62.531  1.00  0.00     0.001 A 
HETATM   29  C   UNL     1       6.374  31.894  61.331  1.00  0.00     0.010 A 
BRANCH  25  30
HETATM   30  O   UNL     1       9.055  32.369  58.908  1.00  0.00    -0.355 OA
HETATM   31  C   UNL     1      10.174  31.549  58.597  1.00  0.00     0.210 C 
ENDBRANCH  25  30
ENDBRANCH  23  24
ENDBRANCH  20  23
ENDBRANCH   1  19
TORSDOF 7
ENDMDL
MODEL 4
REMARK VINA RESULT:      -9.0      1.406      1.660
REMARK  7 active torsions:
REMARK  status: ('A' for Active; 'I' for Inactive)
REMARK    1  A    between atoms: O_2  and  C_3 
REMARK    2  A    between atoms: C_4  and  C_5 
REMARK    3  A    between atoms: C_5  and  C_6 
REMARK       I    between atoms: C_6  and  N_7 
REMARK    4  A    between atoms: N_7  and  N_8 
REMARK       I    between atoms: N_8  and  C_9 
REMARK    5  A    between atoms: C_9  and  C_10 
REMARK    6  A    between atoms: C_15  and  O_16 
REMARK    7  A    between atoms: O_16  and  C_17 
ROOT
HETATM    1  N   UNL     1       6.942  28.262  57.329  1.00  0.00    -0.262 N 
HETATM    2  C   UNL     1       6.801  28.100  55.968  1.00  0.00     0.286 C 
HETATM    3  O   UNL     1       6.402  29.011  55.243  1.00  0.00    -0.264 OA
HETATM    4  H   UNL     1       7.267  27.530  57.955  1.00  0.00     0.190 HD
ENDROOT
BRANCH   2   5
HETATM    5  C   UNL     1       7.145  26.793  55.455  1.00  0.00     0.103 A 
HETATM    6  N   UNL     1       7.279  26.566  54.102  1.00  0.00    -0.351 N 
HETATM    7  H   UNL     1       7.154  27.284  53.400  1.00  0.00     0.166 HD
HETATM    8  C   UNL     1       7.566  25.247  53.845  1.00  0.00     0.045 A 
HETATM    9  C   UNL     1       7.625  24.594  55.075  1.00  0.00     0.026 A 
HETATM   10  C   UNL     1       7.762  24.588  52.628  1.00  0.00     0.030 A 
HETATM   11  C   UNL     1       7.893  23.207  55.105  1.00  0.00     0.087 A 
HETATM   12  C   UNL     1       7.375  25.578  56.077  1.00  0.00     0.052 A 
HETATM   13  C   UNL     1       8.059  22.528  53.887  1.00  0.00     0.038 A 
HETATM   14  C   UNL     1       8.004  23.213  52.672  1.00  0.00     0.005 A 
BRANCH  11  15
HETATM   15  O   UNL     1       7.910  22.582  56.325  1.00  0.00    -0.289 OA
BRANCH  15  16
HETATM   16  C   UNL     1       8.232  21.203  56.265  1.00  0.00     0.505 C 
HETATM   17  F   UNL     1       8.726  20.849  57.478  1.00  0.00    -0.184 F 
HETATM   18  F   UNL     1       7.088  20.493  56.094  1.00  0.00    -0.184 F 
ENDBRANCH  15  16
ENDBRANCH  11  15
ENDBRANCH   2   5
BRANCH   1  19
HETATM   19  N   UNL     1       6.511  29.450  57.925  1.00  0.00    -0.267 N 
HETATM   20  C   UNL     1       7.443  30.441  58.158  1.00  0.00     0.240 C 
HETATM   21  O   UNL     1       8.616  30.337  57.798  1.00  0.00    -0.272 OA
HETATM   22  H   UNL     1       5.523  29.525  58.161  1.00  0.00     0.190 HD
BRANCH  20  23
HETATM   23  C   UNL     1       6.902  31.645  58.895  1.00  0.00     0.146 C 
BRANCH  23  24
HETATM   24  C   UNL     1       7.384  31.844  60.318  1.00  0.00    -0.016 A 
HETATM   25  C   UNL     1       6.440  32.186  61.311  1.00  0.00     0.074 A 
HETATM   26  C   UNL     1       6.856  32.395  62.630  1.00  0.00     0.037 A 
HETATM   27  C   UNL     1       8.202  32.263  62.973  1.00  0.00     0.003 A 
HETATM   28  C   UNL     1       9.138  31.923  62.002  1.00  0.00     0.001 A 
HETATM   29  C   UNL     1       8.734  31.715  60.683  1.00  0.00     0.010 A 
BRANCH  25  30
HETATM   30  O   UNL     1       5.142  32.306  60.880  1.00  0.00    -0.355 OA
HETATM   31  C   UNL     1       4.129  32.369  61.875  1.00  0.00     0.210 C 
ENDBRANCH  25  30
ENDBRANCH  23  24
ENDBRANCH  20  23
ENDBRANCH   1  19
TORSDOF 7
ENDMDL
MODEL 5
REMARK VINA RESULT:      -8.9      1.967      2.510
REMARK  7 active torsions:
REMARK  status: ('A' for Active; 'I' for Inactive)
REMARK    1  A    between atoms: O_2  and  C_3 
REMARK    2  A    between atoms: C_4  and  C_5 
REMARK    3  A    between atoms: C_5  and  C_6 
REMARK       I    between atoms: C_6  and  N_7 
REMARK    4  A    between atoms: N_7  and  N_8 
REMARK       I    between atoms: N_8  and  C_9 
REMARK    5  A    between atoms: C_9  and  C_10 
REMARK    6  A    between atoms: C_15  and  O_16 
REMARK    7  A    between atoms: O_16  and  C_17 
ROOT
HETATM    1  N   UNL     1       8.639  28.558  57.615  1.00  0.00    -0.262 N 
HETATM    2  C   UNL     1       7.421  28.046  57.222  1.00  0.00     0.286 C 
HETATM    3  O   UNL     1       6.386  28.708  57.291  1.00  0.00    -0.264 OA
HETATM    4  H   UNL     1       9.511  28.038  57.573  1.00  0.00     0.190 HD
ENDROOT
BRANCH   2   5
HETATM    5  C   UNL     1       7.443  26.686  56.736  1.00  0.00     0.103 A 
HETATM    6  N   UNL     1       8.011  25.670  57.474  1.00  0.00    -0.351 N 
HETATM    7  H   UNL     1       8.431  25.808  58.384  1.00  0.00     0.166 HD
HETATM    8  C   UNL     1       7.955  24.473  56.799  1.00  0.00     0.045 A 
HETATM    9  C   UNL     1       7.326  24.720  55.580  1.00  0.00     0.026 A 
HETATM   10  C   UNL     1       8.423  23.208  57.167  1.00  0.00     0.030 A 
HETATM   11  C   UNL     1       7.148  23.655  54.669  1.00  0.00     0.087 A 
HETATM   12  C   UNL     1       6.996  26.108  55.560  1.00  0.00     0.052 A 
HETATM   13  C   UNL     1       7.643  22.387  55.015  1.00  0.00     0.038 A 
HETATM   14  C   UNL     1       8.260  22.170  56.248  1.00  0.00     0.005 A 
BRANCH  11  15
HETATM   15  O   UNL     1       6.559  23.931  53.463  1.00  0.00    -0.289 OA
BRANCH  15  16
HETATM   16  C   UNL     1       7.478  24.178  52.413  1.00  0.00     0.505 C 
HETATM   17  F   UNL     1       7.651  25.521  52.333  1.00  0.00    -0.184 F 
HETATM   18  F   UNL     1       8.683  23.655  52.752  1.00  0.00    -0.184 F 
ENDBRANCH  15  16
ENDBRANCH  11  15
ENDBRANCH   2   5
BRANCH   1  19
HETATM   19  N   UNL     1       8.689  29.818  58.217  1.00  0.00    -0.267 N 
HETATM   20  C   UNL     1       9.878  30.518  58.172  1.00  0.00     0.240 C 
HETATM   21  O   UNL     1      10.864  30.099  57.565  1.00  0.00    -0.272 OA
HETATM   22  H   UNL     1       7.840  30.159  58.664  1.00  0.00     0.190 HD
BRANCH  20  23
HETATM   23  C   UNL     1       9.862  31.823  58.935  1.00  0.00     0.146 C 
BRANCH  23  24
HETATM   24  C   UNL     1       8.990  31.876  60.173  1.00  0.00    -0.016 A 
HETATM   25  C   UNL     1       7.613  32.149  60.019  1.00  0.00     0.074 A 
HETATM   26  C   UNL     1       6.784  32.224  61.144  1.00  0.00     0.037 A 
HETATM   27  C   UNL     1       7.311  32.025  62.421  1.00  0.00     0.003 A 
HETATM   28  C   UNL     1       8.665  31.752  62.581  1.00  0.00     0.001 A 
HETATM   29  C   UNL     1       9.500  31.678  61.466  1.00  0.00     0.010 A 
BRANCH  25  30
HETATM   30  O   UNL     1       7.186  32.342  58.729  1.00  0.00    -0.355 OA
HETATM   31  C   UNL     1       5.786  32.288  58.490  1.00  0.00     0.210 C 
ENDBRANCH  25  30
ENDBRANCH  23  24
ENDBRANCH  20  23
ENDBRANCH   1  19
TORSDOF 7
ENDMDL
MODEL 6
REMARK VINA RESULT:      -8.9      2.570      3.618
REMARK  7 active torsions:
REMARK  status: ('A' for Active; 'I' for Inactive)
REMARK    1  A    between atoms: O_2  and  C_3 
REMARK    2  A    between atoms: C_4  and  C_5 
REMARK    3  A    between atoms: C_5  and  C_6 
REMARK       I    between atoms: C_6  and  N_7 
REMARK    4  A    between atoms: N_7  and  N_8 
REMARK       I    between atoms: N_8  and  C_9 
REMARK    5  A    between atoms: C_9  and  C_10 
REMARK    6  A    between atoms: C_15  and  O_16 
REMARK    7  A    between atoms: O_16  and  C_17 
ROOT
HETATM    1  N   UNL     1       7.057  29.240  56.635  1.00  0.00    -0.262 N 
HETATM    2  C   UNL     1       7.527  28.031  57.099  1.00  0.00     0.286 C 
HETATM    3  O   UNL     1       7.993  27.907  58.232  1.00  0.00    -0.264 OA
HETATM    4  H   UNL     1       6.667  29.376  55.705  1.00  0.00     0.190 HD
ENDROOT
BRANCH   2   5
HETATM    5  C   UNL     1       7.443  26.929  56.169  1.00  0.00     0.103 A 
HETATM    6  N   UNL     1       7.821  25.654  56.532  1.00  0.00    -0.351 N 
HETATM    7  H   UNL     1       8.165  25.414  57.453  1.00  0.00     0.166 HD
HETATM    8  C   UNL     1       7.697  24.779  55.479  1.00  0.00     0.045 A 
HETATM    9  C   UNL     1       7.219  25.510  54.394  1.00  0.00     0.026 A 
HETATM   10  C   UNL     1       7.983  23.412  55.405  1.00  0.00     0.030 A 
HETATM   11  C   UNL     1       7.010  24.855  53.160  1.00  0.00     0.087 A 
HETATM   12  C   UNL     1       7.049  26.853  54.844  1.00  0.00     0.052 A 
HETATM   13  C   UNL     1       7.325  23.490  53.064  1.00  0.00     0.038 A 
HETATM   14  C   UNL     1       7.793  22.782  54.172  1.00  0.00     0.005 A 
BRANCH  11  15
HETATM   15  O   UNL     1       6.574  25.604  52.099  1.00  0.00    -0.289 OA
BRANCH  15  16
HETATM   16  C   UNL     1       5.231  25.348  51.722  1.00  0.00     0.505 C 
HETATM   17  F   UNL     1       4.521  25.151  52.861  1.00  0.00    -0.184 F 
HETATM   18  F   UNL     1       4.720  26.461  51.138  1.00  0.00    -0.184 F 
ENDBRANCH  15  16
ENDBRANCH  11  15
ENDBRANCH   2   5
BRANCH   1  19
HETATM   19  N   UNL     1       7.217  30.385  57.421  1.00  0.00    -0.267 N 
HETATM   20  C   UNL     1       6.101  30.921  58.030  1.00  0.00     0.240 C 
HETATM   21  O   UNL     1       4.994  30.388  57.960  1.00  0.00    -0.272 OA
HETATM   22  H   UNL     1       8.156  30.770  57.502  1.00  0.00     0.190 HD
BRANCH  20  23
HETATM   23  C   UNL     1       6.358  32.212  58.775  1.00  0.00     0.146 C 
BRANCH  23  24
HETATM   24  C   UNL     1       7.079  32.097  60.103  1.00  0.00    -0.016 A 
HETATM   25  C   UNL     1       8.489  32.173  60.116  1.00  0.00     0.074 A 
HETATM   26  C   UNL     1       9.186  32.051  61.323  1.00  0.00     0.037 A 
HETATM   27  C   UNL     1       8.494  31.859  62.519  1.00  0.00     0.003 A 
HETATM   28  C   UNL     1       7.105  31.787  62.517  1.00  0.00     0.001 A 
HETATM   29  C   UNL     1       6.401  31.905  61.318  1.00  0.00     0.010 A 
BRANCH  25  30
HETATM   30  O   UNL     1       9.086  32.350  58.893  1.00  0.00    -0.355 OA
HETATM   31  C   UNL     1      10.219  31.545  58.597  1.00  0.00     0.210 C 
ENDBRANCH  25  30
ENDBRANCH  23  24
ENDBRANCH  20  23
ENDBRANCH   1  19
TORSDOF 7
ENDMDL
MODEL 7
REMARK VINA RESULT:      -8.8      2.616      3.360
REMARK  7 active torsions:
REMARK  status: ('A' for Active; 'I' for Inactive)
REMARK    1  A    between atoms: O_2  and  C_3 
REMARK    2  A    between atoms: C_4  and  C_5 
REMARK    3  A    between atoms: C_5  and  C_6 
REMARK       I    between atoms: C_6  and  N_7 
REMARK    4  A    between atoms: N_7  and  N_8 
REMARK       I    between atoms: N_8  and  C_9 
REMARK    5  A    between atoms: C_9  and  C_10 
REMARK    6  A    between atoms: C_15  and  O_16 
REMARK    7  A    between atoms: O_16  and  C_17 
ROOT
HETATM    1  N   UNL     1       7.419  29.346  58.326  1.00  0.00    -0.262 N 
HETATM    2  C   UNL     1       8.168  28.984  57.227  1.00  0.00     0.286 C 
HETATM    3  O   UNL     1       8.981  29.751  56.714  1.00  0.00    -0.264 OA
HETATM    4  H   UNL     1       6.738  28.736  58.773  1.00  0.00     0.190 HD
ENDROOT
BRANCH   2   5
HETATM    5  C   UNL     1       7.927  27.653  56.718  1.00  0.00     0.103 A 
HETATM    6  N   UNL     1       8.361  26.536  57.400  1.00  0.00    -0.351 N 
HETATM    7  H   UNL     1       8.857  26.576  58.281  1.00  0.00     0.166 HD
HETATM    8  C   UNL     1       8.060  25.385  56.711  1.00  0.00     0.045 A 
HETATM    9  C   UNL     1       7.405  25.767  55.542  1.00  0.00     0.026 A 
HETATM   10  C   UNL     1       8.330  24.050  57.026  1.00  0.00     0.030 A 
HETATM   11  C   UNL     1       6.991  24.772  54.628  1.00  0.00     0.087 A 
HETATM   12  C   UNL     1       7.314  27.190  55.566  1.00  0.00     0.052 A 
HETATM   13  C   UNL     1       7.285  23.430  54.918  1.00  0.00     0.038 A 
HETATM   14  C   UNL     1       7.934  23.079  56.103  1.00  0.00     0.005 A 
BRANCH  11  15
HETATM   15  O   UNL     1       6.380  25.177  53.470  1.00  0.00    -0.289 OA
BRANCH  15  16
HETATM   16  C   UNL     1       7.093  24.842  52.291  1.00  0.00     0.505 C 
HETATM   17  F   UNL     1       6.510  25.506  51.262  1.00  0.00    -0.184 F 
HETATM   18  F   UNL     1       8.358  25.325  52.392  1.00  0.00    -0.184 F 
ENDBRANCH  15  16
ENDBRANCH  11  15
ENDBRANCH   2   5
BRANCH   1  19
HETATM   19  N   UNL     1       7.495  30.656  58.804  1.00  0.00    -0.267 N 
HETATM   20  C   UNL     1       8.333  30.918  59.868  1.00  0.00     0.240 C 
HETATM   21  O   UNL     1       9.061  30.054  60.358  1.00  0.00    -0.272 OA
HETATM   22  H   UNL     1       6.920  31.359  58.341  1.00  0.00     0.190 HD
BRANCH  20  23
HETATM   23  C   UNL     1       8.271  32.341  60.376  1.00  0.00     0.146 C 
BRANCH  23  24
HETATM   24  C   UNL     1       7.580  32.557  61.708  1.00  0.00    -0.016 A 
HETATM   25  C   UNL     1       6.173  32.676  61.728  1.00  0.00     0.074 A 
HETATM   26  C   UNL     1       5.507  32.896  62.938  1.00  0.00     0.037 A 
HETATM   27  C   UNL     1       6.226  32.992  64.130  1.00  0.00     0.003 A 
HETATM   28  C   UNL     1       7.611  32.872  64.121  1.00  0.00     0.001 A 
HETATM   29  C   UNL     1       8.285  32.656  62.918  1.00  0.00     0.010 A 
BRANCH  25  30
HETATM   30  O   UNL     1       5.551  32.581  60.509  1.00  0.00    -0.355 OA
HETATM   31  C   UNL     1       4.138  32.423  60.507  1.00  0.00     0.210 C 
ENDBRANCH  25  30
ENDBRANCH  23  24
ENDBRANCH  20  23
ENDBRANCH   1  19
TORSDOF 7
ENDMDL
MODEL 8
REMARK VINA RESULT:      -8.5      1.525      2.215
REMARK  7 active torsions:
REMARK  status: ('A' for Active; 'I' for Inactive)
REMARK    1  A    between atoms: O_2  and  C_3 
REMARK    2  A    between atoms: C_4  and  C_5 
REMARK    3  A    between atoms: C_5  and  C_6 
REMARK       I    between atoms: C_6  and  N_7 
REMARK    4  A    between atoms: N_7  and  N_8 
REMARK       I    between atoms: N_8  and  C_9 
REMARK    5  A    between atoms: C_9  and  C_10 
REMARK    6  A    between atoms: C_15  and  O_16 
REMARK    7  A    between atoms: O_16  and  C_17 
ROOT
HETATM    1  N   UNL     1       7.137  29.201  56.561  1.00  0.00    -0.262 N 
HETATM    2  C   UNL     1       7.571  27.993  57.061  1.00  0.00     0.286 C 
HETATM    3  O   UNL     1       7.941  27.868  58.228  1.00  0.00    -0.264 OA
HETATM    4  H   UNL     1       6.826  29.338  55.602  1.00  0.00     0.190 HD
ENDROOT
BRANCH   2   5
HETATM    5  C   UNL     1       7.569  26.892  56.125  1.00  0.00     0.103 A 
HETATM    6  N   UNL     1       7.650  27.107  54.766  1.00  0.00    -0.351 N 
HETATM    7  H   UNL     1       7.721  28.027  54.349  1.00  0.00     0.166 HD
HETATM    8  C   UNL     1       7.588  25.923  54.070  1.00  0.00     0.045 A 
HETATM    9  C   UNL     1       7.466  24.902  55.010  1.00  0.00     0.026 A 
HETATM   10  C   UNL     1       7.617  25.685  52.693  1.00  0.00     0.030 A 
HETATM   11  C   UNL     1       7.366  23.565  54.565  1.00  0.00     0.087 A 
HETATM   12  C   UNL     1       7.471  25.522  56.295  1.00  0.00     0.052 A 
HETATM   13  C   UNL     1       7.361  23.316  53.183  1.00  0.00     0.038 A 
HETATM   14  C   UNL     1       7.494  24.361  52.266  1.00  0.00     0.005 A 
BRANCH  11  15
HETATM   15  O   UNL     1       7.211  22.583  55.509  1.00  0.00    -0.289 OA
BRANCH  15  16
HETATM   16  C   UNL     1       8.429  22.011  55.955  1.00  0.00     0.505 C 
HETATM   17  F   UNL     1       9.439  22.678  55.341  1.00  0.00    -0.184 F 
HETATM   18  F   UNL     1       8.564  22.248  57.284  1.00  0.00    -0.184 F 
ENDBRANCH  15  16
ENDBRANCH  11  15
ENDBRANCH   2   5
BRANCH   1  19
HETATM   19  N   UNL     1       7.227  30.345  57.360  1.00  0.00    -0.267 N 
HETATM   20  C   UNL     1       6.075  30.823  57.950  1.00  0.00     0.240 C 
HETATM   21  O   UNL     1       4.996  30.239  57.852  1.00  0.00    -0.272 OA
HETATM   22  H   UNL     1       8.145  30.773  57.464  1.00  0.00     0.190 HD
BRANCH  20  23
HETATM   23  C   UNL     1       6.255  32.117  58.711  1.00  0.00     0.146 C 
BRANCH  23  24
HETATM   24  C   UNL     1       7.156  32.068  59.929  1.00  0.00    -0.016 A 
HETATM   25  C   UNL     1       6.565  32.113  61.211  1.00  0.00     0.074 A 
HETATM   26  C   UNL     1       7.369  32.090  62.354  1.00  0.00     0.037 A 
HETATM   27  C   UNL     1       8.758  32.016  62.237  1.00  0.00     0.003 A 
HETATM   28  C   UNL     1       9.349  31.966  60.979  1.00  0.00     0.001 A 
HETATM   29  C   UNL     1       8.555  31.992  59.832  1.00  0.00     0.010 A 
BRANCH  25  30
HETATM   30  O   UNL     1       5.195  32.198  61.230  1.00  0.00    -0.355 OA
HETATM   31  C   UNL     1       4.619  33.316  61.893  1.00  0.00     0.210 C 
ENDBRANCH  25  30
ENDBRANCH  23  24
ENDBRANCH  20  23
ENDBRANCH   1  19
TORSDOF 7
ENDMDL
MODEL 9
REMARK VINA RESULT:      -8.4      2.580      3.532
REMARK  7 active torsions:
REMARK  status: ('A' for Active; 'I' for Inactive)
REMARK    1  A    between atoms: O_2  and  C_3 
REMARK    2  A    between atoms: C_4  and  C_5 
REMARK    3  A    between atoms: C_5  and  C_6 
REMARK       I    between atoms: C_6  and  N_7 
REMARK    4  A    between atoms: N_7  and  N_8 
REMARK       I    between atoms: N_8  and  C_9 
REMARK    5  A    between atoms: C_9  and  C_10 
REMARK    6  A    between atoms: C_15  and  O_16 
REMARK    7  A    between atoms: O_16  and  C_17 
ROOT
HETATM    1  N   UNL     1       7.136  29.186  56.469  1.00  0.00    -0.262 N 
HETATM    2  C   UNL     1       7.610  27.980  56.938  1.00  0.00     0.286 C 
HETATM    3  O   UNL     1       8.068  27.860  58.074  1.00  0.00    -0.264 OA
HETATM    4  H   UNL     1       6.753  29.319  55.536  1.00  0.00     0.190 HD
ENDROOT
BRANCH   2   5
HETATM    5  C   UNL     1       7.540  26.877  56.008  1.00  0.00     0.103 A 
HETATM    6  N   UNL     1       7.822  25.587  56.404  1.00  0.00    -0.351 N 
HETATM    7  H   UNL     1       8.082  25.337  57.349  1.00  0.00     0.166 HD
HETATM    8  C   UNL     1       7.733  24.712  55.347  1.00  0.00     0.045 A 
HETATM    9  C   UNL     1       7.378  25.459  54.226  1.00  0.00     0.026 A 
HETATM   10  C   UNL     1       7.953  23.332  55.300  1.00  0.00     0.030 A 
HETATM   11  C   UNL     1       7.231  24.806  52.982  1.00  0.00     0.087 A 
HETATM   12  C   UNL     1       7.245  26.812  54.657  1.00  0.00     0.052 A 
HETATM   13  C   UNL     1       7.481  23.425  52.915  1.00  0.00     0.038 A 
HETATM   14  C   UNL     1       7.825  22.703  54.059  1.00  0.00     0.005 A 
BRANCH  11  15
HETATM   15  O   UNL     1       6.917  25.569  51.888  1.00  0.00    -0.289 OA
BRANCH  15  16
HETATM   16  C   UNL     1       5.528  25.638  51.609  1.00  0.00     0.505 C 
HETATM   17  F   UNL     1       4.949  24.542  52.162  1.00  0.00    -0.184 F 
HETATM   18  F   UNL     1       5.005  26.713  52.251  1.00  0.00    -0.184 F 
ENDBRANCH  15  16
ENDBRANCH  11  15
ENDBRANCH   2   5
BRANCH   1  19
HETATM   19  N   UNL     1       7.282  30.332  57.255  1.00  0.00    -0.267 N 
HETATM   20  C   UNL     1       6.171  30.825  57.907  1.00  0.00     0.240 C 
HETATM   21  O   UNL     1       5.082  30.252  57.874  1.00  0.00    -0.272 OA
HETATM   22  H   UNL     1       8.209  30.751  57.306  1.00  0.00     0.190 HD
BRANCH  20  23
HETATM   23  C   UNL     1       6.407  32.121  58.650  1.00  0.00     0.146 C 
BRANCH  23  24
HETATM   24  C   UNL     1       7.314  32.052  59.863  1.00  0.00    -0.016 A 
HETATM   25  C   UNL     1       6.730  32.078  61.148  1.00  0.00     0.074 A 
HETATM   26  C   UNL     1       7.540  32.036  62.287  1.00  0.00     0.037 A 
HETATM   27  C   UNL     1       8.928  31.962  62.161  1.00  0.00     0.003 A 
HETATM   28  C   UNL     1       9.513  31.933  60.900  1.00  0.00     0.001 A 
HETATM   29  C   UNL     1       8.712  31.977  59.757  1.00  0.00     0.010 A 
BRANCH  25  30
HETATM   30  O   UNL     1       5.360  32.163  61.176  1.00  0.00    -0.355 OA
HETATM   31  C   UNL     1       4.730  32.137  62.450  1.00  0.00     0.210 C 
ENDBRANCH  25  30
ENDBRANCH  23  24
ENDBRANCH  20  23
ENDBRANCH   1  19
TORSDOF 7
ENDMDL
MODEL 10
REMARK VINA RESULT:      -8.1      5.214     10.387
REMARK  7 active torsions:
REMARK  status: ('A' for Active; 'I' for Inactive)
REMARK    1  A    between atoms: O_2  and  C_3 
REMARK    2  A    between atoms: C_4  and  C_5 
REMARK    3  A    between atoms: C_5  and  C_6 
REMARK       I    between atoms: C_6  and  N_7 
REMARK    4  A    between atoms: N_7  and  N_8 
REMARK       I    between atoms: N_8  and  C_9 
REMARK    5  A    between atoms: C_9  and  C_10 
REMARK    6  A    between atoms: C_15  and  O_16 
REMARK    7  A    between atoms: O_16  and  C_17 
ROOT
HETATM    1  N   UNL     1       7.027  30.380  58.816  1.00  0.00    -0.262 N 
HETATM    2  C   UNL     1       6.572  31.669  58.993  1.00  0.00     0.286 C 
HETATM    3  O   UNL     1       6.293  32.395  58.040  1.00  0.00    -0.264 OA
HETATM    4  H   UNL     1       7.267  29.755  59.581  1.00  0.00     0.190 HD
ENDROOT
BRANCH   2   5
HETATM    5  C   UNL     1       6.456  32.107  60.365  1.00  0.00     0.103 A 
HETATM    6  N   UNL     1       7.569  32.284  61.158  1.00  0.00    -0.351 N 
HETATM    7  H   UNL     1       8.516  32.128  60.835  1.00  0.00     0.166 HD
HETATM    8  C   UNL     1       7.217  32.661  62.432  1.00  0.00     0.045 A 
HETATM    9  C   UNL     1       5.826  32.736  62.467  1.00  0.00     0.026 A 
HETATM   10  C   UNL     1       8.018  32.925  63.547  1.00  0.00     0.030 A 
HETATM   11  C   UNL     1       5.186  33.093  63.676  1.00  0.00     0.087 A 
HETATM   12  C   UNL     1       5.362  32.402  61.161  1.00  0.00     0.052 A 
HETATM   13  C   UNL     1       5.979  33.328  64.811  1.00  0.00     0.038 A 
HETATM   14  C   UNL     1       7.371  33.255  64.740  1.00  0.00     0.005 A 
BRANCH  11  15
HETATM   15  O   UNL     1       3.816  33.124  63.693  1.00  0.00    -0.289 OA
BRANCH  15  16
HETATM   16  C   UNL     1       3.269  34.417  63.887  1.00  0.00     0.505 C 
HETATM   17  F   UNL     1       2.108  34.475  63.187  1.00  0.00    -0.184 F 
HETATM   18  F   UNL     1       2.937  34.561  65.195  1.00  0.00    -0.184 F 
ENDBRANCH  15  16
ENDBRANCH  11  15
ENDBRANCH   2   5
BRANCH   1  19
HETATM   19  N   UNL     1       7.291  29.918  57.523  1.00  0.00    -0.267 N 
HETATM   20  C   UNL     1       7.717  28.615  57.368  1.00  0.00     0.240 C 
HETATM   21  O   UNL     1       7.803  27.835  58.316  1.00  0.00    -0.272 OA
HETATM   22  H   UNL     1       7.157  30.574  56.755  1.00  0.00     0.190 HD
BRANCH  20  23
HETATM   23  C   UNL     1       8.071  28.240  55.946  1.00  0.00     0.146 C 
BRANCH  23  24
HETATM   24  C   UNL     1       7.049  27.420  55.186  1.00  0.00    -0.016 A 
HETATM   25  C   UNL     1       7.069  26.015  55.324  1.00  0.00     0.074 A 
HETATM   26  C   UNL     1       6.151  25.228  54.621  1.00  0.00     0.037 A 
HETATM   27  C   UNL     1       5.209  25.826  53.783  1.00  0.00     0.003 A 
HETATM   28  C   UNL     1       5.178  27.209  53.643  1.00  0.00     0.001 A 
HETATM   29  C   UNL     1       6.092  28.002  54.339  1.00  0.00     0.010 A 
BRANCH  25  30
HETATM   30  O   UNL     1       8.037  25.515  56.159  1.00  0.00    -0.355 OA
HETATM   31  C   UNL     1       7.765  24.280  56.808  1.00  0.00     0.210 C 
ENDBRANCH  25  30
ENDBRANCH  23  24
ENDBRANCH  20  23
ENDBRANCH   1  19
TORSDOF 7
ENDMDL
