MODEL 1
REMARK VINA RESULT:      -9.5      0.000      0.000
REMARK  4 active torsions:
REMARK  status: ('A' for Active; 'I' for Inactive)
REMARK    1  A    between atoms: C_8  and  C_9 
REMARK       I    between atoms: C_9  and  N_10 
REMARK    2  A    between atoms: N_10  and  N_11 
REMARK       I    between atoms: N_11  and  C_12 
REMARK    3  A    between atoms: C_12  and  C_13 
REMARK    4  A    between atoms: C_13  and  C_14 
ROOT
HETATM    1  N   UNL     1       3.752  27.208  53.080  1.00  0.00    -0.267 N 
HETATM    2  C   UNL     1       4.358  28.183  52.309  1.00  0.00     0.236 C 
HETATM    3  O   UNL     1       5.537  28.493  52.449  1.00  0.00    -0.272 OA
HETATM    4  H   UNL     1       2.856  26.791  52.832  1.00  0.00     0.190 HD
ENDROOT
BRANCH   1   5
HETATM    5  N   UNL     1       4.559  26.470  53.950  1.00  0.00    -0.262 N 
HETATM    6  C   UNL     1       5.053  25.241  53.557  1.00  0.00     0.291 C 
HETATM    7  O   UNL     1       4.703  24.688  52.515  1.00  0.00    -0.264 OA
HETATM    8  H   UNL     1       4.989  26.953  54.742  1.00  0.00     0.190 HD
BRANCH   6   9
HETATM    9  C   UNL     1       6.027  24.678  54.503  1.00  0.00     0.158 A 
HETATM   10  C   UNL     1       7.051  23.725  54.230  1.00  0.00     0.028 A 
HETATM   11  C   UNL     1       7.507  23.018  53.100  1.00  0.00     0.016 A 
HETATM   12  C   UNL     1       7.687  23.517  55.449  1.00  0.00     0.063 A 
HETATM   13  C   UNL     1       8.580  22.131  53.240  1.00  0.00     0.001 A 
HETATM   14  C   UNL     1       9.195  21.944  54.477  1.00  0.00     0.002 A 
HETATM   15  C   UNL     1       8.761  22.637  55.613  1.00  0.00     0.032 A 
HETATM   16  N   UNL     1       7.037  24.328  56.337  1.00  0.00    -0.277 N 
HETATM   17  H   UNL     1       7.234  24.438  57.326  1.00  0.00     0.189 HD
HETATM   18  N   UNL     1       6.031  25.041  55.805  1.00  0.00    -0.168 NA
ENDBRANCH   6   9
ENDBRANCH   1   5
BRANCH   2  19
HETATM   19  C   UNL     1       3.396  28.818  51.316  1.00  0.00     0.114 C 
BRANCH  19  20
HETATM   20  C   UNL     1       3.563  28.439  49.827  1.00  0.00    -0.031 C 
HETATM   21  C   UNL     1       2.196  28.306  49.108  1.00  0.00     0.014 C 
HETATM   22  C   UNL     1       2.394  27.987  47.616  1.00  0.00    -0.013 C 
HETATM   23  C   UNL     1       3.181  26.673  47.478  1.00  0.00     0.009 C 
HETATM   24  C   UNL     1       3.186  29.125  46.953  1.00  0.00     0.009 C 
HETATM   25  C   UNL     1       4.559  26.808  48.149  1.00  0.00    -0.013 C 
HETATM   26  C   UNL     1       4.367  27.126  49.643  1.00  0.00     0.014 C 
HETATM   27  C   UNL     1       5.337  27.954  47.483  1.00  0.00     0.009 C 
HETATM   28  C   UNL     1       4.558  29.269  47.628  1.00  0.00    -0.013 C 
HETATM   29  C   UNL     1       4.358  29.577  49.121  1.00  0.00     0.014 C 
ENDBRANCH  19  20
ENDBRANCH   2  19
TORSDOF 4
ENDMDL
MODEL 2
REMARK VINA RESULT:      -9.5      0.056      1.475
REMARK  4 active torsions:
REMARK  status: ('A' for Active; 'I' for Inactive)
REMARK    1  A    between atoms: C_8  and  C_9 
REMARK       I    between atoms: C_9  and  N_10 
REMARK    2  A    between atoms: N_10  and  N_11 
REMARK       I    between atoms: N_11  and  C_12 
REMARK    3  A    between atoms: C_12  and  C_13 
REMARK    4  A    between atoms: C_13  and  C_14 
ROOT
HETATM    1  N   UNL     1       3.754  27.162  53.058  1.00  0.00    -0.267 N 
HETATM    2  C   UNL     1       4.358  28.173  52.334  1.00  0.00     0.236 C 
HETATM    3  O   UNL     1       5.525  28.507  52.518  1.00  0.00    -0.272 OA
HETATM    4  H   UNL     1       2.877  26.731  52.771  1.00  0.00     0.190 HD
ENDROOT
BRANCH   1   5
HETATM    5  N   UNL     1       4.553  26.419  53.932  1.00  0.00    -0.262 N 
HETATM    6  C   UNL     1       5.084  25.212  53.523  1.00  0.00     0.291 C 
HETATM    7  O   UNL     1       4.775  24.678  52.457  1.00  0.00    -0.264 OA
HETATM    8  H   UNL     1       4.950  26.891  54.748  1.00  0.00     0.190 HD
BRANCH   6   9
HETATM    9  C   UNL     1       6.043  24.645  54.481  1.00  0.00     0.158 A 
HETATM   10  C   UNL     1       7.060  23.680  54.224  1.00  0.00     0.028 A 
HETATM   11  C   UNL     1       7.519  22.961  53.103  1.00  0.00     0.016 A 
HETATM   12  C   UNL     1       7.683  23.474  55.450  1.00  0.00     0.063 A 
HETATM   13  C   UNL     1       8.582  22.063  53.259  1.00  0.00     0.001 A 
HETATM   14  C   UNL     1       9.184  21.879  54.504  1.00  0.00     0.002 A 
HETATM   15  C   UNL     1       8.746  22.584  55.630  1.00  0.00     0.032 A 
HETATM   16  N   UNL     1       7.033  24.297  56.327  1.00  0.00    -0.277 N 
HETATM   17  H   UNL     1       7.221  24.412  57.317  1.00  0.00     0.189 HD
HETATM   18  N   UNL     1       6.039  25.017  55.781  1.00  0.00    -0.168 NA
ENDBRANCH   6   9
ENDBRANCH   1   5
BRANCH   2  19
HETATM   19  C   UNL     1       3.412  28.813  51.329  1.00  0.00     0.114 C 
BRANCH  19  20
HETATM   20  C   UNL     1       3.642  28.492  49.835  1.00  0.00    -0.031 C 
HETATM   21  C   UNL     1       4.388  27.148  49.641  1.00  0.00     0.014 C 
HETATM   22  C   UNL     1       4.550  26.825  48.145  1.00  0.00    -0.013 C 
HETATM   23  C   UNL     1       5.337  27.958  47.464  1.00  0.00     0.009 C 
HETATM   24  C   UNL     1       3.162  26.712  47.496  1.00  0.00     0.009 C 
HETATM   25  C   UNL     1       4.583  29.290  47.612  1.00  0.00    -0.013 C 
HETATM   26  C   UNL     1       4.420  29.618  49.107  1.00  0.00     0.014 C 
HETATM   27  C   UNL     1       3.194  29.161  46.966  1.00  0.00     0.009 C 
HETATM   28  C   UNL     1       2.402  28.037  47.651  1.00  0.00    -0.013 C 
HETATM   29  C   UNL     1       2.252  28.363  49.146  1.00  0.00     0.014 C 
ENDBRANCH  19  20
ENDBRANCH   2  19
TORSDOF 4
ENDMDL
MODEL 3
REMARK VINA RESULT:      -9.3      1.519      1.787
REMARK  4 active torsions:
REMARK  status: ('A' for Active; 'I' for Inactive)
REMARK    1  A    between atoms: C_8  and  C_9 
REMARK       I    between atoms: C_9  and  N_10 
REMARK    2  A    between atoms: N_10  and  N_11 
REMARK       I    between atoms: N_11  and  C_12 
REMARK    3  A    between atoms: C_12  and  C_13 
REMARK    4  A    between atoms: C_13  and  C_14 
ROOT
HETATM    1  N   UNL     1       6.571  26.977  52.830  1.00  0.00    -0.267 N 
HETATM    2  C   UNL     1       5.271  27.391  52.606  1.00  0.00     0.236 C 
HETATM    3  O   UNL     1       4.309  26.868  53.161  1.00  0.00    -0.272 OA
HETATM    4  H   UNL     1       7.379  27.535  52.556  1.00  0.00     0.190 HD
ENDROOT
BRANCH   1   5
HETATM    5  N   UNL     1       6.787  26.021  53.826  1.00  0.00    -0.262 N 
HETATM    6  C   UNL     1       7.671  24.982  53.604  1.00  0.00     0.291 C 
HETATM    7  O   UNL     1       8.186  24.773  52.506  1.00  0.00    -0.264 OA
HETATM    8  H   UNL     1       6.505  26.242  54.783  1.00  0.00     0.190 HD
BRANCH   6   9
HETATM    9  C   UNL     1       7.925  24.171  54.803  1.00  0.00     0.158 A 
HETATM   10  C   UNL     1       8.041  22.753  54.883  1.00  0.00     0.028 A 
HETATM   11  C   UNL     1       7.974  21.675  53.979  1.00  0.00     0.016 A 
HETATM   12  C   UNL     1       8.271  22.483  56.228  1.00  0.00     0.063 A 
HETATM   13  C   UNL     1       8.140  20.371  54.461  1.00  0.00     0.001 A 
HETATM   14  C   UNL     1       8.368  20.135  55.816  1.00  0.00     0.002 A 
HETATM   15  C   UNL     1       8.440  21.190  56.732  1.00  0.00     0.032 A 
HETATM   16  N   UNL     1       8.285  23.704  56.842  1.00  0.00    -0.277 N 
HETATM   17  H   UNL     1       8.430  23.894  57.828  1.00  0.00     0.189 HD
HETATM   18  N   UNL     1       8.079  24.744  56.018  1.00  0.00    -0.168 NA
ENDBRANCH   6   9
ENDBRANCH   1   5
BRANCH   2  19
HETATM   19  C   UNL     1       5.188  28.524  51.594  1.00  0.00     0.114 C 
BRANCH  19  20
HETATM   20  C   UNL     1       4.645  28.182  50.189  1.00  0.00    -0.031 C 
HETATM   21  C   UNL     1       3.170  28.627  50.016  1.00  0.00     0.014 C 
HETATM   22  C   UNL     1       2.675  28.328  48.589  1.00  0.00    -0.013 C 
HETATM   23  C   UNL     1       2.797  26.820  48.316  1.00  0.00     0.009 C 
HETATM   24  C   UNL     1       3.538  29.099  47.580  1.00  0.00     0.009 C 
HETATM   25  C   UNL     1       4.265  26.376  48.440  1.00  0.00    -0.013 C 
HETATM   26  C   UNL     1       4.765  26.671  49.866  1.00  0.00     0.014 C 
HETATM   27  C   UNL     1       5.119  27.160  47.430  1.00  0.00     0.009 C 
HETATM   28  C   UNL     1       5.006  28.666  47.708  1.00  0.00    -0.013 C 
HETATM   29  C   UNL     1       5.495  28.955  49.137  1.00  0.00     0.014 C 
ENDBRANCH  19  20
ENDBRANCH   2  19
TORSDOF 4
ENDMDL
MODEL 4
REMARK VINA RESULT:      -9.2      7.747     10.008
REMARK  4 active torsions:
REMARK  status: ('A' for Active; 'I' for Inactive)
REMARK    1  A    between atoms: C_8  and  C_9 
REMARK       I    between atoms: C_9  and  N_10 
REMARK    2  A    between atoms: N_10  and  N_11 
REMARK       I    between atoms: N_11  and  C_12 
REMARK    3  A    between atoms: C_12  and  C_13 
REMARK    4  A    between atoms: C_13  and  C_14 
ROOT
HETATM    1  N   UNL     1       6.717  30.405  57.691  1.00  0.00    -0.267 N 
HETATM    2  C   UNL     1       7.609  29.353  57.785  1.00  0.00     0.236 C 
HETATM    3  O   UNL     1       8.080  28.984  58.857  1.00  0.00    -0.272 OA
HETATM    4  H   UNL     1       6.157  30.576  56.857  1.00  0.00     0.190 HD
ENDROOT
BRANCH   1   5
HETATM    5  N   UNL     1       6.247  30.968  58.880  1.00  0.00    -0.262 N 
HETATM    6  C   UNL     1       6.929  32.019  59.463  1.00  0.00     0.291 C 
HETATM    7  O   UNL     1       8.025  32.405  59.056  1.00  0.00    -0.264 OA
HETATM    8  H   UNL     1       5.280  30.784  59.157  1.00  0.00     0.190 HD
BRANCH   6   9
HETATM    9  C   UNL     1       6.213  32.616  60.599  1.00  0.00     0.158 A 
HETATM   10  C   UNL     1       6.695  32.800  61.928  1.00  0.00     0.028 A 
HETATM   11  C   UNL     1       7.890  32.530  62.623  1.00  0.00     0.016 A 
HETATM   12  C   UNL     1       5.642  33.393  62.616  1.00  0.00     0.063 A 
HETATM   13  C   UNL     1       7.979  32.866  63.979  1.00  0.00     0.001 A 
HETATM   14  C   UNL     1       6.904  33.460  64.640  1.00  0.00     0.002 A 
HETATM   15  C   UNL     1       5.708  33.738  63.970  1.00  0.00     0.032 A 
HETATM   16  N   UNL     1       4.641  33.529  61.695  1.00  0.00    -0.277 N 
HETATM   17  H   UNL     1       3.720  33.927  61.842  1.00  0.00     0.189 HD
HETATM   18  N   UNL     1       4.947  33.071  60.470  1.00  0.00    -0.168 NA
ENDBRANCH   6   9
ENDBRANCH   1   5
BRANCH   2  19
HETATM   19  C   UNL     1       7.939  28.747  56.429  1.00  0.00     0.114 C 
BRANCH  19  20
HETATM   20  C   UNL     1       7.400  27.330  56.135  1.00  0.00    -0.031 C 
HETATM   21  C   UNL     1       5.909  27.183  56.536  1.00  0.00     0.014 C 
HETATM   22  C   UNL     1       5.384  25.782  56.177  1.00  0.00    -0.013 C 
HETATM   23  C   UNL     1       6.223  24.723  56.911  1.00  0.00     0.009 C 
HETATM   24  C   UNL     1       5.505  25.566  54.662  1.00  0.00     0.009 C 
HETATM   25  C   UNL     1       7.698  24.829  56.486  1.00  0.00    -0.013 C 
HETATM   26  C   UNL     1       8.230  26.228  56.844  1.00  0.00     0.014 C 
HETATM   27  C   UNL     1       7.805  24.618  54.967  1.00  0.00     0.009 C 
HETATM   28  C   UNL     1       6.975  25.681  54.232  1.00  0.00    -0.013 C 
HETATM   29  C   UNL     1       7.502  27.078  54.602  1.00  0.00     0.014 C 
ENDBRANCH  19  20
ENDBRANCH   2  19
TORSDOF 4
ENDMDL
MODEL 5
REMARK VINA RESULT:      -9.0      6.669      8.396
REMARK  4 active torsions:
REMARK  status: ('A' for Active; 'I' for Inactive)
REMARK    1  A    between atoms: C_8  and  C_9 
REMARK       I    between atoms: C_9  and  N_10 
REMARK    2  A    between atoms: N_10  and  N_11 
REMARK       I    between atoms: N_11  and  C_12 
REMARK    3  A    between atoms: C_12  and  C_13 
REMARK    4  A    between atoms: C_13  and  C_14 
ROOT
HETATM    1  N   UNL     1       7.442  29.632  56.471  1.00  0.00    -0.267 N 
HETATM    2  C   UNL     1       6.656  28.510  56.282  1.00  0.00     0.236 C 
HETATM    3  O   UNL     1       6.458  27.689  57.173  1.00  0.00    -0.272 OA
HETATM    4  H   UNL     1       7.434  30.421  55.826  1.00  0.00     0.190 HD
ENDROOT
BRANCH   1   5
HETATM    5  N   UNL     1       7.908  29.891  57.762  1.00  0.00    -0.262 N 
HETATM    6  C   UNL     1       7.411  30.967  58.472  1.00  0.00     0.291 C 
HETATM    7  O   UNL     1       6.664  31.806  57.968  1.00  0.00    -0.264 OA
HETATM    8  H   UNL     1       8.399  29.146  58.261  1.00  0.00     0.190 HD
BRANCH   6   9
HETATM    9  C   UNL     1       7.861  30.997  59.871  1.00  0.00     0.158 A 
HETATM   10  C   UNL     1       7.442  31.892  60.899  1.00  0.00     0.028 A 
HETATM   11  C   UNL     1       6.543  32.971  61.002  1.00  0.00     0.016 A 
HETATM   12  C   UNL     1       8.163  31.513  62.025  1.00  0.00     0.063 A 
HETATM   13  C   UNL     1       6.407  33.628  62.231  1.00  0.00     0.001 A 
HETATM   14  C   UNL     1       7.147  33.223  63.342  1.00  0.00     0.002 A 
HETATM   15  C   UNL     1       8.044  32.153  63.263  1.00  0.00     0.032 A 
HETATM   16  N   UNL     1       8.932  30.457  61.622  1.00  0.00    -0.277 N 
HETATM   17  H   UNL     1       9.587  29.923  62.184  1.00  0.00     0.189 HD
HETATM   18  N   UNL     1       8.779  30.118  60.331  1.00  0.00    -0.168 NA
ENDBRANCH   6   9
ENDBRANCH   1   5
BRANCH   2  19
HETATM   19  C   UNL     1       6.108  28.416  54.866  1.00  0.00     0.114 C 
BRANCH  19  20
HETATM   20  C   UNL     1       6.247  27.059  54.141  1.00  0.00    -0.031 C 
HETATM   21  C   UNL     1       5.112  26.077  54.528  1.00  0.00     0.014 C 
HETATM   22  C   UNL     1       5.242  24.758  53.746  1.00  0.00    -0.013 C 
HETATM   23  C   UNL     1       6.607  24.119  54.054  1.00  0.00     0.009 C 
HETATM   24  C   UNL     1       5.145  25.047  52.241  1.00  0.00     0.009 C 
HETATM   25  C   UNL     1       7.743  25.066  53.631  1.00  0.00    -0.013 C 
HETATM   26  C   UNL     1       7.618  26.387  54.411  1.00  0.00     0.014 C 
HETATM   27  C   UNL     1       7.630  25.353  52.125  1.00  0.00     0.009 C 
HETATM   28  C   UNL     1       6.272  26.001  51.817  1.00  0.00    -0.013 C 
HETATM   29  C   UNL     1       6.146  27.314  52.608  1.00  0.00     0.014 C 
ENDBRANCH  19  20
ENDBRANCH   2  19
TORSDOF 4
ENDMDL
MODEL 6
REMARK VINA RESULT:      -8.5      2.817      8.696
REMARK  4 active torsions:
REMARK  status: ('A' for Active; 'I' for Inactive)
REMARK    1  A    between atoms: C_8  and  C_9 
REMARK       I    between atoms: C_9  and  N_10 
REMARK    2  A    between atoms: N_10  and  N_11 
REMARK       I    between atoms: N_11  and  C_12 
REMARK    3  A    between atoms: C_12  and  C_13 
REMARK    4  A    between atoms: C_13  and  C_14 
ROOT
HETATM    1  N   UNL     1       5.642  26.237  51.043  1.00  0.00    -0.267 N 
HETATM    2  C   UNL     1       5.611  25.315  52.072  1.00  0.00     0.236 C 
HETATM    3  O   UNL     1       4.656  24.566  52.255  1.00  0.00    -0.272 OA
HETATM    4  H   UNL     1       6.500  26.700  50.747  1.00  0.00     0.190 HD
ENDROOT
BRANCH   1   5
HETATM    5  N   UNL     1       4.601  26.209  50.111  1.00  0.00    -0.262 N 
HETATM    6  C   UNL     1       4.567  27.134  49.085  1.00  0.00     0.291 C 
HETATM    7  O   UNL     1       5.347  28.084  49.024  1.00  0.00    -0.264 OA
HETATM    8  H   UNL     1       4.035  25.360  50.039  1.00  0.00     0.190 HD
BRANCH   6   9
HETATM    9  C   UNL     1       3.520  26.860  48.092  1.00  0.00     0.158 A 
HETATM   10  C   UNL     1       2.394  27.674  47.772  1.00  0.00     0.028 A 
HETATM   11  C   UNL     1       1.878  28.911  48.204  1.00  0.00     0.016 A 
HETATM   12  C   UNL     1       1.710  26.974  46.784  1.00  0.00     0.063 A 
HETATM   13  C   UNL     1       0.696  29.394  47.629  1.00  0.00     0.001 A 
HETATM   14  C   UNL     1       0.034  28.666  46.641  1.00  0.00     0.002 A 
HETATM   15  C   UNL     1       0.529  27.436  46.195  1.00  0.00     0.032 A 
HETATM   16  N   UNL     1       2.440  25.837  46.578  1.00  0.00    -0.277 N 
HETATM   17  H   UNL     1       2.240  25.088  45.922  1.00  0.00     0.189 HD
HETATM   18  N   UNL     1       3.535  25.732  47.348  1.00  0.00    -0.168 NA
ENDBRANCH   6   9
ENDBRANCH   1   5
BRANCH   2  19
HETATM   19  C   UNL     1       6.863  25.365  52.935  1.00  0.00     0.114 C 
BRANCH  19  20
HETATM   20  C   UNL     1       6.677  25.679  54.436  1.00  0.00    -0.031 C 
HETATM   21  C   UNL     1       6.697  24.394  55.303  1.00  0.00     0.014 C 
HETATM   22  C   UNL     1       6.570  24.743  56.797  1.00  0.00    -0.013 C 
HETATM   23  C   UNL     1       5.255  25.505  57.030  1.00  0.00     0.009 C 
HETATM   24  C   UNL     1       7.752  25.631  57.214  1.00  0.00     0.009 C 
HETATM   25  C   UNL     1       5.244  26.806  56.209  1.00  0.00    -0.013 C 
HETATM   26  C   UNL     1       5.369  26.463  54.713  1.00  0.00     0.014 C 
HETATM   27  C   UNL     1       6.435  27.682  56.630  1.00  0.00     0.009 C 
HETATM   28  C   UNL     1       7.750  26.926  56.389  1.00  0.00    -0.013 C 
HETATM   29  C   UNL     1       7.865  26.575  54.896  1.00  0.00     0.014 C 
ENDBRANCH  19  20
ENDBRANCH   2  19
TORSDOF 4
ENDMDL
MODEL 7
REMARK VINA RESULT:      -8.5      1.652      2.479
REMARK  4 active torsions:
REMARK  status: ('A' for Active; 'I' for Inactive)
REMARK    1  A    between atoms: C_8  and  C_9 
REMARK       I    between atoms: C_9  and  N_10 
REMARK    2  A    between atoms: N_10  and  N_11 
REMARK       I    between atoms: N_11  and  C_12 
REMARK    3  A    between atoms: C_12  and  C_13 
REMARK    4  A    between atoms: C_13  and  C_14 
ROOT
HETATM    1  N   UNL     1       6.250  27.056  51.492  1.00  0.00    -0.267 N 
HETATM    2  C   UNL     1       5.382  26.881  50.431  1.00  0.00     0.236 C 
HETATM    3  O   UNL     1       4.727  25.855  50.279  1.00  0.00    -0.272 OA
HETATM    4  H   UNL     1       6.624  27.968  51.751  1.00  0.00     0.190 HD
ENDROOT
BRANCH   1   5
HETATM    5  N   UNL     1       6.270  26.074  52.486  1.00  0.00    -0.262 N 
HETATM    6  C   UNL     1       7.349  25.218  52.589  1.00  0.00     0.291 C 
HETATM    7  O   UNL     1       8.252  25.185  51.753  1.00  0.00    -0.264 OA
HETATM    8  H   UNL     1       5.628  26.169  53.277  1.00  0.00     0.190 HD
BRANCH   6   9
HETATM    9  C   UNL     1       7.304  24.370  53.789  1.00  0.00     0.158 A 
HETATM   10  C   UNL     1       7.624  22.984  53.884  1.00  0.00     0.028 A 
HETATM   11  C   UNL     1       8.061  21.978  53.000  1.00  0.00     0.016 A 
HETATM   12  C   UNL     1       7.414  22.654  55.218  1.00  0.00     0.063 A 
HETATM   13  C   UNL     1       8.267  20.683  53.490  1.00  0.00     0.001 A 
HETATM   14  C   UNL     1       8.046  20.386  54.834  1.00  0.00     0.002 A 
HETATM   15  C   UNL     1       7.613  21.368  55.731  1.00  0.00     0.032 A 
HETATM   16  N   UNL     1       7.005  23.814  55.815  1.00  0.00    -0.277 N 
HETATM   17  H   UNL     1       6.762  23.950  56.791  1.00  0.00     0.189 HD
HETATM   18  N   UNL     1       6.925  24.868  54.987  1.00  0.00    -0.168 NA
ENDBRANCH   6   9
ENDBRANCH   1   5
BRANCH   2  19
HETATM   19  C   UNL     1       5.363  28.079  49.492  1.00  0.00     0.114 C 
BRANCH  19  20
HETATM   20  C   UNL     1       3.988  28.542  48.961  1.00  0.00    -0.031 C 
HETATM   21  C   UNL     1       4.035  29.995  48.424  1.00  0.00     0.014 C 
HETATM   22  C   UNL     1       2.669  30.407  47.847  1.00  0.00    -0.013 C 
HETATM   23  C   UNL     1       1.600  30.297  48.948  1.00  0.00     0.009 C 
HETATM   24  C   UNL     1       2.302  29.470  46.688  1.00  0.00     0.009 C 
HETATM   25  C   UNL     1       1.513  28.848  49.457  1.00  0.00    -0.013 C 
HETATM   26  C   UNL     1       2.877  28.430  50.037  1.00  0.00     0.014 C 
HETATM   27  C   UNL     1       1.153  27.919  48.286  1.00  0.00     0.009 C 
HETATM   28  C   UNL     1       2.224  28.020  47.190  1.00  0.00    -0.013 C 
HETATM   29  C   UNL     1       3.587  27.614  47.776  1.00  0.00     0.014 C 
ENDBRANCH  19  20
ENDBRANCH   2  19
TORSDOF 4
ENDMDL
MODEL 8
REMARK VINA RESULT:      -8.5      1.311      2.410
REMARK  4 active torsions:
REMARK  status: ('A' for Active; 'I' for Inactive)
REMARK    1  A    between atoms: C_8  and  C_9 
REMARK       I    between atoms: C_9  and  N_10 
REMARK    2  A    between atoms: N_10  and  N_11 
REMARK       I    between atoms: N_11  and  C_12 
REMARK    3  A    between atoms: C_12  and  C_13 
REMARK    4  A    between atoms: C_13  and  C_14 
ROOT
HETATM    1  N   UNL     1       4.066  26.863  52.991  1.00  0.00    -0.267 N 
HETATM    2  C   UNL     1       4.609  27.909  52.268  1.00  0.00     0.236 C 
HETATM    3  O   UNL     1       5.784  28.245  52.379  1.00  0.00    -0.272 OA
HETATM    4  H   UNL     1       3.173  26.436  52.751  1.00  0.00     0.190 HD
ENDROOT
BRANCH   1   5
HETATM    5  N   UNL     1       4.932  26.092  53.771  1.00  0.00    -0.262 N 
HETATM    6  C   UNL     1       5.443  24.910  53.271  1.00  0.00     0.291 C 
HETATM    7  O   UNL     1       5.064  24.421  52.208  1.00  0.00    -0.264 OA
HETATM    8  H   UNL     1       5.383  26.532  54.577  1.00  0.00     0.190 HD
BRANCH   6   9
HETATM    9  C   UNL     1       6.474  24.314  54.133  1.00  0.00     0.158 A 
HETATM   10  C   UNL     1       6.991  24.834  55.355  1.00  0.00     0.028 A 
HETATM   11  C   UNL     1       6.767  25.976  56.149  1.00  0.00     0.016 A 
HETATM   12  C   UNL     1       7.941  23.908  55.771  1.00  0.00     0.063 A 
HETATM   13  C   UNL     1       7.507  26.142  57.326  1.00  0.00     0.001 A 
HETATM   14  C   UNL     1       8.454  25.195  57.713  1.00  0.00     0.002 A 
HETATM   15  C   UNL     1       8.692  24.052  56.941  1.00  0.00     0.032 A 
HETATM   16  N   UNL     1       7.931  22.929  54.816  1.00  0.00    -0.277 N 
HETATM   17  H   UNL     1       8.498  22.088  54.792  1.00  0.00     0.189 HD
HETATM   18  N   UNL     1       7.061  23.139  53.814  1.00  0.00    -0.168 NA
ENDBRANCH   6   9
ENDBRANCH   1   5
BRANCH   2  19
HETATM   19  C   UNL     1       3.588  28.581  51.363  1.00  0.00     0.114 C 
BRANCH  19  20
HETATM   20  C   UNL     1       3.750  28.382  49.839  1.00  0.00    -0.031 C 
HETATM   21  C   UNL     1       4.408  27.020  49.501  1.00  0.00     0.014 C 
HETATM   22  C   UNL     1       4.502  26.824  47.977  1.00  0.00    -0.013 C 
HETATM   23  C   UNL     1       5.334  27.966  47.370  1.00  0.00     0.009 C 
HETATM   24  C   UNL     1       3.090  26.848  47.373  1.00  0.00     0.009 C 
HETATM   25  C   UNL     1       4.665  29.321  47.660  1.00  0.00    -0.013 C 
HETATM   26  C   UNL     1       4.570  29.523  49.184  1.00  0.00     0.014 C 
HETATM   27  C   UNL     1       3.252  29.329  47.058  1.00  0.00     0.009 C 
HETATM   28  C   UNL     1       2.415  28.196  47.671  1.00  0.00    -0.013 C 
HETATM   29  C   UNL     1       2.333  28.395  49.194  1.00  0.00     0.014 C 
ENDBRANCH  19  20
ENDBRANCH   2  19
TORSDOF 4
ENDMDL
MODEL 9
REMARK VINA RESULT:      -8.2      7.858     10.255
REMARK  4 active torsions:
REMARK  status: ('A' for Active; 'I' for Inactive)
REMARK    1  A    between atoms: C_8  and  C_9 
REMARK       I    between atoms: C_9  and  N_10 
REMARK    2  A    between atoms: N_10  and  N_11 
REMARK       I    between atoms: N_11  and  C_12 
REMARK    3  A    between atoms: C_12  and  C_13 
REMARK    4  A    between atoms: C_13  and  C_14 
ROOT
HETATM    1  N   UNL     1       7.476  30.214  58.968  1.00  0.00    -0.267 N 
HETATM    2  C   UNL     1       8.203  30.755  60.013  1.00  0.00     0.236 C 
HETATM    3  O   UNL     1       8.960  30.082  60.705  1.00  0.00    -0.272 OA
HETATM    4  H   UNL     1       7.026  30.789  58.257  1.00  0.00     0.190 HD
ENDROOT
BRANCH   1   5
HETATM    5  N   UNL     1       7.727  28.883  58.621  1.00  0.00    -0.262 N 
HETATM    6  C   UNL     1       6.867  28.220  57.767  1.00  0.00     0.291 C 
HETATM    7  O   UNL     1       5.799  28.703  57.394  1.00  0.00    -0.264 OA
HETATM    8  H   UNL     1       8.664  28.507  58.781  1.00  0.00     0.190 HD
BRANCH   6   9
HETATM    9  C   UNL     1       7.363  26.898  57.357  1.00  0.00     0.158 A 
HETATM   10  C   UNL     1       7.413  26.361  56.038  1.00  0.00     0.028 A 
HETATM   11  C   UNL     1       7.063  26.802  54.747  1.00  0.00     0.016 A 
HETATM   12  C   UNL     1       7.952  25.087  56.185  1.00  0.00     0.063 A 
HETATM   13  C   UNL     1       7.267  25.946  53.657  1.00  0.00     0.001 A 
HETATM   14  C   UNL     1       7.809  24.675  53.840  1.00  0.00     0.002 A 
HETATM   15  C   UNL     1       8.165  24.216  55.113  1.00  0.00     0.032 A 
HETATM   16  N   UNL     1       8.187  24.949  57.525  1.00  0.00    -0.277 N 
HETATM   17  H   UNL     1       8.582  24.144  58.000  1.00  0.00     0.189 HD
HETATM   18  N   UNL     1       7.844  26.018  58.263  1.00  0.00    -0.168 NA
ENDBRANCH   6   9
ENDBRANCH   1   5
BRANCH   2  19
HETATM   19  C   UNL     1       7.931  32.240  60.201  1.00  0.00     0.114 C 
BRANCH  19  20
HETATM   20  C   UNL     1       6.745  32.634  61.108  1.00  0.00    -0.031 C 
HETATM   21  C   UNL     1       7.013  33.958  61.869  1.00  0.00     0.014 C 
HETATM   22  C   UNL     1       5.792  34.356  62.717  1.00  0.00    -0.013 C 
HETATM   23  C   UNL     1       5.486  33.234  63.723  1.00  0.00     0.009 C 
HETATM   24  C   UNL     1       4.578  34.559  61.798  1.00  0.00     0.009 C 
HETATM   25  C   UNL     1       5.173  31.925  62.977  1.00  0.00    -0.013 C 
HETATM   26  C   UNL     1       6.392  31.521  62.128  1.00  0.00     0.014 C 
HETATM   27  C   UNL     1       3.962  32.144  62.056  1.00  0.00     0.009 C 
HETATM   28  C   UNL     1       4.269  33.257  61.044  1.00  0.00    -0.013 C 
HETATM   29  C   UNL     1       5.495  32.855  60.206  1.00  0.00     0.014 C 
ENDBRANCH  19  20
ENDBRANCH   2  19
TORSDOF 4
ENDMDL
MODEL 10
REMARK VINA RESULT:      -8.0      2.938      8.744
REMARK  4 active torsions:
REMARK  status: ('A' for Active; 'I' for Inactive)
REMARK    1  A    between atoms: C_8  and  C_9 
REMARK       I    between atoms: C_9  and  N_10 
REMARK    2  A    between atoms: N_10  and  N_11 
REMARK       I    between atoms: N_11  and  C_12 
REMARK    3  A    between atoms: C_12  and  C_13 
REMARK    4  A    between atoms: C_13  and  C_14 
ROOT
HETATM    1  N   UNL     1       4.348  25.943  50.145  1.00  0.00    -0.267 N 
HETATM    2  C   UNL     1       5.355  26.576  50.848  1.00  0.00     0.236 C 
HETATM    3  O   UNL     1       5.545  27.787  50.779  1.00  0.00    -0.272 OA
HETATM    4  H   UNL     1       4.041  24.995  50.359  1.00  0.00     0.190 HD
ENDROOT
BRANCH   1   5
HETATM    5  N   UNL     1       3.443  26.743  49.441  1.00  0.00    -0.262 N 
HETATM    6  C   UNL     1       3.242  26.532  48.091  1.00  0.00     0.291 C 
HETATM    7  O   UNL     1       3.929  25.752  47.431  1.00  0.00    -0.264 OA
HETATM    8  H   UNL     1       2.755  27.283  49.972  1.00  0.00     0.190 HD
BRANCH   6   9
HETATM    9  C   UNL     1       2.134  27.325  47.539  1.00  0.00     0.158 A 
HETATM   10  C   UNL     1       2.190  28.654  47.026  1.00  0.00     0.028 A 
HETATM   11  C   UNL     1       3.186  29.635  46.850  1.00  0.00     0.016 A 
HETATM   12  C   UNL     1       0.887  28.948  46.639  1.00  0.00     0.063 A 
HETATM   13  C   UNL     1       2.833  30.871  46.294  1.00  0.00     0.001 A 
HETATM   14  C   UNL     1       1.516  31.134  45.918  1.00  0.00     0.002 A 
HETATM   15  C   UNL     1       0.512  30.174  46.081  1.00  0.00     0.032 A 
HETATM   16  N   UNL     1       0.165  27.824  46.925  1.00  0.00    -0.277 N 
HETATM   17  H   UNL     1      -0.828  27.676  46.772  1.00  0.00     0.189 HD
HETATM   18  N   UNL     1       0.880  26.826  47.469  1.00  0.00    -0.168 NA
ENDBRANCH   6   9
ENDBRANCH   1   5
BRANCH   2  19
HETATM   19  C   UNL     1       6.186  25.605  51.673  1.00  0.00     0.114 C 
BRANCH  19  20
HETATM   20  C   UNL     1       6.299  25.879  53.190  1.00  0.00    -0.031 C 
HETATM   21  C   UNL     1       5.026  26.564  53.750  1.00  0.00     0.014 C 
HETATM   22  C   UNL     1       5.143  26.770  55.271  1.00  0.00    -0.013 C 
HETATM   23  C   UNL     1       6.374  27.640  55.572  1.00  0.00     0.009 C 
HETATM   24  C   UNL     1       5.305  25.406  55.957  1.00  0.00     0.009 C 
HETATM   25  C   UNL     1       7.649  26.948  55.061  1.00  0.00    -0.013 C 
HETATM   26  C   UNL     1       7.539  26.741  53.539  1.00  0.00     0.014 C 
HETATM   27  C   UNL     1       7.796  25.582  55.749  1.00  0.00     0.009 C 
HETATM   28  C   UNL     1       6.572  24.707  55.442  1.00  0.00    -0.013 C 
HETATM   29  C   UNL     1       6.458  24.513  53.920  1.00  0.00     0.014 C 
ENDBRANCH  19  20
ENDBRANCH   2  19
TORSDOF 4
ENDMDL
