MODEL 1
REMARK VINA RESULT:     -10.0      0.000      0.000
REMARK  6 active torsions:
REMARK  status: ('A' for Active; 'I' for Inactive)
REMARK    1  A    between atoms: C_2  and  N_3 
REMARK       I    between atoms: N_3  and  C_4 
REMARK       I    between atoms: C_4  and  N_5 
REMARK    2  A    between atoms: N_5  and  C_6 
REMARK    3  A    between atoms: C_8  and  O_9 
REMARK    4  A    between atoms: O_9  and  C_10 
REMARK    5  A    between atoms: C_10  and  C_11 
REMARK    6  A    between atoms: C_11  and  N_12 
ROOT
HETATM    1  N   UNL     1       6.923  26.771  56.091  1.00  0.00    -0.333 N 
HETATM    2  C   UNL     1       6.444  27.893  55.481  1.00  0.00     0.321 C 
HETATM    3  N   UNL     1       7.295  28.959  55.436  1.00  0.00    -0.309 N 
HETATM    4  O   UNL     1       5.358  27.958  54.916  1.00  0.00    -0.247 OA
HETATM    5  H   UNL     1       7.932  26.726  56.126  1.00  0.00     0.165 HD
HETATM    6  H   UNL     1       7.032  29.626  54.719  1.00  0.00     0.170 HD
ENDROOT
BRANCH   3   7
HETATM    7  C   UNL     1       8.311  29.357  56.322  1.00  0.00     0.039 A 
HETATM    8  C   UNL     1       8.067  29.746  57.642  1.00  0.00     0.066 A 
HETATM    9  C   UNL     1       9.118  30.211  58.434  1.00  0.00     0.070 A 
HETATM   10  C   UNL     1      10.420  30.241  57.946  1.00  0.00     0.037 A 
HETATM   11  C   UNL     1      10.668  29.862  56.629  1.00  0.00     0.005 A 
HETATM   12  C   UNL     1       9.614  29.440  55.814  1.00  0.00     0.030 A 
BRANCH   9  13
HETATM   13  O   UNL     1       8.908  30.586  59.731  1.00  0.00    -0.349 OA
BRANCH  13  14
HETATM   14  C   UNL     1       8.839  32.015  59.886  1.00  0.00     0.197 C 
BRANCH  14  15
HETATM   15  C   UNL     1       7.436  32.383  60.343  1.00  0.00     0.177 C 
BRANCH  15  16
HETATM   16  N   UNL     1       7.387  32.709  61.753  1.00  0.00    -0.279 N 
HETATM   17  N   UNL     1       6.452  33.565  62.207  1.00  0.00    -0.185 NA
HETATM   18  C   UNL     1       6.721  33.665  63.511  1.00  0.00     0.140 A 
HETATM   19  C   UNL     1       7.816  32.871  63.894  1.00  0.00     0.040 A 
HETATM   20  C   UNL     1       8.221  32.255  62.734  1.00  0.00     0.113 A 
ENDBRANCH  15  16
ENDBRANCH  14  15
ENDBRANCH  13  14
ENDBRANCH   9  13
ENDBRANCH   3   7
BRANCH   1  21
HETATM   21  C   UNL     1       6.189  25.487  56.171  1.00  0.00     0.039 C 
HETATM   22  C   UNL     1       4.960  25.613  57.084  1.00  0.00     0.039 C 
HETATM   23  C   UNL     1       7.132  24.335  56.642  1.00  0.00     0.070 C 
HETATM   24  C   UNL     1       7.594  23.730  55.348  1.00  0.00    -0.049 A 
HETATM   25  C   UNL     1       6.801  24.149  54.279  1.00  0.00    -0.049 A 
HETATM   26  C   UNL     1       8.610  22.808  55.160  1.00  0.00     0.007 A 
HETATM   27  C   UNL     1       5.716  25.069  54.740  1.00  0.00     0.070 C 
HETATM   28  C   UNL     1       7.004  23.657  53.000  1.00  0.00     0.007 A 
HETATM   29  C   UNL     1       8.031  22.735  52.798  1.00  0.00     0.001 A 
HETATM   30  C   UNL     1       8.830  22.313  53.871  1.00  0.00     0.001 A 
ENDBRANCH   1  21
TORSDOF 6
ENDMDL
MODEL 2
REMARK VINA RESULT:      -8.7      2.486     10.058
REMARK  6 active torsions:
REMARK  status: ('A' for Active; 'I' for Inactive)
REMARK    1  A    between atoms: C_2  and  N_3 
REMARK       I    between atoms: N_3  and  C_4 
REMARK       I    between atoms: C_4  and  N_5 
REMARK    2  A    between atoms: N_5  and  C_6 
REMARK    3  A    between atoms: C_8  and  O_9 
REMARK    4  A    between atoms: O_9  and  C_10 
REMARK    5  A    between atoms: C_10  and  C_11 
REMARK    6  A    between atoms: C_11  and  N_12 
ROOT
HETATM    1  N   UNL     1       6.975  31.564  60.661  1.00  0.00    -0.333 N 
HETATM    2  C   UNL     1       7.908  31.934  59.737  1.00  0.00     0.321 C 
HETATM    3  N   UNL     1       7.790  31.360  58.504  1.00  0.00    -0.309 N 
HETATM    4  O   UNL     1       8.765  32.790  59.928  1.00  0.00    -0.247 OA
HETATM    5  H   UNL     1       6.124  31.200  60.256  1.00  0.00     0.165 HD
HETATM    6  H   UNL     1       8.279  31.888  57.790  1.00  0.00     0.170 HD
ENDROOT
BRANCH   3   7
HETATM    7  C   UNL     1       7.288  30.103  58.123  1.00  0.00     0.039 A 
HETATM    8  C   UNL     1       8.053  28.934  58.148  1.00  0.00     0.066 A 
HETATM    9  C   UNL     1       7.511  27.740  57.673  1.00  0.00     0.070 A 
HETATM   10  C   UNL     1       6.195  27.681  57.224  1.00  0.00     0.037 A 
HETATM   11  C   UNL     1       5.430  28.845  57.190  1.00  0.00     0.005 A 
HETATM   12  C   UNL     1       5.982  30.055  57.619  1.00  0.00     0.030 A 
BRANCH   9  13
HETATM   13  O   UNL     1       8.234  26.580  57.697  1.00  0.00    -0.349 OA
BRANCH  13  14
HETATM   14  C   UNL     1       7.455  25.438  57.300  1.00  0.00     0.197 C 
BRANCH  14  15
HETATM   15  C   UNL     1       8.399  24.268  57.067  1.00  0.00     0.177 C 
BRANCH  15  16
HETATM   16  N   UNL     1       8.216  23.668  55.763  1.00  0.00    -0.279 N 
HETATM   17  N   UNL     1       9.114  22.773  55.308  1.00  0.00    -0.185 NA
HETATM   18  C   UNL     1       8.666  22.466  54.089  1.00  0.00     0.140 A 
HETATM   19  C   UNL     1       7.482  23.152  53.765  1.00  0.00     0.040 A 
HETATM   20  C   UNL     1       7.209  23.916  54.875  1.00  0.00     0.113 A 
ENDBRANCH  15  16
ENDBRANCH  14  15
ENDBRANCH  13  14
ENDBRANCH   9  13
ENDBRANCH   3   7
BRANCH   1  21
HETATM   21  C   UNL     1       6.883  32.131  62.025  1.00  0.00     0.039 C 
HETATM   22  C   UNL     1       8.054  31.656  62.899  1.00  0.00     0.039 C 
HETATM   23  C   UNL     1       5.508  31.785  62.680  1.00  0.00     0.070 C 
HETATM   24  C   UNL     1       4.674  32.993  62.366  1.00  0.00    -0.049 A 
HETATM   25  C   UNL     1       5.465  34.062  61.945  1.00  0.00    -0.049 A 
HETATM   26  C   UNL     1       3.306  33.141  62.521  1.00  0.00     0.007 A 
HETATM   27  C   UNL     1       6.915  33.693  61.942  1.00  0.00     0.070 C 
HETATM   28  C   UNL     1       4.910  35.301  61.671  1.00  0.00     0.007 A 
HETATM   29  C   UNL     1       3.531  35.457  61.815  1.00  0.00     0.001 A 
HETATM   30  C   UNL     1       2.733  34.384  62.238  1.00  0.00     0.001 A 
ENDBRANCH   1  21
TORSDOF 6
ENDMDL
MODEL 3
REMARK VINA RESULT:      -8.6      4.244     11.068
REMARK  6 active torsions:
REMARK  status: ('A' for Active; 'I' for Inactive)
REMARK    1  A    between atoms: C_2  and  N_3 
REMARK       I    between atoms: N_3  and  C_4 
REMARK       I    between atoms: C_4  and  N_5 
REMARK    2  A    between atoms: N_5  and  C_6 
REMARK    3  A    between atoms: C_8  and  O_9 
REMARK    4  A    between atoms: O_9  and  C_10 
REMARK    5  A    between atoms: C_10  and  C_11 
REMARK    6  A    between atoms: C_11  and  N_12 
ROOT
HETATM    1  N   UNL     1       5.160  34.753  63.487  1.00  0.00    -0.333 N 
HETATM    2  C   UNL     1       4.507  33.559  63.384  1.00  0.00     0.321 C 
HETATM    3  N   UNL     1       5.281  32.479  63.072  1.00  0.00    -0.309 N 
HETATM    4  O   UNL     1       3.317  33.403  63.633  1.00  0.00    -0.247 OA
HETATM    5  H   UNL     1       6.150  34.660  63.669  1.00  0.00     0.165 HD
HETATM    6  H   UNL     1       4.830  31.605  63.319  1.00  0.00     0.170 HD
ENDROOT
BRANCH   3   7
HETATM    7  C   UNL     1       6.461  32.386  62.313  1.00  0.00     0.039 A 
HETATM    8  C   UNL     1       6.472  32.364  60.916  1.00  0.00     0.066 A 
HETATM    9  C   UNL     1       7.676  32.183  60.235  1.00  0.00     0.070 A 
HETATM   10  C   UNL     1       8.879  32.078  60.927  1.00  0.00     0.037 A 
HETATM   11  C   UNL     1       8.872  32.091  62.319  1.00  0.00     0.005 A 
HETATM   12  C   UNL     1       7.665  32.225  63.010  1.00  0.00     0.030 A 
BRANCH   9  13
HETATM   13  O   UNL     1       7.717  32.170  58.869  1.00  0.00    -0.349 OA
BRANCH  13  14
HETATM   14  C   UNL     1       6.865  31.158  58.303  1.00  0.00     0.197 C 
BRANCH  14  15
HETATM   15  C   UNL     1       7.598  29.825  58.358  1.00  0.00     0.177 C 
BRANCH  15  16
HETATM   16  N   UNL     1       8.765  29.807  57.503  1.00  0.00    -0.279 N 
HETATM   17  N   UNL     1       8.637  29.461  56.207  1.00  0.00    -0.185 NA
HETATM   18  C   UNL     1       9.887  29.510  55.741  1.00  0.00     0.140 A 
HETATM   19  C   UNL     1      10.812  29.895  56.729  1.00  0.00     0.040 A 
HETATM   20  C   UNL     1      10.053  30.090  57.858  1.00  0.00     0.113 A 
ENDBRANCH  15  16
ENDBRANCH  14  15
ENDBRANCH  13  14
ENDBRANCH   9  13
ENDBRANCH   3   7
BRANCH   1  21
HETATM   21  C   UNL     1       4.517  36.023  63.895  1.00  0.00     0.039 C 
HETATM   22  C   UNL     1       3.922  35.909  65.307  1.00  0.00     0.039 C 
HETATM   23  C   UNL     1       3.435  36.457  62.856  1.00  0.00     0.070 C 
HETATM   24  C   UNL     1       4.191  37.392  61.957  1.00  0.00    -0.049 A 
HETATM   25  C   UNL     1       5.398  37.787  62.532  1.00  0.00    -0.049 A 
HETATM   26  C   UNL     1       3.782  37.909  60.738  1.00  0.00     0.007 A 
HETATM   27  C   UNL     1       5.579  37.170  63.884  1.00  0.00     0.070 C 
HETATM   28  C   UNL     1       6.224  38.706  61.907  1.00  0.00     0.007 A 
HETATM   29  C   UNL     1       5.827  39.225  60.675  1.00  0.00     0.001 A 
HETATM   30  C   UNL     1       4.613  38.829  60.093  1.00  0.00     0.001 A 
ENDBRANCH   1  21
TORSDOF 6
ENDMDL
MODEL 4
REMARK VINA RESULT:      -8.4      5.597      9.116
REMARK  6 active torsions:
REMARK  status: ('A' for Active; 'I' for Inactive)
REMARK    1  A    between atoms: C_2  and  N_3 
REMARK       I    between atoms: N_3  and  C_4 
REMARK       I    between atoms: C_4  and  N_5 
REMARK    2  A    between atoms: N_5  and  C_6 
REMARK    3  A    between atoms: C_8  and  O_9 
REMARK    4  A    between atoms: O_9  and  C_10 
REMARK    5  A    between atoms: C_10  and  C_11 
REMARK    6  A    between atoms: C_11  and  N_12 
ROOT
HETATM    1  N   UNL     1       5.331  28.934  51.151  1.00  0.00    -0.333 N 
HETATM    2  C   UNL     1       4.879  29.547  52.283  1.00  0.00     0.321 C 
HETATM    3  N   UNL     1       5.246  28.968  53.464  1.00  0.00    -0.309 N 
HETATM    4  O   UNL     1       4.255  30.602  52.292  1.00  0.00    -0.247 OA
HETATM    5  H   UNL     1       6.146  28.355  51.299  1.00  0.00     0.165 HD
HETATM    6  H   UNL     1       5.169  29.612  54.243  1.00  0.00     0.170 HD
ENDROOT
BRANCH   3   7
HETATM    7  C   UNL     1       5.507  27.624  53.782  1.00  0.00     0.039 A 
HETATM    8  C   UNL     1       6.570  27.224  54.597  1.00  0.00     0.066 A 
HETATM    9  C   UNL     1       6.817  25.865  54.796  1.00  0.00     0.070 A 
HETATM   10  C   UNL     1       5.986  24.898  54.239  1.00  0.00     0.037 A 
HETATM   11  C   UNL     1       4.930  25.292  53.420  1.00  0.00     0.005 A 
HETATM   12  C   UNL     1       4.705  26.649  53.177  1.00  0.00     0.030 A 
BRANCH   9  13
HETATM   13  O   UNL     1       7.842  25.447  55.598  1.00  0.00    -0.349 OA
BRANCH  13  14
HETATM   14  C   UNL     1       7.555  24.197  56.251  1.00  0.00     0.197 C 
BRANCH  14  15
HETATM   15  C   UNL     1       8.725  23.253  56.018  1.00  0.00     0.177 C 
BRANCH  15  16
HETATM   16  N   UNL     1       8.443  22.276  54.989  1.00  0.00    -0.279 N 
HETATM   17  N   UNL     1       7.896  21.092  55.326  1.00  0.00    -0.185 NA
HETATM   18  C   UNL     1       7.815  20.438  54.164  1.00  0.00     0.140 A 
HETATM   19  C   UNL     1       8.299  21.201  53.086  1.00  0.00     0.040 A 
HETATM   20  C   UNL     1       8.690  22.391  53.651  1.00  0.00     0.113 A 
ENDBRANCH  15  16
ENDBRANCH  14  15
ENDBRANCH  13  14
ENDBRANCH   9  13
ENDBRANCH   3   7
BRANCH   1  21
HETATM   21  C   UNL     1       5.112  29.450  49.780  1.00  0.00     0.039 C 
HETATM   22  C   UNL     1       5.845  30.784  49.571  1.00  0.00     0.039 C 
HETATM   23  C   UNL     1       3.587  29.584  49.473  1.00  0.00     0.070 C 
HETATM   24  C   UNL     1       3.267  28.285  48.792  1.00  0.00    -0.049 A 
HETATM   25  C   UNL     1       4.426  27.623  48.388  1.00  0.00    -0.049 A 
HETATM   26  C   UNL     1       2.015  27.773  48.491  1.00  0.00     0.007 A 
HETATM   27  C   UNL     1       5.648  28.410  48.742  1.00  0.00     0.070 C 
HETATM   28  C   UNL     1       4.364  26.438  47.674  1.00  0.00     0.007 A 
HETATM   29  C   UNL     1       3.108  25.909  47.374  1.00  0.00     0.001 A 
HETATM   30  C   UNL     1       1.941  26.572  47.780  1.00  0.00     0.001 A 
ENDBRANCH   1  21
TORSDOF 6
ENDMDL
MODEL 5
REMARK VINA RESULT:      -8.2      2.796     10.690
REMARK  6 active torsions:
REMARK  status: ('A' for Active; 'I' for Inactive)
REMARK    1  A    between atoms: C_2  and  N_3 
REMARK       I    between atoms: N_3  and  C_4 
REMARK       I    between atoms: C_4  and  N_5 
REMARK    2  A    between atoms: N_5  and  C_6 
REMARK    3  A    between atoms: C_8  and  O_9 
REMARK    4  A    between atoms: O_9  and  C_10 
REMARK    5  A    between atoms: C_10  and  C_11 
REMARK    6  A    between atoms: C_11  and  N_12 
ROOT
HETATM    1  N   UNL     1       5.275  33.405  62.074  1.00  0.00    -0.333 N 
HETATM    2  C   UNL     1       5.173  32.080  62.384  1.00  0.00     0.321 C 
HETATM    3  N   UNL     1       6.336  31.366  62.352  1.00  0.00    -0.309 N 
HETATM    4  O   UNL     1       4.139  31.539  62.761  1.00  0.00    -0.247 OA
HETATM    5  H   UNL     1       6.205  33.781  62.198  1.00  0.00     0.165 HD
HETATM    6  H   UNL     1       6.269  30.506  62.884  1.00  0.00     0.170 HD
ENDROOT
BRANCH   3   7
HETATM    7  C   UNL     1       7.490  31.532  61.567  1.00  0.00     0.039 A 
HETATM    8  C   UNL     1       7.530  31.257  60.197  1.00  0.00     0.066 A 
HETATM    9  C   UNL     1       8.736  31.363  59.503  1.00  0.00     0.070 A 
HETATM   10  C   UNL     1       9.893  31.795  60.143  1.00  0.00     0.037 A 
HETATM   11  C   UNL     1       9.861  32.063  61.509  1.00  0.00     0.005 A 
HETATM   12  C   UNL     1       8.668  31.913  62.222  1.00  0.00     0.030 A 
BRANCH   9  13
HETATM   13  O   UNL     1       8.799  31.111  58.161  1.00  0.00    -0.349 OA
BRANCH  13  14
HETATM   14  C   UNL     1       8.947  29.709  57.871  1.00  0.00     0.197 C 
BRANCH  14  15
HETATM   15  C   UNL     1       7.782  29.272  56.997  1.00  0.00     0.177 C 
BRANCH  15  16
HETATM   16  N   UNL     1       7.707  27.833  56.864  1.00  0.00    -0.279 N 
HETATM   17  N   UNL     1       7.924  27.052  57.940  1.00  0.00    -0.185 NA
HETATM   18  C   UNL     1       7.821  25.811  57.458  1.00  0.00     0.140 A 
HETATM   19  C   UNL     1       7.530  25.795  56.082  1.00  0.00     0.040 A 
HETATM   20  C   UNL     1       7.453  27.121  55.727  1.00  0.00     0.113 A 
ENDBRANCH  15  16
ENDBRANCH  14  15
ENDBRANCH  13  14
ENDBRANCH   9  13
ENDBRANCH   3   7
BRANCH   1  21
HETATM   21  C   UNL     1       4.148  34.364  62.131  1.00  0.00     0.039 C 
HETATM   22  C   UNL     1       3.340  34.340  60.824  1.00  0.00     0.039 C 
HETATM   23  C   UNL     1       4.658  35.803  62.458  1.00  0.00     0.070 C 
HETATM   24  C   UNL     1       4.504  35.882  63.949  1.00  0.00    -0.049 A 
HETATM   25  C   UNL     1       3.691  34.855  64.432  1.00  0.00    -0.049 A 
HETATM   26  C   UNL     1       5.000  36.855  64.801  1.00  0.00     0.007 A 
HETATM   27  C   UNL     1       3.203  33.985  63.318  1.00  0.00     0.070 C 
HETATM   28  C   UNL     1       3.354  34.777  65.773  1.00  0.00     0.007 A 
HETATM   29  C   UNL     1       3.857  35.747  66.641  1.00  0.00     0.001 A 
HETATM   30  C   UNL     1       4.675  36.780  66.159  1.00  0.00     0.001 A 
ENDBRANCH   1  21
TORSDOF 6
ENDMDL
MODEL 6
REMARK VINA RESULT:      -8.0      4.517      7.260
REMARK  6 active torsions:
REMARK  status: ('A' for Active; 'I' for Inactive)
REMARK    1  A    between atoms: C_2  and  N_3 
REMARK       I    between atoms: N_3  and  C_4 
REMARK       I    between atoms: C_4  and  N_5 
REMARK    2  A    between atoms: N_5  and  C_6 
REMARK    3  A    between atoms: C_8  and  O_9 
REMARK    4  A    between atoms: O_9  and  C_10 
REMARK    5  A    between atoms: C_10  and  C_11 
REMARK    6  A    between atoms: C_11  and  N_12 
ROOT
HETATM    1  N   UNL     1       4.814  28.143  51.605  1.00  0.00    -0.333 N 
HETATM    2  C   UNL     1       3.889  28.125  52.608  1.00  0.00     0.321 C 
HETATM    3  N   UNL     1       4.215  27.384  53.708  1.00  0.00    -0.309 N 
HETATM    4  O   UNL     1       2.857  28.786  52.605  1.00  0.00    -0.247 OA
HETATM    5  H   UNL     1       5.750  27.914  51.910  1.00  0.00     0.165 HD
HETATM    6  H   UNL     1       3.674  27.655  54.522  1.00  0.00     0.170 HD
ENDROOT
BRANCH   3   7
HETATM    7  C   UNL     1       5.001  26.225  53.832  1.00  0.00     0.039 A 
HETATM    8  C   UNL     1       5.616  25.843  55.027  1.00  0.00     0.066 A 
HETATM    9  C   UNL     1       6.453  24.726  55.050  1.00  0.00     0.070 A 
HETATM   10  C   UNL     1       6.641  23.952  53.909  1.00  0.00     0.037 A 
HETATM   11  C   UNL     1       6.036  24.333  52.714  1.00  0.00     0.005 A 
HETATM   12  C   UNL     1       5.236  25.477  52.671  1.00  0.00     0.030 A 
BRANCH   9  13
HETATM   13  O   UNL     1       7.057  24.324  56.207  1.00  0.00    -0.349 OA
BRANCH  13  14
HETATM   14  C   UNL     1       6.979  25.319  57.243  1.00  0.00     0.197 C 
BRANCH  14  15
HETATM   15  C   UNL     1       8.315  26.043  57.318  1.00  0.00     0.177 C 
BRANCH  15  16
HETATM   16  N   UNL     1       8.156  27.480  57.372  1.00  0.00    -0.279 N 
HETATM   17  N   UNL     1       6.958  28.007  57.688  1.00  0.00    -0.185 NA
HETATM   18  C   UNL     1       7.158  29.324  57.604  1.00  0.00     0.140 A 
HETATM   19  C   UNL     1       8.481  29.642  57.245  1.00  0.00     0.040 A 
HETATM   20  C   UNL     1       9.106  28.426  57.111  1.00  0.00     0.113 A 
ENDBRANCH  15  16
ENDBRANCH  14  15
ENDBRANCH  13  14
ENDBRANCH   9  13
ENDBRANCH   3   7
BRANCH   1  21
HETATM   21  C   UNL     1       4.686  28.948  50.368  1.00  0.00     0.039 C 
HETATM   22  C   UNL     1       5.412  30.295  50.513  1.00  0.00     0.039 C 
HETATM   23  C   UNL     1       3.185  29.148  49.987  1.00  0.00     0.070 C 
HETATM   24  C   UNL     1       2.935  28.032  49.015  1.00  0.00    -0.049 A 
HETATM   25  C   UNL     1       4.130  27.474  48.562  1.00  0.00    -0.049 A 
HETATM   26  C   UNL     1       1.716  27.600  48.518  1.00  0.00     0.007 A 
HETATM   27  C   UNL     1       5.312  28.162  49.170  1.00  0.00     0.070 C 
HETATM   28  C   UNL     1       4.137  26.475  47.602  1.00  0.00     0.007 A 
HETATM   29  C   UNL     1       2.915  26.027  47.102  1.00  0.00     0.001 A 
HETATM   30  C   UNL     1       1.711  26.585  47.557  1.00  0.00     0.001 A 
ENDBRANCH   1  21
TORSDOF 6
ENDMDL
MODEL 7
REMARK VINA RESULT:      -8.0      5.496      9.253
REMARK  6 active torsions:
REMARK  status: ('A' for Active; 'I' for Inactive)
REMARK    1  A    between atoms: C_2  and  N_3 
REMARK       I    between atoms: N_3  and  C_4 
REMARK       I    between atoms: C_4  and  N_5 
REMARK    2  A    between atoms: N_5  and  C_6 
REMARK    3  A    between atoms: C_8  and  O_9 
REMARK    4  A    between atoms: O_9  and  C_10 
REMARK    5  A    between atoms: C_10  and  C_11 
REMARK    6  A    between atoms: C_11  and  N_12 
ROOT
HETATM    1  N   UNL     1       6.983  25.006  55.506  1.00  0.00    -0.333 N 
HETATM    2  C   UNL     1       5.824  25.459  56.066  1.00  0.00     0.321 C 
HETATM    3  N   UNL     1       4.890  25.945  55.197  1.00  0.00    -0.309 N 
HETATM    4  O   UNL     1       5.558  25.376  57.260  1.00  0.00    -0.247 OA
HETATM    5  H   UNL     1       6.892  24.754  54.531  1.00  0.00     0.165 HD
HETATM    6  H   UNL     1       3.963  25.963  55.607  1.00  0.00     0.170 HD
ENDROOT
BRANCH   3   7
HETATM    7  C   UNL     1       5.040  26.581  53.952  1.00  0.00     0.039 A 
HETATM    8  C   UNL     1       4.867  25.924  52.731  1.00  0.00     0.066 A 
HETATM    9  C   UNL     1       5.119  26.601  51.537  1.00  0.00     0.070 A 
HETATM   10  C   UNL     1       5.488  27.942  51.541  1.00  0.00     0.037 A 
HETATM   11  C   UNL     1       5.670  28.600  52.755  1.00  0.00     0.005 A 
HETATM   12  C   UNL     1       5.466  27.916  53.956  1.00  0.00     0.030 A 
BRANCH   9  13
HETATM   13  O   UNL     1       4.945  25.985  50.330  1.00  0.00    -0.349 OA
BRANCH  13  14
HETATM   14  C   UNL     1       4.573  26.907  49.290  1.00  0.00     0.197 C 
BRANCH  14  15
HETATM   15  C   UNL     1       3.653  26.189  48.315  1.00  0.00     0.177 C 
BRANCH  15  16
HETATM   16  N   UNL     1       2.723  27.093  47.673  1.00  0.00    -0.279 N 
HETATM   17  N   UNL     1       3.103  28.355  47.396  1.00  0.00    -0.185 NA
HETATM   18  C   UNL     1       2.011  28.905  46.860  1.00  0.00     0.140 A 
HETATM   19  C   UNL     1       0.938  27.998  46.784  1.00  0.00     0.040 A 
HETATM   20  C   UNL     1       1.433  26.829  47.310  1.00  0.00     0.113 A 
ENDBRANCH  15  16
ENDBRANCH  14  15
ENDBRANCH  13  14
ENDBRANCH   9  13
ENDBRANCH   3   7
BRANCH   1  21
HETATM   21  C   UNL     1       8.083  24.369  56.267  1.00  0.00     0.039 C 
HETATM   22  C   UNL     1       8.609  25.309  57.362  1.00  0.00     0.039 C 
HETATM   23  C   UNL     1       9.229  23.913  55.310  1.00  0.00     0.070 C 
HETATM   24  C   UNL     1       8.888  22.476  55.040  1.00  0.00    -0.049 A 
HETATM   25  C   UNL     1       7.945  21.997  55.949  1.00  0.00    -0.049 A 
HETATM   26  C   UNL     1       9.446  21.638  54.088  1.00  0.00     0.007 A 
HETATM   27  C   UNL     1       7.560  23.055  56.934  1.00  0.00     0.070 C 
HETATM   28  C   UNL     1       7.538  20.673  55.931  1.00  0.00     0.007 A 
HETATM   29  C   UNL     1       8.087  19.824  54.970  1.00  0.00     0.001 A 
HETATM   30  C   UNL     1       9.035  20.303  54.054  1.00  0.00     0.001 A 
ENDBRANCH   1  21
TORSDOF 6
ENDMDL
MODEL 8
REMARK VINA RESULT:      -7.9      3.324     11.231
REMARK  6 active torsions:
REMARK  status: ('A' for Active; 'I' for Inactive)
REMARK    1  A    between atoms: C_2  and  N_3 
REMARK       I    between atoms: N_3  and  C_4 
REMARK       I    between atoms: C_4  and  N_5 
REMARK    2  A    between atoms: N_5  and  C_6 
REMARK    3  A    between atoms: C_8  and  O_9 
REMARK    4  A    between atoms: O_9  and  C_10 
REMARK    5  A    between atoms: C_10  and  C_11 
REMARK    6  A    between atoms: C_11  and  N_12 
ROOT
HETATM    1  N   UNL     1       5.303  34.415  62.422  1.00  0.00    -0.333 N 
HETATM    2  C   UNL     1       5.167  33.236  63.095  1.00  0.00     0.321 C 
HETATM    3  N   UNL     1       6.249  32.403  63.067  1.00  0.00    -0.309 N 
HETATM    4  O   UNL     1       4.188  32.937  63.768  1.00  0.00    -0.247 OA
HETATM    5  H   UNL     1       6.264  34.696  62.284  1.00  0.00     0.165 HD
HETATM    6  H   UNL     1       6.223  31.722  63.817  1.00  0.00     0.170 HD
ENDROOT
BRANCH   3   7
HETATM    7  C   UNL     1       7.241  32.224  62.088  1.00  0.00     0.039 A 
HETATM    8  C   UNL     1       6.957  32.092  60.726  1.00  0.00     0.066 A 
HETATM    9  C   UNL     1       7.989  31.830  59.824  1.00  0.00     0.070 A 
HETATM   10  C   UNL     1       9.310  31.753  60.254  1.00  0.00     0.037 A 
HETATM   11  C   UNL     1       9.598  31.876  61.611  1.00  0.00     0.005 A 
HETATM   12  C   UNL     1       8.565  32.091  62.526  1.00  0.00     0.030 A 
BRANCH   9  13
HETATM   13  O   UNL     1       7.740  31.709  58.486  1.00  0.00    -0.349 OA
BRANCH  13  14
HETATM   14  C   UNL     1       6.767  30.689  58.198  1.00  0.00     0.197 C 
BRANCH  14  15
HETATM   15  C   UNL     1       7.502  29.387  57.917  1.00  0.00     0.177 C 
BRANCH  15  16
HETATM   16  N   UNL     1       7.278  28.912  56.568  1.00  0.00    -0.279 N 
HETATM   17  N   UNL     1       8.330  28.662  55.766  1.00  0.00    -0.185 NA
HETATM   18  C   UNL     1       7.769  28.291  54.613  1.00  0.00     0.140 A 
HETATM   19  C   UNL     1       6.364  28.294  54.676  1.00  0.00     0.040 A 
HETATM   20  C   UNL     1       6.075  28.691  55.960  1.00  0.00     0.113 A 
ENDBRANCH  15  16
ENDBRANCH  14  15
ENDBRANCH  13  14
ENDBRANCH   9  13
ENDBRANCH   3   7
BRANCH   1  21
HETATM   21  C   UNL     1       4.279  35.485  62.400  1.00  0.00     0.039 C 
HETATM   22  C   UNL     1       2.884  34.904  62.120  1.00  0.00     0.039 C 
HETATM   23  C   UNL     1       4.653  36.592  61.364  1.00  0.00     0.070 C 
HETATM   24  C   UNL     1       5.370  37.608  62.205  1.00  0.00    -0.049 A 
HETATM   25  C   UNL     1       5.152  37.390  63.565  1.00  0.00    -0.049 A 
HETATM   26  C   UNL     1       6.106  38.699  61.770  1.00  0.00     0.007 A 
HETATM   27  C   UNL     1       4.256  36.211  63.785  1.00  0.00     0.070 C 
HETATM   28  C   UNL     1       5.660  38.253  64.521  1.00  0.00     0.007 A 
HETATM   29  C   UNL     1       6.410  39.349  64.094  1.00  0.00     0.001 A 
HETATM   30  C   UNL     1       6.632  39.571  62.727  1.00  0.00     0.001 A 
ENDBRANCH   1  21
TORSDOF 6
ENDMDL
MODEL 9
REMARK VINA RESULT:      -7.9      4.195      8.293
REMARK  6 active torsions:
REMARK  status: ('A' for Active; 'I' for Inactive)
REMARK    1  A    between atoms: C_2  and  N_3 
REMARK       I    between atoms: N_3  and  C_4 
REMARK       I    between atoms: C_4  and  N_5 
REMARK    2  A    between atoms: N_5  and  C_6 
REMARK    3  A    between atoms: C_8  and  O_9 
REMARK    4  A    between atoms: O_9  and  C_10 
REMARK    5  A    between atoms: C_10  and  C_11 
REMARK    6  A    between atoms: C_11  and  N_12 
ROOT
HETATM    1  N   UNL     1       6.022  28.828  54.891  1.00  0.00    -0.333 N 
HETATM    2  C   UNL     1       5.119  29.145  55.863  1.00  0.00     0.321 C 
HETATM    3  N   UNL     1       3.914  29.618  55.428  1.00  0.00    -0.309 N 
HETATM    4  O   UNL     1       5.299  28.952  57.060  1.00  0.00    -0.247 OA
HETATM    5  H   UNL     1       5.602  28.643  53.990  1.00  0.00     0.165 HD
HETATM    6  H   UNL     1       3.194  29.531  56.137  1.00  0.00     0.170 HD
ENDROOT
BRANCH   3   7
HETATM    7  C   UNL     1       3.580  30.355  54.279  1.00  0.00     0.039 A 
HETATM    8  C   UNL     1       3.403  29.773  53.021  1.00  0.00     0.066 A 
HETATM    9  C   UNL     1       3.159  30.581  51.910  1.00  0.00     0.070 A 
HETATM   10  C   UNL     1       3.033  31.960  52.044  1.00  0.00     0.037 A 
HETATM   11  C   UNL     1       3.216  32.546  53.294  1.00  0.00     0.005 A 
HETATM   12  C   UNL     1       3.508  31.748  54.403  1.00  0.00     0.030 A 
BRANCH   9  13
HETATM   13  O   UNL     1       2.970  30.035  50.671  1.00  0.00    -0.349 OA
BRANCH  13  14
HETATM   14  C   UNL     1       3.908  30.536  49.701  1.00  0.00     0.197 C 
BRANCH  14  15
HETATM   15  C   UNL     1       5.222  29.790  49.872  1.00  0.00     0.177 C 
BRANCH  15  16
HETATM   16  N   UNL     1       5.048  28.354  49.812  1.00  0.00    -0.279 N 
HETATM   17  N   UNL     1       4.543  27.789  48.699  1.00  0.00    -0.185 NA
HETATM   18  C   UNL     1       4.483  26.490  49.001  1.00  0.00     0.140 A 
HETATM   19  C   UNL     1       4.955  26.221  50.298  1.00  0.00     0.040 A 
HETATM   20  C   UNL     1       5.325  27.448  50.796  1.00  0.00     0.113 A 
ENDBRANCH  15  16
ENDBRANCH  14  15
ENDBRANCH  13  14
ENDBRANCH   9  13
ENDBRANCH   3   7
BRANCH   1  21
HETATM   21  C   UNL     1       7.350  28.226  55.151  1.00  0.00     0.039 C 
HETATM   22  C   UNL     1       8.243  29.189  55.948  1.00  0.00     0.039 C 
HETATM   23  C   UNL     1       8.034  27.789  53.817  1.00  0.00     0.070 C 
HETATM   24  C   UNL     1       7.652  26.341  53.704  1.00  0.00    -0.049 A 
HETATM   25  C   UNL     1       7.161  25.848  54.913  1.00  0.00    -0.049 A 
HETATM   26  C   UNL     1       7.808  25.508  52.608  1.00  0.00     0.007 A 
HETATM   27  C   UNL     1       7.170  26.906  55.971  1.00  0.00     0.070 C 
HETATM   28  C   UNL     1       6.815  24.515  55.056  1.00  0.00     0.007 A 
HETATM   29  C   UNL     1       6.959  23.669  53.956  1.00  0.00     0.001 A 
HETATM   30  C   UNL     1       7.452  24.163  52.739  1.00  0.00     0.001 A 
ENDBRANCH   1  21
TORSDOF 6
ENDMDL
MODEL 10
REMARK VINA RESULT:      -7.9      6.281     11.040
REMARK  6 active torsions:
REMARK  status: ('A' for Active; 'I' for Inactive)
REMARK    1  A    between atoms: C_2  and  N_3 
REMARK       I    between atoms: N_3  and  C_4 
REMARK       I    between atoms: C_4  and  N_5 
REMARK    2  A    between atoms: N_5  and  C_6 
REMARK    3  A    between atoms: C_8  and  O_9 
REMARK    4  A    between atoms: O_9  and  C_10 
REMARK    5  A    between atoms: C_10  and  C_11 
REMARK    6  A    between atoms: C_11  and  N_12 
ROOT
HETATM    1  N   UNL     1       5.542  34.913  63.687  1.00  0.00    -0.333 N 
HETATM    2  C   UNL     1       5.115  33.666  64.037  1.00  0.00     0.321 C 
HETATM    3  N   UNL     1       5.941  32.633  63.697  1.00  0.00    -0.309 N 
HETATM    4  O   UNL     1       4.104  33.443  64.694  1.00  0.00    -0.247 OA
HETATM    5  H   UNL     1       6.540  34.976  63.543  1.00  0.00     0.165 HD
HETATM    6  H   UNL     1       5.752  31.799  64.242  1.00  0.00     0.170 HD
ENDROOT
BRANCH   3   7
HETATM    7  C   UNL     1       6.834  32.492  62.621  1.00  0.00     0.039 A 
HETATM    8  C   UNL     1       6.431  32.521  61.283  1.00  0.00     0.066 A 
HETATM    9  C   UNL     1       7.363  32.287  60.272  1.00  0.00     0.070 A 
HETATM   10  C   UNL     1       8.706  32.078  60.573  1.00  0.00     0.037 A 
HETATM   11  C   UNL     1       9.112  32.040  61.905  1.00  0.00     0.005 A 
HETATM   12  C   UNL     1       8.175  32.226  62.925  1.00  0.00     0.030 A 
BRANCH   9  13
HETATM   13  O   UNL     1       6.998  32.323  58.956  1.00  0.00    -0.349 OA
BRANCH  13  14
HETATM   14  C   UNL     1       5.636  31.905  58.752  1.00  0.00     0.197 C 
BRANCH  14  15
HETATM   15  C   UNL     1       5.198  32.349  57.364  1.00  0.00     0.177 C 
BRANCH  15  16
HETATM   16  N   UNL     1       4.306  33.488  57.410  1.00  0.00    -0.279 N 
HETATM   17  N   UNL     1       3.026  33.349  57.014  1.00  0.00    -0.185 NA
HETATM   18  C   UNL     1       2.518  34.577  57.146  1.00  0.00     0.140 A 
HETATM   19  C   UNL     1       3.464  35.497  57.632  1.00  0.00     0.040 A 
HETATM   20  C   UNL     1       4.611  34.760  57.804  1.00  0.00     0.113 A 
ENDBRANCH  15  16
ENDBRANCH  14  15
ENDBRANCH  13  14
ENDBRANCH   9  13
ENDBRANCH   3   7
BRANCH   1  21
HETATM   21  C   UNL     1       4.833  36.165  64.036  1.00  0.00     0.039 C 
HETATM   22  C   UNL     1       4.489  36.203  65.533  1.00  0.00     0.039 C 
HETATM   23  C   UNL     1       3.556  36.346  63.155  1.00  0.00     0.070 C 
HETATM   24  C   UNL     1       4.047  37.205  62.026  1.00  0.00    -0.049 A 
HETATM   25  C   UNL     1       5.279  37.787  62.328  1.00  0.00    -0.049 A 
HETATM   26  C   UNL     1       3.393  37.502  60.842  1.00  0.00     0.007 A 
HETATM   27  C   UNL     1       5.742  37.390  63.694  1.00  0.00     0.070 C 
HETATM   28  C   UNL     1       5.885  38.677  61.457  1.00  0.00     0.007 A 
HETATM   29  C   UNL     1       5.238  38.975  60.257  1.00  0.00     0.001 A 
HETATM   30  C   UNL     1       4.000  38.392  59.951  1.00  0.00     0.001 A 
ENDBRANCH   1  21
TORSDOF 6
ENDMDL
