MODEL 1
REMARK VINA RESULT:      -9.7      0.000      0.000
REMARK  4 active torsions:
REMARK  status: ('A' for Active; 'I' for Inactive)
REMARK    1  A    between atoms: O_2  and  C_3 
REMARK    2  A    between atoms: C_4  and  C_5 
REMARK    3  A    between atoms: C_9  and  C_10 
REMARK       I    between atoms: C_10  and  N_11 
REMARK    4  A    between atoms: N_11  and  N_12 
ROOT
HETATM    1  C   UNL     1       5.266  26.603  52.227  1.00  0.00     0.289 C 
HETATM    2  N   UNL     1       5.613  27.345  51.106  1.00  0.00    -0.241 N 
HETATM    3  O   UNL     1       4.299  26.830  52.947  1.00  0.00    -0.264 OA
HETATM    4  H   UNL     1       6.531  27.209  50.709  1.00  0.00     0.192 HD
ENDROOT
BRANCH   1   5
HETATM    5  C   UNL     1       6.155  25.499  52.492  1.00  0.00     0.121 A 
HETATM    6  N   UNL     1       7.349  25.362  51.840  1.00  0.00    -0.272 N 
HETATM    7  N   UNL     1       8.056  24.283  52.209  1.00  0.00    -0.174 NA
HETATM    8  H   UNL     1       7.728  25.982  51.128  1.00  0.00     0.189 HD
HETATM    9  C   UNL     1       7.315  23.699  53.158  1.00  0.00     0.092 A 
HETATM   10  C   UNL     1       6.107  24.424  53.358  1.00  0.00     0.071 A 
BRANCH   9  11
HETATM   11  C   UNL     1       7.720  22.476  53.852  1.00  0.00     0.028 A 
HETATM   12  C   UNL     1       7.746  22.346  55.251  1.00  0.00     0.080 A 
HETATM   13  C   UNL     1       8.181  21.154  55.842  1.00  0.00     0.037 A 
HETATM   14  C   UNL     1       8.549  20.064  55.054  1.00  0.00     0.003 A 
HETATM   15  C   UNL     1       8.505  20.169  53.668  1.00  0.00     0.001 A 
HETATM   16  C   UNL     1       8.101  21.366  53.072  1.00  0.00     0.017 A 
BRANCH  12  17
HETATM   17  O   UNL     1       7.410  23.336  56.138  1.00  0.00    -0.355 OA
HETATM   18  C   UNL     1       8.463  23.647  57.047  1.00  0.00     0.210 C 
ENDBRANCH  12  17
ENDBRANCH   9  11
ENDBRANCH   1   5
BRANCH   2  19
HETATM   19  N   UNL     1       4.948  28.490  50.792  1.00  0.00    -0.165 NA
HETATM   20  C   UNL     1       4.131  28.484  49.786  1.00  0.00     0.157 A 
HETATM   21  C   UNL     1       3.507  29.792  49.255  1.00  0.00     0.277 A 
HETATM   22  C   UNL     1       3.617  27.418  48.911  1.00  0.00     0.027 A 
HETATM   23  O   UNL     1       3.628  30.898  49.727  1.00  0.00    -0.266 OA
HETATM   24  N   UNL     1       2.810  29.429  48.124  1.00  0.00    -0.321 N 
HETATM   25  C   UNL     1       2.863  28.056  47.923  1.00  0.00     0.048 A 
HETATM   26  H   UNL     1       2.296  30.095  47.567  1.00  0.00     0.169 HD
HETATM   27  C   UNL     1       2.234  27.355  46.914  1.00  0.00     0.030 A 
HETATM   28  C   UNL     1       2.360  25.964  46.919  1.00  0.00     0.002 A 
HETATM   29  C   UNL     1       3.084  25.310  47.931  1.00  0.00     0.001 A 
HETATM   30  C   UNL     1       3.713  26.037  48.949  1.00  0.00     0.016 A 
ENDBRANCH   2  19
TORSDOF 4
ENDMDL
MODEL 2
REMARK VINA RESULT:      -9.7      5.288      7.248
REMARK  4 active torsions:
REMARK  status: ('A' for Active; 'I' for Inactive)
REMARK    1  A    between atoms: O_2  and  C_3 
REMARK    2  A    between atoms: C_4  and  C_5 
REMARK    3  A    between atoms: C_9  and  C_10 
REMARK       I    between atoms: C_10  and  N_11 
REMARK    4  A    between atoms: N_11  and  N_12 
ROOT
HETATM    1  C   UNL     1       5.879  26.811  56.146  1.00  0.00     0.289 C 
HETATM    2  N   UNL     1       6.380  28.085  55.909  1.00  0.00    -0.241 N 
HETATM    3  O   UNL     1       4.953  26.552  56.907  1.00  0.00    -0.264 OA
HETATM    4  H   UNL     1       7.267  28.168  55.436  1.00  0.00     0.192 HD
ENDROOT
BRANCH   1   5
HETATM    5  C   UNL     1       6.549  25.775  55.400  1.00  0.00     0.121 A 
HETATM    6  N   UNL     1       7.239  26.045  54.251  1.00  0.00    -0.272 N 
HETATM    7  N   UNL     1       7.806  24.968  53.686  1.00  0.00    -0.174 NA
HETATM    8  H   UNL     1       7.351  26.953  53.808  1.00  0.00     0.189 HD
HETATM    9  C   UNL     1       7.502  23.954  54.504  1.00  0.00     0.092 A 
HETATM   10  C   UNL     1       6.703  24.415  55.587  1.00  0.00     0.071 A 
BRANCH   9  11
HETATM   11  C   UNL     1       7.936  22.576  54.268  1.00  0.00     0.028 A 
HETATM   12  C   UNL     1       8.497  21.755  55.260  1.00  0.00     0.080 A 
HETATM   13  C   UNL     1       8.921  20.458  54.948  1.00  0.00     0.037 A 
HETATM   14  C   UNL     1       8.750  19.946  53.662  1.00  0.00     0.003 A 
HETATM   15  C   UNL     1       8.173  20.738  52.675  1.00  0.00     0.001 A 
HETATM   16  C   UNL     1       7.775  22.043  52.973  1.00  0.00     0.017 A 
BRANCH  12  17
HETATM   17  O   UNL     1       8.720  22.133  56.559  1.00  0.00    -0.355 OA
HETATM   18  C   UNL     1       8.326  21.138  57.501  1.00  0.00     0.210 C 
ENDBRANCH  12  17
ENDBRANCH   9  11
ENDBRANCH   1   5
BRANCH   2  19
HETATM   19  N   UNL     1       5.939  29.154  56.627  1.00  0.00    -0.165 NA
HETATM   20  C   UNL     1       6.808  29.905  57.228  1.00  0.00     0.157 A 
HETATM   21  C   UNL     1       6.366  31.003  58.219  1.00  0.00     0.277 A 
HETATM   22  C   UNL     1       8.279  29.952  57.218  1.00  0.00     0.027 A 
HETATM   23  O   UNL     1       5.232  31.333  58.479  1.00  0.00    -0.266 OA
HETATM   24  N   UNL     1       7.533  31.501  58.754  1.00  0.00    -0.321 N 
HETATM   25  C   UNL     1       8.644  30.903  58.173  1.00  0.00     0.048 A 
HETATM   26  H   UNL     1       7.542  32.241  59.440  1.00  0.00     0.169 HD
HETATM   27  C   UNL     1       9.964  31.203  58.442  1.00  0.00     0.030 A 
HETATM   28  C   UNL     1      10.942  30.530  57.705  1.00  0.00     0.002 A 
HETATM   29  C   UNL     1      10.583  29.601  56.713  1.00  0.00     0.001 A 
HETATM   30  C   UNL     1       9.238  29.311  56.452  1.00  0.00     0.016 A 
ENDBRANCH   2  19
TORSDOF 4
ENDMDL
MODEL 3
REMARK VINA RESULT:      -9.6      2.186      8.525
REMARK  4 active torsions:
REMARK  status: ('A' for Active; 'I' for Inactive)
REMARK    1  A    between atoms: O_2  and  C_3 
REMARK    2  A    between atoms: C_4  and  C_5 
REMARK    3  A    between atoms: C_9  and  C_10 
REMARK       I    between atoms: C_10  and  N_11 
REMARK    4  A    between atoms: N_11  and  N_12 
ROOT
HETATM    1  C   UNL     1       6.856  27.786  53.570  1.00  0.00     0.289 C 
HETATM    2  N   UNL     1       6.302  26.925  54.507  1.00  0.00    -0.241 N 
HETATM    3  O   UNL     1       7.943  28.343  53.684  1.00  0.00    -0.264 OA
HETATM    4  H   UNL     1       5.325  26.689  54.420  1.00  0.00     0.192 HD
ENDROOT
BRANCH   1   5
HETATM    5  C   UNL     1       6.032  27.983  52.402  1.00  0.00     0.121 A 
HETATM    6  N   UNL     1       5.783  29.229  51.897  1.00  0.00    -0.272 N 
HETATM    7  N   UNL     1       5.003  29.233  50.806  1.00  0.00    -0.174 NA
HETATM    8  H   UNL     1       6.124  30.114  52.265  1.00  0.00     0.189 HD
HETATM    9  C   UNL     1       4.747  27.942  50.566  1.00  0.00     0.092 A 
HETATM   10  C   UNL     1       5.365  27.123  51.552  1.00  0.00     0.071 A 
BRANCH   9  11
HETATM   11  C   UNL     1       3.926  27.483  49.445  1.00  0.00     0.028 A 
HETATM   12  C   UNL     1       2.634  27.967  49.176  1.00  0.00     0.080 A 
HETATM   13  C   UNL     1       1.895  27.451  48.104  1.00  0.00     0.037 A 
HETATM   14  C   UNL     1       2.446  26.486  47.261  1.00  0.00     0.003 A 
HETATM   15  C   UNL     1       3.733  26.016  47.500  1.00  0.00     0.001 A 
HETATM   16  C   UNL     1       4.464  26.505  48.585  1.00  0.00     0.017 A 
BRANCH  12  17
HETATM   17  O   UNL     1       1.977  28.911  49.922  1.00  0.00    -0.355 OA
HETATM   18  C   UNL     1       1.639  30.074  49.171  1.00  0.00     0.210 C 
ENDBRANCH  12  17
ENDBRANCH   9  11
ENDBRANCH   1   5
BRANCH   2  19
HETATM   19  N   UNL     1       6.896  26.732  55.716  1.00  0.00    -0.165 NA
HETATM   20  C   UNL     1       7.495  25.606  55.946  1.00  0.00     0.157 A 
HETATM   21  C   UNL     1       8.006  25.246  57.358  1.00  0.00     0.277 A 
HETATM   22  C   UNL     1       7.816  24.444  55.102  1.00  0.00     0.027 A 
HETATM   23  O   UNL     1       7.988  25.953  58.339  1.00  0.00    -0.266 OA
HETATM   24  N   UNL     1       8.460  23.950  57.260  1.00  0.00    -0.321 N 
HETATM   25  C   UNL     1       8.361  23.482  55.957  1.00  0.00     0.048 A 
HETATM   26  H   UNL     1       8.856  23.454  58.045  1.00  0.00     0.169 HD
HETATM   27  C   UNL     1       8.770  22.245  55.501  1.00  0.00     0.030 A 
HETATM   28  C   UNL     1       8.640  21.984  54.135  1.00  0.00     0.002 A 
HETATM   29  C   UNL     1       8.131  22.961  53.262  1.00  0.00     0.001 A 
HETATM   30  C   UNL     1       7.723  24.212  53.741  1.00  0.00     0.016 A 
ENDBRANCH   2  19
TORSDOF 4
ENDMDL
MODEL 4
REMARK VINA RESULT:      -9.3      5.956      9.179
REMARK  4 active torsions:
REMARK  status: ('A' for Active; 'I' for Inactive)
REMARK    1  A    between atoms: O_2  and  C_3 
REMARK    2  A    between atoms: C_4  and  C_5 
REMARK    3  A    between atoms: C_9  and  C_10 
REMARK       I    between atoms: C_10  and  N_11 
REMARK    4  A    between atoms: N_11  and  N_12 
ROOT
HETATM    1  C   UNL     1       6.962  28.142  55.864  1.00  0.00     0.289 C 
HETATM    2  N   UNL     1       7.863  27.514  55.014  1.00  0.00    -0.241 N 
HETATM    3  O   UNL     1       5.742  28.072  55.768  1.00  0.00    -0.264 OA
HETATM    4  H   UNL     1       8.830  27.801  55.047  1.00  0.00     0.192 HD
ENDROOT
BRANCH   1   5
HETATM    5  C   UNL     1       7.589  28.909  56.912  1.00  0.00     0.121 A 
HETATM    6  N   UNL     1       8.922  29.215  56.883  1.00  0.00    -0.272 N 
HETATM    7  N   UNL     1       9.341  29.939  57.932  1.00  0.00    -0.174 NA
HETATM    8  H   UNL     1       9.591  28.950  56.166  1.00  0.00     0.189 HD
HETATM    9  C   UNL     1       8.242  30.141  58.668  1.00  0.00     0.092 A 
HETATM   10  C   UNL     1       7.121  29.501  58.069  1.00  0.00     0.071 A 
BRANCH   9  11
HETATM   11  C   UNL     1       8.243  30.903  59.917  1.00  0.00     0.028 A 
HETATM   12  C   UNL     1       7.468  32.056  60.127  1.00  0.00     0.080 A 
HETATM   13  C   UNL     1       7.551  32.752  61.339  1.00  0.00     0.037 A 
HETATM   14  C   UNL     1       8.365  32.286  62.372  1.00  0.00     0.003 A 
HETATM   15  C   UNL     1       9.119  31.132  62.188  1.00  0.00     0.001 A 
HETATM   16  C   UNL     1       9.063  30.450  60.970  1.00  0.00     0.017 A 
BRANCH  12  17
HETATM   17  O   UNL     1       6.629  32.619  59.200  1.00  0.00    -0.355 OA
HETATM   18  C   UNL     1       5.313  32.835  59.703  1.00  0.00     0.210 C 
ENDBRANCH  12  17
ENDBRANCH   9  11
ENDBRANCH   1   5
BRANCH   2  19
HETATM   19  N   UNL     1       7.434  26.855  53.904  1.00  0.00    -0.165 NA
HETATM   20  C   UNL     1       7.487  25.560  53.885  1.00  0.00     0.157 A 
HETATM   21  C   UNL     1       7.211  24.767  52.590  1.00  0.00     0.277 A 
HETATM   22  C   UNL     1       7.812  24.549  54.904  1.00  0.00     0.027 A 
HETATM   23  O   UNL     1       6.855  25.216  51.525  1.00  0.00    -0.266 OA
HETATM   24  N   UNL     1       7.480  23.454  52.903  1.00  0.00    -0.321 N 
HETATM   25  C   UNL     1       7.821  23.319  54.242  1.00  0.00     0.048 A 
HETATM   26  H   UNL     1       7.382  22.705  52.233  1.00  0.00     0.169 HD
HETATM   27  C   UNL     1       8.102  22.137  54.897  1.00  0.00     0.030 A 
HETATM   28  C   UNL     1       8.365  22.204  56.267  1.00  0.00     0.002 A 
HETATM   29  C   UNL     1       8.319  23.432  56.949  1.00  0.00     0.001 A 
HETATM   30  C   UNL     1       8.028  24.622  56.269  1.00  0.00     0.016 A 
ENDBRANCH   2  19
TORSDOF 4
ENDMDL
MODEL 5
REMARK VINA RESULT:      -9.3      2.145      8.526
REMARK  4 active torsions:
REMARK  status: ('A' for Active; 'I' for Inactive)
REMARK    1  A    between atoms: O_2  and  C_3 
REMARK    2  A    between atoms: C_4  and  C_5 
REMARK    3  A    between atoms: C_9  and  C_10 
REMARK       I    between atoms: C_10  and  N_11 
REMARK    4  A    between atoms: N_11  and  N_12 
ROOT
HETATM    1  C   UNL     1       5.934  26.584  54.936  1.00  0.00     0.289 C 
HETATM    2  N   UNL     1       7.155  25.929  54.842  1.00  0.00    -0.241 N 
HETATM    3  O   UNL     1       5.346  26.824  55.985  1.00  0.00    -0.264 OA
HETATM    4  H   UNL     1       7.449  25.596  53.937  1.00  0.00     0.192 HD
ENDROOT
BRANCH   1   5
HETATM    5  C   UNL     1       5.388  26.982  53.662  1.00  0.00     0.121 A 
HETATM    6  N   UNL     1       4.172  27.598  53.559  1.00  0.00    -0.272 N 
HETATM    7  N   UNL     1       3.817  27.905  52.302  1.00  0.00    -0.174 NA
HETATM    8  H   UNL     1       3.542  27.831  54.322  1.00  0.00     0.189 HD
HETATM    9  C   UNL     1       4.847  27.500  51.549  1.00  0.00     0.092 A 
HETATM   10  C   UNL     1       5.850  26.904  52.362  1.00  0.00     0.071 A 
BRANCH   9  11
HETATM   11  C   UNL     1       4.884  27.653  50.094  1.00  0.00     0.028 A 
HETATM   12  C   UNL     1       5.451  28.760  49.441  1.00  0.00     0.080 A 
HETATM   13  C   UNL     1       5.416  28.851  48.044  1.00  0.00     0.037 A 
HETATM   14  C   UNL     1       4.861  27.824  47.280  1.00  0.00     0.003 A 
HETATM   15  C   UNL     1       4.319  26.711  47.911  1.00  0.00     0.001 A 
HETATM   16  C   UNL     1       4.324  26.628  49.305  1.00  0.00     0.017 A 
BRANCH  12  17
HETATM   17  O   UNL     1       6.026  29.834  50.070  1.00  0.00    -0.355 OA
HETATM   18  C   UNL     1       5.212  31.003  50.027  1.00  0.00     0.210 C 
ENDBRANCH  12  17
ENDBRANCH   9  11
ENDBRANCH   1   5
BRANCH   2  19
HETATM   19  N   UNL     1       7.741  25.381  55.942  1.00  0.00    -0.165 NA
HETATM   20  C   UNL     1       8.011  24.114  55.941  1.00  0.00     0.157 A 
HETATM   21  C   UNL     1       8.482  23.396  57.224  1.00  0.00     0.277 A 
HETATM   22  C   UNL     1       7.943  23.068  54.907  1.00  0.00     0.027 A 
HETATM   23  O   UNL     1       8.721  23.904  58.295  1.00  0.00    -0.266 OA
HETATM   24  N   UNL     1       8.547  22.061  56.891  1.00  0.00    -0.321 N 
HETATM   25  C   UNL     1       8.244  21.865  55.550  1.00  0.00     0.048 A 
HETATM   26  H   UNL     1       8.832  21.352  57.550  1.00  0.00     0.169 HD
HETATM   27  C   UNL     1       8.262  20.660  54.878  1.00  0.00     0.030 A 
HETATM   28  C   UNL     1       7.984  20.680  53.509  1.00  0.00     0.002 A 
HETATM   29  C   UNL     1       7.719  21.891  52.846  1.00  0.00     0.001 A 
HETATM   30  C   UNL     1       7.709  23.105  53.543  1.00  0.00     0.016 A 
ENDBRANCH   2  19
TORSDOF 4
ENDMDL
MODEL 6
REMARK VINA RESULT:      -9.3      1.944      8.766
REMARK  4 active torsions:
REMARK  status: ('A' for Active; 'I' for Inactive)
REMARK    1  A    between atoms: O_2  and  C_3 
REMARK    2  A    between atoms: C_4  and  C_5 
REMARK    3  A    between atoms: C_9  and  C_10 
REMARK       I    between atoms: C_10  and  N_11 
REMARK    4  A    between atoms: N_11  and  N_12 
ROOT
HETATM    1  C   UNL     1       5.945  26.725  53.723  1.00  0.00     0.289 C 
HETATM    2  N   UNL     1       7.142  26.038  53.875  1.00  0.00    -0.241 N 
HETATM    3  O   UNL     1       5.294  27.211  54.643  1.00  0.00    -0.264 OA
HETATM    4  H   UNL     1       7.486  25.501  53.093  1.00  0.00     0.192 HD
ENDROOT
BRANCH   1   5
HETATM    5  C   UNL     1       5.506  26.834  52.354  1.00  0.00     0.121 A 
HETATM    6  N   UNL     1       5.512  25.761  51.507  1.00  0.00    -0.272 N 
HETATM    7  N   UNL     1       5.067  26.034  50.271  1.00  0.00    -0.174 NA
HETATM    8  H   UNL     1       5.813  24.815  51.726  1.00  0.00     0.189 HD
HETATM    9  C   UNL     1       4.732  27.329  50.309  1.00  0.00     0.092 A 
HETATM   10  C   UNL     1       5.002  27.873  51.596  1.00  0.00     0.071 A 
BRANCH   9  11
HETATM   11  C   UNL     1       4.184  28.049  49.158  1.00  0.00     0.028 A 
HETATM   12  C   UNL     1       3.205  27.519  48.301  1.00  0.00     0.080 A 
HETATM   13  C   UNL     1       2.757  28.256  47.198  1.00  0.00     0.037 A 
HETATM   14  C   UNL     1       3.240  29.543  46.962  1.00  0.00     0.003 A 
HETATM   15  C   UNL     1       4.191  30.091  47.815  1.00  0.00     0.001 A 
HETATM   16  C   UNL     1       4.664  29.349  48.900  1.00  0.00     0.017 A 
BRANCH  12  17
HETATM   17  O   UNL     1       2.649  26.272  48.420  1.00  0.00    -0.355 OA
HETATM   18  C   UNL     1       2.887  25.447  47.282  1.00  0.00     0.210 C 
ENDBRANCH  12  17
ENDBRANCH   9  11
ENDBRANCH   1   5
BRANCH   2  19
HETATM   19  N   UNL     1       7.628  25.743  55.111  1.00  0.00    -0.165 NA
HETATM   20  C   UNL     1       7.879  24.506  55.406  1.00  0.00     0.157 A 
HETATM   21  C   UNL     1       8.232  24.083  56.847  1.00  0.00     0.277 A 
HETATM   22  C   UNL     1       7.880  23.262  54.618  1.00  0.00     0.027 A 
HETATM   23  O   UNL     1       8.389  24.811  57.800  1.00  0.00    -0.266 OA
HETATM   24  N   UNL     1       8.305  22.708  56.816  1.00  0.00    -0.321 N 
HETATM   25  C   UNL     1       8.110  22.227  55.528  1.00  0.00     0.048 A 
HETATM   26  H   UNL     1       8.524  22.158  57.633  1.00  0.00     0.169 HD
HETATM   27  C   UNL     1       8.166  20.905  55.135  1.00  0.00     0.030 A 
HETATM   28  C   UNL     1       8.002  20.628  53.775  1.00  0.00     0.002 A 
HETATM   29  C   UNL     1       7.810  21.667  52.848  1.00  0.00     0.001 A 
HETATM   30  C   UNL     1       7.760  23.003  53.264  1.00  0.00     0.016 A 
ENDBRANCH   2  19
TORSDOF 4
ENDMDL
MODEL 7
REMARK VINA RESULT:      -9.2      8.647     11.101
REMARK  4 active torsions:
REMARK  status: ('A' for Active; 'I' for Inactive)
REMARK    1  A    between atoms: O_2  and  C_3 
REMARK    2  A    between atoms: C_4  and  C_5 
REMARK    3  A    between atoms: C_9  and  C_10 
REMARK       I    between atoms: C_10  and  N_11 
REMARK    4  A    between atoms: N_11  and  N_12 
ROOT
HETATM    1  C   UNL     1       5.925  31.631  58.402  1.00  0.00     0.289 C 
HETATM    2  N   UNL     1       5.370  31.701  59.673  1.00  0.00    -0.241 N 
HETATM    3  O   UNL     1       5.938  32.550  57.590  1.00  0.00    -0.264 OA
HETATM    4  H   UNL     1       5.223  30.840  60.179  1.00  0.00     0.192 HD
ENDROOT
BRANCH   1   5
HETATM    5  C   UNL     1       6.514  30.350  58.095  1.00  0.00     0.121 A 
HETATM    6  N   UNL     1       7.628  29.895  58.745  1.00  0.00    -0.272 N 
HETATM    7  N   UNL     1       8.041  28.684  58.341  1.00  0.00    -0.174 NA
HETATM    8  H   UNL     1       8.147  30.377  59.474  1.00  0.00     0.189 HD
HETATM    9  C   UNL     1       7.154  28.314  57.410  1.00  0.00     0.092 A 
HETATM   10  C   UNL     1       6.184  29.337  57.217  1.00  0.00     0.071 A 
BRANCH   9  11
HETATM   11  C   UNL     1       7.221  27.035  56.702  1.00  0.00     0.028 A 
HETATM   12  C   UNL     1       7.408  26.922  55.314  1.00  0.00     0.080 A 
HETATM   13  C   UNL     1       7.425  25.662  54.704  1.00  0.00     0.037 A 
HETATM   14  C   UNL     1       7.305  24.501  55.468  1.00  0.00     0.003 A 
HETATM   15  C   UNL     1       7.145  24.596  56.846  1.00  0.00     0.001 A 
HETATM   16  C   UNL     1       7.097  25.851  57.457  1.00  0.00     0.017 A 
BRANCH  12  17
HETATM   17  O   UNL     1       7.539  27.978  54.450  1.00  0.00    -0.355 OA
HETATM   18  C   UNL     1       6.423  28.120  53.575  1.00  0.00     0.210 C 
ENDBRANCH  12  17
ENDBRANCH   9  11
ENDBRANCH   1   5
BRANCH   2  19
HETATM   19  N   UNL     1       4.668  32.798  60.070  1.00  0.00    -0.165 NA
HETATM   20  C   UNL     1       4.971  33.361  61.197  1.00  0.00     0.157 A 
HETATM   21  C   UNL     1       4.086  34.474  61.798  1.00  0.00     0.277 A 
HETATM   22  C   UNL     1       6.058  33.155  62.167  1.00  0.00     0.027 A 
HETATM   23  O   UNL     1       3.113  34.982  61.290  1.00  0.00    -0.266 OA
HETATM   24  N   UNL     1       4.627  34.740  63.035  1.00  0.00    -0.321 N 
HETATM   25  C   UNL     1       5.773  33.987  63.253  1.00  0.00     0.048 A 
HETATM   26  H   UNL     1       4.243  35.437  63.656  1.00  0.00     0.169 HD
HETATM   27  C   UNL     1       6.587  34.043  64.366  1.00  0.00     0.030 A 
HETATM   28  C   UNL     1       7.733  33.245  64.369  1.00  0.00     0.002 A 
HETATM   29  C   UNL     1       8.049  32.435  63.264  1.00  0.00     0.001 A 
HETATM   30  C   UNL     1       7.214  32.393  62.141  1.00  0.00     0.016 A 
ENDBRANCH   2  19
TORSDOF 4
ENDMDL
MODEL 8
REMARK VINA RESULT:      -9.1      6.013      8.743
REMARK  4 active torsions:
REMARK  status: ('A' for Active; 'I' for Inactive)
REMARK    1  A    between atoms: O_2  and  C_3 
REMARK    2  A    between atoms: C_4  and  C_5 
REMARK    3  A    between atoms: C_9  and  C_10 
REMARK       I    between atoms: C_10  and  N_11 
REMARK    4  A    between atoms: N_11  and  N_12 
ROOT
HETATM    1  C   UNL     1       5.452  29.499  55.615  1.00  0.00     0.289 C 
HETATM    2  N   UNL     1       6.425  28.978  54.772  1.00  0.00    -0.241 N 
HETATM    3  O   UNL     1       4.246  29.313  55.493  1.00  0.00    -0.264 OA
HETATM    4  H   UNL     1       7.358  29.356  54.829  1.00  0.00     0.192 HD
ENDROOT
BRANCH   1   5
HETATM    5  C   UNL     1       5.983  30.303  56.689  1.00  0.00     0.121 A 
HETATM    6  N   UNL     1       5.548  31.578  56.918  1.00  0.00    -0.272 N 
HETATM    7  N   UNL     1       6.142  32.182  57.958  1.00  0.00    -0.174 NA
HETATM    8  H   UNL     1       4.845  32.086  56.387  1.00  0.00     0.189 HD
HETATM    9  C   UNL     1       6.981  31.264  58.451  1.00  0.00     0.092 A 
HETATM   10  C   UNL     1       6.921  30.072  57.675  1.00  0.00     0.071 A 
BRANCH   9  11
HETATM   11  C   UNL     1       7.836  31.501  59.614  1.00  0.00     0.028 A 
HETATM   12  C   UNL     1       9.181  31.901  59.525  1.00  0.00     0.080 A 
HETATM   13  C   UNL     1       9.945  32.074  60.685  1.00  0.00     0.037 A 
HETATM   14  C   UNL     1       9.373  31.898  61.945  1.00  0.00     0.003 A 
HETATM   15  C   UNL     1       8.038  31.527  62.050  1.00  0.00     0.001 A 
HETATM   16  C   UNL     1       7.277  31.324  60.896  1.00  0.00     0.017 A 
BRANCH  12  17
HETATM   17  O   UNL     1       9.863  32.108  58.354  1.00  0.00    -0.355 OA
HETATM   18  C   UNL     1      10.575  30.954  57.915  1.00  0.00     0.210 C 
ENDBRANCH  12  17
ENDBRANCH   9  11
ENDBRANCH   1   5
BRANCH   2  19
HETATM   19  N   UNL     1       6.081  28.302  53.642  1.00  0.00    -0.165 NA
HETATM   20  C   UNL     1       6.239  27.016  53.609  1.00  0.00     0.157 A 
HETATM   21  C   UNL     1       6.065  26.222  52.297  1.00  0.00     0.277 A 
HETATM   22  C   UNL     1       6.616  26.020  54.625  1.00  0.00     0.027 A 
HETATM   23  O   UNL     1       5.703  26.657  51.227  1.00  0.00    -0.266 OA
HETATM   24  N   UNL     1       6.430  24.930  52.602  1.00  0.00    -0.321 N 
HETATM   25  C   UNL     1       6.743  24.804  53.949  1.00  0.00     0.048 A 
HETATM   26  H   UNL     1       6.411  24.186  51.920  1.00  0.00     0.169 HD
HETATM   27  C   UNL     1       7.101  23.639  54.597  1.00  0.00     0.030 A 
HETATM   28  C   UNL     1       7.319  23.708  55.975  1.00  0.00     0.002 A 
HETATM   29  C   UNL     1       7.154  24.919  56.670  1.00  0.00     0.001 A 
HETATM   30  C   UNL     1       6.787  26.090  55.996  1.00  0.00     0.016 A 
ENDBRANCH   2  19
TORSDOF 4
ENDMDL
MODEL 9
REMARK VINA RESULT:      -9.1      6.589      9.134
REMARK  4 active torsions:
REMARK  status: ('A' for Active; 'I' for Inactive)
REMARK    1  A    between atoms: O_2  and  C_3 
REMARK    2  A    between atoms: C_4  and  C_5 
REMARK    3  A    between atoms: C_9  and  C_10 
REMARK       I    between atoms: C_10  and  N_11 
REMARK    4  A    between atoms: N_11  and  N_12 
ROOT
HETATM    1  C   UNL     1       5.274  29.913  56.608  1.00  0.00     0.289 C 
HETATM    2  N   UNL     1       5.992  30.845  57.345  1.00  0.00    -0.241 N 
HETATM    3  O   UNL     1       4.050  29.869  56.535  1.00  0.00    -0.264 OA
HETATM    4  H   UNL     1       6.973  30.671  57.509  1.00  0.00     0.192 HD
ENDROOT
BRANCH   1   5
HETATM    5  C   UNL     1       6.102  28.967  55.901  1.00  0.00     0.121 A 
HETATM    6  N   UNL     1       7.372  29.279  55.501  1.00  0.00    -0.272 N 
HETATM    7  N   UNL     1       8.005  28.284  54.861  1.00  0.00    -0.174 NA
HETATM    8  H   UNL     1       7.854  30.163  55.640  1.00  0.00     0.189 HD
HETATM    9  C   UNL     1       7.133  27.270  54.860  1.00  0.00     0.092 A 
HETATM   10  C   UNL     1       5.920  27.660  55.493  1.00  0.00     0.071 A 
BRANCH   9  11
HETATM   11  C   UNL     1       7.421  25.965  54.264  1.00  0.00     0.028 A 
HETATM   12  C   UNL     1       7.555  24.780  55.008  1.00  0.00     0.080 A 
HETATM   13  C   UNL     1       7.867  23.575  54.367  1.00  0.00     0.037 A 
HETATM   14  C   UNL     1       8.003  23.523  52.979  1.00  0.00     0.003 A 
HETATM   15  C   UNL     1       7.849  24.682  52.228  1.00  0.00     0.001 A 
HETATM   16  C   UNL     1       7.566  25.893  52.863  1.00  0.00     0.017 A 
BRANCH  12  17
HETATM   17  O   UNL     1       7.446  24.692  56.371  1.00  0.00    -0.355 OA
HETATM   18  C   UNL     1       8.703  24.508  57.017  1.00  0.00     0.210 C 
ENDBRANCH  12  17
ENDBRANCH   9  11
ENDBRANCH   1   5
BRANCH   2  19
HETATM   19  N   UNL     1       5.358  31.727  58.165  1.00  0.00    -0.165 NA
HETATM   20  C   UNL     1       5.935  32.079  59.271  1.00  0.00     0.157 A 
HETATM   21  C   UNL     1       5.185  32.909  60.335  1.00  0.00     0.277 A 
HETATM   22  C   UNL     1       7.270  31.827  59.837  1.00  0.00     0.027 A 
HETATM   23  O   UNL     1       4.072  33.373  60.242  1.00  0.00    -0.266 OA
HETATM   24  N   UNL     1       6.042  32.983  61.409  1.00  0.00    -0.321 N 
HETATM   25  C   UNL     1       7.254  32.366  61.126  1.00  0.00     0.048 A 
HETATM   26  H   UNL     1       5.806  33.475  62.258  1.00  0.00     0.169 HD
HETATM   27  C   UNL     1       8.350  32.300  61.961  1.00  0.00     0.030 A 
HETATM   28  C   UNL     1       9.503  31.685  61.467  1.00  0.00     0.002 A 
HETATM   29  C   UNL     1       9.541  31.176  60.157  1.00  0.00     0.001 A 
HETATM   30  C   UNL     1       8.420  31.254  59.322  1.00  0.00     0.016 A 
ENDBRANCH   2  19
TORSDOF 4
ENDMDL
MODEL 10
REMARK VINA RESULT:      -9.0      9.273     11.589
REMARK  4 active torsions:
REMARK  status: ('A' for Active; 'I' for Inactive)
REMARK    1  A    between atoms: O_2  and  C_3 
REMARK    2  A    between atoms: C_4  and  C_5 
REMARK    3  A    between atoms: C_9  and  C_10 
REMARK       I    between atoms: C_10  and  N_11 
REMARK    4  A    between atoms: N_11  and  N_12 
ROOT
HETATM    1  C   UNL     1       3.726  31.438  58.591  1.00  0.00     0.289 C 
HETATM    2  N   UNL     1       4.101  30.153  58.223  1.00  0.00    -0.241 N 
HETATM    3  O   UNL     1       3.187  32.252  57.847  1.00  0.00    -0.264 OA
HETATM    4  H   UNL     1       4.720  29.643  58.835  1.00  0.00     0.192 HD
ENDROOT
BRANCH   1   5
HETATM    5  C   UNL     1       4.021  31.759  59.966  1.00  0.00     0.121 A 
HETATM    6  N   UNL     1       3.191  31.387  60.987  1.00  0.00    -0.272 N 
HETATM    7  N   UNL     1       3.617  31.761  62.203  1.00  0.00    -0.174 NA
HETATM    8  H   UNL     1       2.317  30.876  60.905  1.00  0.00     0.189 HD
HETATM    9  C   UNL     1       4.783  32.379  61.981  1.00  0.00     0.092 A 
HETATM   10  C   UNL     1       5.068  32.411  60.587  1.00  0.00     0.071 A 
BRANCH   9  11
HETATM   11  C   UNL     1       5.606  32.946  63.050  1.00  0.00     0.028 A 
HETATM   12  C   UNL     1       5.146  33.916  63.957  1.00  0.00     0.080 A 
HETATM   13  C   UNL     1       6.006  34.437  64.931  1.00  0.00     0.037 A 
HETATM   14  C   UNL     1       7.315  33.969  65.046  1.00  0.00     0.003 A 
HETATM   15  C   UNL     1       7.777  32.991  64.172  1.00  0.00     0.001 A 
HETATM   16  C   UNL     1       6.933  32.489  63.179  1.00  0.00     0.017 A 
BRANCH  12  17
HETATM   17  O   UNL     1       3.887  34.459  63.955  1.00  0.00    -0.355 OA
HETATM   18  C   UNL     1       3.874  35.828  64.354  1.00  0.00     0.210 C 
ENDBRANCH  12  17
ENDBRANCH   9  11
ENDBRANCH   1   5
BRANCH   2  19
HETATM   19  N   UNL     1       4.004  29.740  56.930  1.00  0.00    -0.165 NA
HETATM   20  C   UNL     1       5.089  29.444  56.285  1.00  0.00     0.157 A 
HETATM   21  C   UNL     1       5.065  29.169  54.766  1.00  0.00     0.277 A 
HETATM   22  C   UNL     1       6.499  29.321  56.686  1.00  0.00     0.027 A 
HETATM   23  O   UNL     1       4.091  29.117  54.052  1.00  0.00    -0.266 OA
HETATM   24  N   UNL     1       6.385  29.021  54.403  1.00  0.00    -0.321 N 
HETATM   25  C   UNL     1       7.220  29.099  55.510  1.00  0.00     0.048 A 
HETATM   26  H   UNL     1       6.668  28.829  53.453  1.00  0.00     0.169 HD
HETATM   27  C   UNL     1       8.592  28.946  55.509  1.00  0.00     0.030 A 
HETATM   28  C   UNL     1       9.248  29.000  56.741  1.00  0.00     0.002 A 
HETATM   29  C   UNL     1       8.527  29.182  57.933  1.00  0.00     0.001 A 
HETATM   30  C   UNL     1       7.135  29.333  57.916  1.00  0.00     0.016 A 
ENDBRANCH   2  19
TORSDOF 4
ENDMDL
