MODEL 1
REMARK VINA RESULT:     -11.1      0.000      0.000
REMARK  7 active torsions:
REMARK  status: ('A' for Active; 'I' for Inactive)
REMARK    1  A    between atoms: C_2  and  O_3 
REMARK    2  A    between atoms: O_3  and  C_4 
REMARK    3  A    between atoms: C_5  and  O_6 
REMARK    4  A    between atoms: C_9  and  C_10 
REMARK    5  A    between atoms: N_11  and  N_12 
REMARK       I    between atoms: N_12  and  C_13 
REMARK    6  A    between atoms: C_13  and  C_14 
REMARK    7  A    between atoms: C_18  and  C_19 
ROOT
HETATM    1  C   UNL     1       7.627  29.774  57.954  1.00  0.00     0.121 A 
HETATM    2  N   UNL     1       8.945  29.434  57.842  1.00  0.00    -0.272 N 
HETATM    3  H   UNL     1       9.735  29.911  58.268  1.00  0.00     0.189 HD
HETATM    4  N   UNL     1       9.179  28.397  57.028  1.00  0.00    -0.174 NA
HETATM    5  C   UNL     1       7.967  28.010  56.599  1.00  0.00     0.090 A 
HETATM    6  C   UNL     1       6.961  28.829  57.199  1.00  0.00     0.071 A 
ENDROOT
BRANCH   1   7
HETATM    7  C   UNL     1       7.212  30.947  58.682  1.00  0.00     0.289 C 
HETATM    8  N   UNL     1       7.478  30.899  60.045  1.00  0.00    -0.242 N 
HETATM    9  H   UNL     1       8.194  30.262  60.375  1.00  0.00     0.192 HD
HETATM   10  O   UNL     1       6.650  31.876  58.112  1.00  0.00    -0.264 OA
BRANCH   8  11
HETATM   11  N   UNL     1       7.059  31.801  60.995  1.00  0.00    -0.184 NA
HETATM   12  C   UNL     1       7.154  31.446  62.238  1.00  0.00     0.150 C 
BRANCH  12  13
HETATM   13  C   UNL     1       6.759  32.339  63.347  1.00  0.00    -0.014 A 
HETATM   14  C   UNL     1       7.775  32.950  64.094  1.00  0.00     0.016 A 
HETATM   15  C   UNL     1       7.443  33.839  65.112  1.00  0.00     0.040 A 
HETATM   16  C   UNL     1       6.104  34.104  65.371  1.00  0.00     0.099 A 
HETATM   17  C   UNL     1       5.076  33.488  64.644  1.00  0.00     0.102 A 
HETATM   18  C   UNL     1       5.409  32.601  63.621  1.00  0.00     0.052 A 
BRANCH  16  19
HETATM   19  O   UNL     1       5.805  34.992  66.367  1.00  0.00    -0.358 OA
HETATM   20  H   UNL     1       5.237  35.664  65.944  1.00  0.00     0.218 HD
ENDBRANCH  16  19
BRANCH  17  21
HETATM   21  O   UNL     1       3.810  33.853  65.021  1.00  0.00    -0.349 OA
BRANCH  21  22
HETATM   22  C   UNL     1       2.952  34.353  63.996  1.00  0.00     0.171 C 
HETATM   23  C   UNL     1       3.480  35.713  63.574  1.00  0.00     0.034 C 
ENDBRANCH  21  22
ENDBRANCH  17  21
ENDBRANCH  12  13
ENDBRANCH   8  11
ENDBRANCH   1   7
BRANCH   5  24
HETATM   24  C   UNL     1       7.778  26.951  55.592  1.00  0.00     0.005 A 
HETATM   25  C   UNL     1       7.939  25.560  55.883  1.00  0.00    -0.012 A 
HETATM   26  C   UNL     1       7.780  24.701  54.819  1.00  0.00    -0.012 A 
HETATM   27  C   UNL     1       8.242  24.918  57.113  1.00  0.00     0.013 A 
HETATM   28  C   UNL     1       7.918  23.326  54.892  1.00  0.00    -0.046 A 
HETATM   29  C   UNL     1       7.469  25.098  53.533  1.00  0.00    -0.046 A 
HETATM   30  C   UNL     1       8.229  22.691  56.084  1.00  0.00     0.008 A 
HETATM   31  C   UNL     1       7.699  22.707  53.556  1.00  0.00     0.044 A 
HETATM   32  C   UNL     1       8.385  23.517  57.204  1.00  0.00     0.001 A 
HETATM   33  C   UNL     1       7.380  23.918  52.629  1.00  0.00     0.044 A 
HETATM   34  C   UNL     1       7.293  26.432  53.212  1.00  0.00     0.009 A 
HETATM   35  C   UNL     1       7.457  27.348  54.263  1.00  0.00     0.015 A 
ENDBRANCH   5  24
TORSDOF 7
ENDMDL
MODEL 2
REMARK VINA RESULT:     -11.1      0.966      2.107
REMARK  7 active torsions:
REMARK  status: ('A' for Active; 'I' for Inactive)
REMARK    1  A    between atoms: C_2  and  O_3 
REMARK    2  A    between atoms: O_3  and  C_4 
REMARK    3  A    between atoms: C_5  and  O_6 
REMARK    4  A    between atoms: C_9  and  C_10 
REMARK    5  A    between atoms: N_11  and  N_12 
REMARK       I    between atoms: N_12  and  C_13 
REMARK    6  A    between atoms: C_13  and  C_14 
REMARK    7  A    between atoms: C_18  and  C_19 
ROOT
HETATM    1  C   UNL     1       7.493  29.680  57.960  1.00  0.00     0.121 A 
HETATM    2  N   UNL     1       6.466  29.597  57.062  1.00  0.00    -0.272 N 
HETATM    3  H   UNL     1       5.727  30.280  56.920  1.00  0.00     0.189 HD
HETATM    4  N   UNL     1       6.437  28.456  56.364  1.00  0.00    -0.174 NA
HETATM    5  C   UNL     1       7.500  27.757  56.791  1.00  0.00     0.090 A 
HETATM    6  C   UNL     1       8.215  28.519  57.766  1.00  0.00     0.071 A 
ENDROOT
BRANCH   1   7
HETATM    7  C   UNL     1       7.596  30.781  58.885  1.00  0.00     0.289 C 
HETATM    8  N   UNL     1       7.869  30.406  60.195  1.00  0.00    -0.242 N 
HETATM    9  H   UNL     1       8.290  29.500  60.359  1.00  0.00     0.192 HD
HETATM   10  O   UNL     1       7.422  31.937  58.509  1.00  0.00    -0.264 OA
BRANCH   8  11
HETATM   11  N   UNL     1       7.869  31.226  61.299  1.00  0.00    -0.184 NA
HETATM   12  C   UNL     1       6.738  31.412  61.904  1.00  0.00     0.150 C 
BRANCH  12  13
HETATM   13  C   UNL     1       6.619  32.251  63.115  1.00  0.00    -0.014 A 
HETATM   14  C   UNL     1       7.794  32.770  63.674  1.00  0.00     0.016 A 
HETATM   15  C   UNL     1       7.720  33.608  64.783  1.00  0.00     0.040 A 
HETATM   16  C   UNL     1       6.475  33.914  65.318  1.00  0.00     0.099 A 
HETATM   17  C   UNL     1       5.291  33.390  64.780  1.00  0.00     0.102 A 
HETATM   18  C   UNL     1       5.367  32.554  63.667  1.00  0.00     0.052 A 
BRANCH  16  19
HETATM   19  O   UNL     1       6.428  34.751  66.398  1.00  0.00    -0.358 OA
HETATM   20  H   UNL     1       7.306  35.179  66.425  1.00  0.00     0.218 HD
ENDBRANCH  16  19
BRANCH  17  21
HETATM   21  O   UNL     1       4.147  33.786  65.422  1.00  0.00    -0.349 OA
BRANCH  21  22
HETATM   22  C   UNL     1       3.174  34.474  64.637  1.00  0.00     0.171 C 
HETATM   23  C   UNL     1       3.728  35.852  64.318  1.00  0.00     0.034 C 
ENDBRANCH  21  22
ENDBRANCH  17  21
ENDBRANCH  12  13
ENDBRANCH   8  11
ENDBRANCH   1   7
BRANCH   5  24
HETATM   24  C   UNL     1       7.782  26.381  56.348  1.00  0.00     0.005 A 
HETATM   25  C   UNL     1       7.627  25.950  54.993  1.00  0.00    -0.012 A 
HETATM   26  C   UNL     1       7.878  24.618  54.752  1.00  0.00    -0.012 A 
HETATM   27  C   UNL     1       7.248  26.691  53.842  1.00  0.00     0.013 A 
HETATM   28  C   UNL     1       7.761  24.007  53.516  1.00  0.00    -0.046 A 
HETATM   29  C   UNL     1       8.273  23.711  55.715  1.00  0.00    -0.046 A 
HETATM   30  C   UNL     1       7.378  24.718  52.389  1.00  0.00     0.008 A 
HETATM   31  C   UNL     1       8.088  22.559  53.615  1.00  0.00     0.044 A 
HETATM   32  C   UNL     1       7.126  26.083  52.574  1.00  0.00     0.001 A 
HETATM   33  C   UNL     1       8.450  22.358  55.118  1.00  0.00     0.044 A 
HETATM   34  C   UNL     1       8.447  24.088  57.035  1.00  0.00     0.009 A 
HETATM   35  C   UNL     1       8.190  25.436  57.332  1.00  0.00     0.015 A 
ENDBRANCH   5  24
TORSDOF 7
ENDMDL
MODEL 3
REMARK VINA RESULT:     -10.5      1.501      1.913
REMARK  7 active torsions:
REMARK  status: ('A' for Active; 'I' for Inactive)
REMARK    1  A    between atoms: C_2  and  O_3 
REMARK    2  A    between atoms: O_3  and  C_4 
REMARK    3  A    between atoms: C_5  and  O_6 
REMARK    4  A    between atoms: C_9  and  C_10 
REMARK    5  A    between atoms: N_11  and  N_12 
REMARK       I    between atoms: N_12  and  C_13 
REMARK    6  A    between atoms: C_13  and  C_14 
REMARK    7  A    between atoms: C_18  and  C_19 
ROOT
HETATM    1  C   UNL     1       6.809  28.823  56.559  1.00  0.00     0.121 A 
HETATM    2  N   UNL     1       7.588  29.213  55.505  1.00  0.00    -0.272 N 
HETATM    3  H   UNL     1       7.851  30.164  55.264  1.00  0.00     0.189 HD
HETATM    4  N   UNL     1       7.968  28.212  54.703  1.00  0.00    -0.174 NA
HETATM    5  C   UNL     1       7.447  27.105  55.253  1.00  0.00     0.090 A 
HETATM    6  C   UNL     1       6.747  27.447  56.452  1.00  0.00     0.071 A 
ENDROOT
BRANCH   1   7
HETATM    7  C   UNL     1       6.204  29.786  57.444  1.00  0.00     0.289 C 
HETATM    8  N   UNL     1       7.108  30.483  58.236  1.00  0.00    -0.242 N 
HETATM    9  H   UNL     1       8.075  30.532  57.937  1.00  0.00     0.192 HD
HETATM   10  O   UNL     1       4.986  29.928  57.482  1.00  0.00    -0.264 OA
BRANCH   8  11
HETATM   11  N   UNL     1       6.804  31.342  59.266  1.00  0.00    -0.184 NA
HETATM   12  C   UNL     1       7.530  31.270  60.338  1.00  0.00     0.150 C 
BRANCH  12  13
HETATM   13  C   UNL     1       7.313  32.157  61.499  1.00  0.00    -0.014 A 
HETATM   14  C   UNL     1       8.021  31.883  62.677  1.00  0.00     0.016 A 
HETATM   15  C   UNL     1       7.884  32.726  63.776  1.00  0.00     0.040 A 
HETATM   16  C   UNL     1       7.043  33.828  63.684  1.00  0.00     0.099 A 
HETATM   17  C   UNL     1       6.316  34.107  62.519  1.00  0.00     0.102 A 
HETATM   18  C   UNL     1       6.457  33.264  61.417  1.00  0.00     0.052 A 
BRANCH  16  19
HETATM   19  O   UNL     1       6.938  34.649  64.773  1.00  0.00    -0.358 OA
HETATM   20  H   UNL     1       6.633  34.070  65.498  1.00  0.00     0.218 HD
ENDBRANCH  16  19
BRANCH  17  21
HETATM   21  O   UNL     1       5.531  35.228  62.588  1.00  0.00    -0.349 OA
BRANCH  21  22
HETATM   22  C   UNL     1       4.121  35.022  62.657  1.00  0.00     0.171 C 
HETATM   23  C   UNL     1       3.470  36.368  62.927  1.00  0.00     0.034 C 
ENDBRANCH  21  22
ENDBRANCH  17  21
ENDBRANCH  12  13
ENDBRANCH   8  11
ENDBRANCH   1   7
BRANCH   5  24
HETATM   24  C   UNL     1       7.542  25.777  54.621  1.00  0.00     0.005 A 
HETATM   25  C   UNL     1       7.832  24.583  55.353  1.00  0.00    -0.012 A 
HETATM   26  C   UNL     1       7.941  23.431  54.607  1.00  0.00    -0.012 A 
HETATM   27  C   UNL     1       8.026  24.396  56.747  1.00  0.00     0.013 A 
HETATM   28  C   UNL     1       8.237  22.183  55.126  1.00  0.00    -0.046 A 
HETATM   29  C   UNL     1       7.777  23.369  53.236  1.00  0.00    -0.046 A 
HETATM   30  C   UNL     1       8.445  21.993  56.483  1.00  0.00     0.008 A 
HETATM   31  C   UNL     1       8.297  21.166  54.041  1.00  0.00     0.044 A 
HETATM   32  C   UNL     1       8.329  23.131  57.292  1.00  0.00     0.001 A 
HETATM   33  C   UNL     1       7.971  21.975  52.749  1.00  0.00     0.044 A 
HETATM   34  C   UNL     1       7.484  24.498  52.493  1.00  0.00     0.009 A 
HETATM   35  C   UNL     1       7.375  25.700  53.209  1.00  0.00     0.015 A 
ENDBRANCH   5  24
TORSDOF 7
ENDMDL
MODEL 4
REMARK VINA RESULT:     -10.0      1.245      1.915
REMARK  7 active torsions:
REMARK  status: ('A' for Active; 'I' for Inactive)
REMARK    1  A    between atoms: C_2  and  O_3 
REMARK    2  A    between atoms: O_3  and  C_4 
REMARK    3  A    between atoms: C_5  and  O_6 
REMARK    4  A    between atoms: C_9  and  C_10 
REMARK    5  A    between atoms: N_11  and  N_12 
REMARK       I    between atoms: N_12  and  C_13 
REMARK    6  A    between atoms: C_13  and  C_14 
REMARK    7  A    between atoms: C_18  and  C_19 
ROOT
HETATM    1  C   UNL     1       8.161  30.256  58.344  1.00  0.00     0.121 A 
HETATM    2  N   UNL     1       9.434  29.939  57.964  1.00  0.00    -0.272 N 
HETATM    3  H   UNL     1      10.286  30.425  58.230  1.00  0.00     0.189 HD
HETATM    4  N   UNL     1       9.513  28.916  57.106  1.00  0.00    -0.174 NA
HETATM    5  C   UNL     1       8.246  28.514  56.924  1.00  0.00     0.090 A 
HETATM    6  C   UNL     1       7.369  29.308  57.725  1.00  0.00     0.071 A 
ENDROOT
BRANCH   1   7
HETATM    7  C   UNL     1       7.885  31.413  59.159  1.00  0.00     0.289 C 
HETATM    8  N   UNL     1       6.694  31.343  59.871  1.00  0.00    -0.242 N 
HETATM    9  H   UNL     1       6.289  30.431  60.044  1.00  0.00     0.192 HD
HETATM   10  O   UNL     1       8.652  32.371  59.171  1.00  0.00    -0.264 OA
BRANCH   8  11
HETATM   11  N   UNL     1       6.113  32.355  60.599  1.00  0.00    -0.184 NA
HETATM   12  C   UNL     1       5.975  32.168  61.875  1.00  0.00     0.150 C 
BRANCH  12  13
HETATM   13  C   UNL     1       5.388  33.192  62.763  1.00  0.00    -0.014 A 
HETATM   14  C   UNL     1       4.853  34.345  62.174  1.00  0.00     0.016 A 
HETATM   15  C   UNL     1       4.243  35.309  62.973  1.00  0.00     0.040 A 
HETATM   16  C   UNL     1       4.180  35.109  64.346  1.00  0.00     0.099 A 
HETATM   17  C   UNL     1       4.725  33.969  64.952  1.00  0.00     0.102 A 
HETATM   18  C   UNL     1       5.331  33.002  64.151  1.00  0.00     0.052 A 
BRANCH  16  19
HETATM   19  O   UNL     1       3.563  36.064  65.107  1.00  0.00    -0.358 OA
HETATM   20  H   UNL     1       4.118  36.861  65.011  1.00  0.00     0.218 HD
ENDBRANCH  16  19
BRANCH  17  21
HETATM   21  O   UNL     1       4.582  33.921  66.315  1.00  0.00    -0.349 OA
BRANCH  21  22
HETATM   22  C   UNL     1       5.710  34.316  67.094  1.00  0.00     0.171 C 
HETATM   23  C   UNL     1       5.322  34.206  68.558  1.00  0.00     0.034 C 
ENDBRANCH  21  22
ENDBRANCH  17  21
ENDBRANCH  12  13
ENDBRANCH   8  11
ENDBRANCH   1   7
BRANCH   5  24
HETATM   24  C   UNL     1       7.872  27.464  55.960  1.00  0.00     0.005 A 
HETATM   25  C   UNL     1       8.012  26.067  56.234  1.00  0.00    -0.012 A 
HETATM   26  C   UNL     1       7.669  25.214  55.209  1.00  0.00    -0.012 A 
HETATM   27  C   UNL     1       8.456  25.413  57.414  1.00  0.00     0.013 A 
HETATM   28  C   UNL     1       7.757  23.835  55.271  1.00  0.00    -0.046 A 
HETATM   29  C   UNL     1       7.199  25.624  53.976  1.00  0.00    -0.046 A 
HETATM   30  C   UNL     1       8.204  23.187  56.412  1.00  0.00     0.008 A 
HETATM   31  C   UNL     1       7.327  23.225  53.983  1.00  0.00     0.044 A 
HETATM   32  C   UNL     1       8.551  24.007  57.493  1.00  0.00     0.001 A 
HETATM   33  C   UNL     1       6.933  24.448  53.101  1.00  0.00     0.044 A 
HETATM   34  C   UNL     1       7.037  26.964  53.675  1.00  0.00     0.009 A 
HETATM   35  C   UNL     1       7.386  27.873  54.686  1.00  0.00     0.015 A 
ENDBRANCH   5  24
TORSDOF 7
ENDMDL
MODEL 5
REMARK VINA RESULT:     -10.0      1.754      3.003
REMARK  7 active torsions:
REMARK  status: ('A' for Active; 'I' for Inactive)
REMARK    1  A    between atoms: C_2  and  O_3 
REMARK    2  A    between atoms: O_3  and  C_4 
REMARK    3  A    between atoms: C_5  and  O_6 
REMARK    4  A    between atoms: C_9  and  C_10 
REMARK    5  A    between atoms: N_11  and  N_12 
REMARK       I    between atoms: N_12  and  C_13 
REMARK    6  A    between atoms: C_13  and  C_14 
REMARK    7  A    between atoms: C_18  and  C_19 
ROOT
HETATM    1  C   UNL     1       6.194  29.337  56.886  1.00  0.00     0.121 A 
HETATM    2  N   UNL     1       7.090  29.594  55.886  1.00  0.00    -0.272 N 
HETATM    3  H   UNL     1       7.258  30.490  55.437  1.00  0.00     0.189 HD
HETATM    4  N   UNL     1       7.746  28.515  55.444  1.00  0.00    -0.174 NA
HETATM    5  C   UNL     1       7.291  27.499  56.194  1.00  0.00     0.090 A 
HETATM    6  C   UNL     1       6.344  27.989  57.146  1.00  0.00     0.071 A 
ENDROOT
BRANCH   1   7
HETATM    7  C   UNL     1       5.311  30.361  57.385  1.00  0.00     0.289 C 
HETATM    8  N   UNL     1       5.751  30.982  58.547  1.00  0.00    -0.242 N 
HETATM    9  H   UNL     1       6.738  30.940  58.772  1.00  0.00     0.192 HD
HETATM   10  O   UNL     1       4.253  30.612  56.815  1.00  0.00    -0.264 OA
BRANCH   8  11
HETATM   11  N   UNL     1       5.045  31.876  59.317  1.00  0.00    -0.184 NA
HETATM   12  C   UNL     1       5.620  32.326  60.389  1.00  0.00     0.150 C 
BRANCH  12  13
HETATM   13  C   UNL     1       4.971  33.308  61.281  1.00  0.00    -0.014 A 
HETATM   14  C   UNL     1       4.589  34.540  60.736  1.00  0.00     0.016 A 
HETATM   15  C   UNL     1       3.927  35.471  61.531  1.00  0.00     0.040 A 
HETATM   16  C   UNL     1       3.658  35.160  62.857  1.00  0.00     0.099 A 
HETATM   17  C   UNL     1       4.048  33.938  63.423  1.00  0.00     0.102 A 
HETATM   18  C   UNL     1       4.707  33.004  62.624  1.00  0.00     0.052 A 
BRANCH  16  19
HETATM   19  O   UNL     1       2.993  36.086  63.613  1.00  0.00    -0.358 OA
HETATM   20  H   UNL     1       2.758  35.618  64.437  1.00  0.00     0.218 HD
ENDBRANCH  16  19
BRANCH  17  21
HETATM   21  O   UNL     1       3.711  33.784  64.742  1.00  0.00    -0.349 OA
BRANCH  21  22
HETATM   22  C   UNL     1       4.782  33.796  65.685  1.00  0.00     0.171 C 
HETATM   23  C   UNL     1       4.243  34.359  66.989  1.00  0.00     0.034 C 
ENDBRANCH  21  22
ENDBRANCH  17  21
ENDBRANCH  12  13
ENDBRANCH   8  11
ENDBRANCH   1   7
BRANCH   5  24
HETATM   24  C   UNL     1       7.684  26.098  55.963  1.00  0.00     0.005 A 
HETATM   25  C   UNL     1       7.673  25.488  54.669  1.00  0.00    -0.012 A 
HETATM   26  C   UNL     1       8.015  24.155  54.629  1.00  0.00    -0.012 A 
HETATM   27  C   UNL     1       7.361  26.049  53.402  1.00  0.00     0.013 A 
HETATM   28  C   UNL     1       8.041  23.384  53.480  1.00  0.00    -0.046 A 
HETATM   29  C   UNL     1       8.369  23.405  55.734  1.00  0.00    -0.046 A 
HETATM   30  C   UNL     1       7.723  23.919  52.241  1.00  0.00     0.008 A 
HETATM   31  C   UNL     1       8.433  21.984  53.798  1.00  0.00     0.044 A 
HETATM   32  C   UNL     1       7.384  25.277  52.222  1.00  0.00     0.001 A 
HETATM   33  C   UNL     1       8.669  22.001  55.338  1.00  0.00     0.044 A 
HETATM   34  C   UNL     1       8.404  23.959  57.001  1.00  0.00     0.009 A 
HETATM   35  C   UNL     1       8.051  25.315  57.094  1.00  0.00     0.015 A 
ENDBRANCH   5  24
TORSDOF 7
ENDMDL
MODEL 6
REMARK VINA RESULT:      -9.9      1.998      3.175
REMARK  7 active torsions:
REMARK  status: ('A' for Active; 'I' for Inactive)
REMARK    1  A    between atoms: C_2  and  O_3 
REMARK    2  A    between atoms: O_3  and  C_4 
REMARK    3  A    between atoms: C_5  and  O_6 
REMARK    4  A    between atoms: C_9  and  C_10 
REMARK    5  A    between atoms: N_11  and  N_12 
REMARK       I    between atoms: N_12  and  C_13 
REMARK    6  A    between atoms: C_13  and  C_14 
REMARK    7  A    between atoms: C_18  and  C_19 
ROOT
HETATM    1  C   UNL     1       6.891  28.124  56.190  1.00  0.00     0.121 A 
HETATM    2  N   UNL     1       7.294  28.488  54.937  1.00  0.00    -0.272 N 
HETATM    3  H   UNL     1       7.328  29.431  54.559  1.00  0.00     0.189 HD
HETATM    4  N   UNL     1       7.608  27.460  54.140  1.00  0.00    -0.174 NA
HETATM    5  C   UNL     1       7.434  26.366  54.897  1.00  0.00     0.090 A 
HETATM    6  C   UNL     1       7.026  26.750  56.212  1.00  0.00     0.071 A 
ENDROOT
BRANCH   1   7
HETATM    7  C   UNL     1       6.391  29.096  57.131  1.00  0.00     0.289 C 
HETATM    8  N   UNL     1       7.365  29.930  57.666  1.00  0.00    -0.242 N 
HETATM    9  H   UNL     1       8.236  30.042  57.160  1.00  0.00     0.192 HD
HETATM   10  O   UNL     1       5.200  29.131  57.427  1.00  0.00    -0.264 OA
BRANCH   8  11
HETATM   11  N   UNL     1       7.198  30.835  58.688  1.00  0.00    -0.184 NA
HETATM   12  C   UNL     1       6.166  31.619  58.628  1.00  0.00     0.150 C 
BRANCH  12  13
HETATM   13  C   UNL     1       5.869  32.614  59.679  1.00  0.00    -0.014 A 
HETATM   14  C   UNL     1       4.723  33.406  59.530  1.00  0.00     0.016 A 
HETATM   15  C   UNL     1       4.380  34.318  60.524  1.00  0.00     0.040 A 
HETATM   16  C   UNL     1       5.186  34.427  61.650  1.00  0.00     0.099 A 
HETATM   17  C   UNL     1       6.345  33.655  61.806  1.00  0.00     0.102 A 
HETATM   18  C   UNL     1       6.685  32.738  60.812  1.00  0.00     0.052 A 
BRANCH  16  19
HETATM   19  O   UNL     1       4.819  35.320  62.618  1.00  0.00    -0.358 OA
HETATM   20  H   UNL     1       5.171  36.180  62.317  1.00  0.00     0.218 HD
ENDBRANCH  16  19
BRANCH  17  21
HETATM   21  O   UNL     1       7.032  33.882  62.970  1.00  0.00    -0.349 OA
BRANCH  21  22
HETATM   22  C   UNL     1       6.931  32.880  63.982  1.00  0.00     0.171 C 
HETATM   23  C   UNL     1       7.016  33.575  65.330  1.00  0.00     0.034 C 
ENDBRANCH  21  22
ENDBRANCH  17  21
ENDBRANCH  12  13
ENDBRANCH   8  11
ENDBRANCH   1   7
BRANCH   5  24
HETATM   24  C   UNL     1       7.575  24.998  54.367  1.00  0.00     0.005 A 
HETATM   25  C   UNL     1       7.853  23.865  55.195  1.00  0.00    -0.012 A 
HETATM   26  C   UNL     1       8.009  22.664  54.540  1.00  0.00    -0.012 A 
HETATM   27  C   UNL     1       7.997  23.784  56.606  1.00  0.00     0.013 A 
HETATM   28  C   UNL     1       8.304  21.463  55.160  1.00  0.00    -0.046 A 
HETATM   29  C   UNL     1       7.899  22.500  53.173  1.00  0.00    -0.046 A 
HETATM   30  C   UNL     1       8.462  21.376  56.534  1.00  0.00     0.008 A 
HETATM   31  C   UNL     1       8.422  20.371  54.155  1.00  0.00     0.044 A 
HETATM   32  C   UNL     1       8.297  22.567  57.253  1.00  0.00     0.001 A 
HETATM   33  C   UNL     1       8.133  21.078  52.797  1.00  0.00     0.044 A 
HETATM   34  C   UNL     1       7.618  23.567  52.338  1.00  0.00     0.009 A 
HETATM   35  C   UNL     1       7.464  24.816  52.960  1.00  0.00     0.015 A 
ENDBRANCH   5  24
TORSDOF 7
ENDMDL
MODEL 7
REMARK VINA RESULT:      -9.7      2.230      3.164
REMARK  7 active torsions:
REMARK  status: ('A' for Active; 'I' for Inactive)
REMARK    1  A    between atoms: C_2  and  O_3 
REMARK    2  A    between atoms: O_3  and  C_4 
REMARK    3  A    between atoms: C_5  and  O_6 
REMARK    4  A    between atoms: C_9  and  C_10 
REMARK    5  A    between atoms: N_11  and  N_12 
REMARK       I    between atoms: N_12  and  C_13 
REMARK    6  A    between atoms: C_13  and  C_14 
REMARK    7  A    between atoms: C_18  and  C_19 
ROOT
HETATM    1  C   UNL     1       6.612  28.782  57.502  1.00  0.00     0.121 A 
HETATM    2  N   UNL     1       7.935  28.676  57.828  1.00  0.00    -0.272 N 
HETATM    3  H   UNL     1       8.515  29.393  58.255  1.00  0.00     0.189 HD
HETATM    4  N   UNL     1       8.497  27.515  57.473  1.00  0.00    -0.174 NA
HETATM    5  C   UNL     1       7.506  26.804  56.912  1.00  0.00     0.090 A 
HETATM    6  C   UNL     1       6.291  27.556  56.955  1.00  0.00     0.071 A 
ENDROOT
BRANCH   1   7
HETATM    7  C   UNL     1       5.888  30.014  57.692  1.00  0.00     0.289 C 
HETATM    8  N   UNL     1       6.456  30.876  58.622  1.00  0.00    -0.242 N 
HETATM    9  H   UNL     1       7.439  30.769  58.842  1.00  0.00     0.192 HD
HETATM   10  O   UNL     1       4.845  30.232  57.083  1.00  0.00    -0.264 OA
BRANCH   8  11
HETATM   11  N   UNL     1       5.904  32.038  59.108  1.00  0.00    -0.184 NA
HETATM   12  C   UNL     1       6.054  32.288  60.371  1.00  0.00     0.150 C 
BRANCH  12  13
HETATM   13  C   UNL     1       5.526  33.515  61.002  1.00  0.00    -0.014 A 
HETATM   14  C   UNL     1       6.206  34.027  62.115  1.00  0.00     0.016 A 
HETATM   15  C   UNL     1       5.772  35.211  62.704  1.00  0.00     0.040 A 
HETATM   16  C   UNL     1       4.665  35.864  62.177  1.00  0.00     0.099 A 
HETATM   17  C   UNL     1       3.964  35.356  61.074  1.00  0.00     0.102 A 
HETATM   18  C   UNL     1       4.403  34.173  60.482  1.00  0.00     0.052 A 
BRANCH  16  19
HETATM   19  O   UNL     1       4.267  37.033  62.765  1.00  0.00    -0.358 OA
HETATM   20  H   UNL     1       3.370  37.199  62.416  1.00  0.00     0.218 HD
ENDBRANCH  16  19
BRANCH  17  21
HETATM   21  O   UNL     1       2.895  36.116  60.676  1.00  0.00    -0.349 OA
BRANCH  21  22
HETATM   22  C   UNL     1       1.681  35.421  60.396  1.00  0.00     0.171 C 
HETATM   23  C   UNL     1       1.209  35.850  59.018  1.00  0.00     0.034 C 
ENDBRANCH  21  22
ENDBRANCH  17  21
ENDBRANCH  12  13
ENDBRANCH   8  11
ENDBRANCH   1   7
BRANCH   5  24
HETATM   24  C   UNL     1       7.723  25.488  56.285  1.00  0.00     0.005 A 
HETATM   25  C   UNL     1       7.672  25.280  54.871  1.00  0.00    -0.012 A 
HETATM   26  C   UNL     1       7.842  23.981  54.448  1.00  0.00    -0.012 A 
HETATM   27  C   UNL     1       7.470  26.215  53.821  1.00  0.00     0.013 A 
HETATM   28  C   UNL     1       7.803  23.573  53.126  1.00  0.00    -0.046 A 
HETATM   29  C   UNL     1       8.066  22.908  55.288  1.00  0.00    -0.046 A 
HETATM   30  C   UNL     1       7.591  24.476  52.095  1.00  0.00     0.008 A 
HETATM   31  C   UNL     1       8.004  22.102  53.026  1.00  0.00     0.044 A 
HETATM   32  C   UNL     1       7.428  25.815  52.469  1.00  0.00     0.001 A 
HETATM   33  C   UNL     1       8.196  21.648  54.504  1.00  0.00     0.044 A 
HETATM   34  C   UNL     1       8.135  23.068  56.661  1.00  0.00     0.009 A 
HETATM   35  C   UNL     1       7.955  24.375  57.141  1.00  0.00     0.015 A 
ENDBRANCH   5  24
TORSDOF 7
ENDMDL
MODEL 8
REMARK VINA RESULT:      -9.6      8.607     11.854
REMARK  7 active torsions:
REMARK  status: ('A' for Active; 'I' for Inactive)
REMARK    1  A    between atoms: C_2  and  O_3 
REMARK    2  A    between atoms: O_3  and  C_4 
REMARK    3  A    between atoms: C_5  and  O_6 
REMARK    4  A    between atoms: C_9  and  C_10 
REMARK    5  A    between atoms: N_11  and  N_12 
REMARK       I    between atoms: N_12  and  C_13 
REMARK    6  A    between atoms: C_13  and  C_14 
REMARK    7  A    between atoms: C_18  and  C_19 
ROOT
HETATM    1  C   UNL     1       5.747  26.623  51.697  1.00  0.00     0.121 A 
HETATM    2  N   UNL     1       4.821  25.619  51.671  1.00  0.00    -0.272 N 
HETATM    3  H   UNL     1       3.962  25.599  51.128  1.00  0.00     0.189 HD
HETATM    4  N   UNL     1       5.084  24.607  52.506  1.00  0.00    -0.174 NA
HETATM    5  C   UNL     1       6.244  24.932  53.096  1.00  0.00     0.090 A 
HETATM    6  C   UNL     1       6.715  26.177  52.576  1.00  0.00     0.071 A 
ENDROOT
BRANCH   1   7
HETATM    7  C   UNL     1       5.551  27.846  50.960  1.00  0.00     0.289 C 
HETATM    8  N   UNL     1       5.486  27.680  49.582  1.00  0.00    -0.242 N 
HETATM    9  H   UNL     1       5.248  26.766  49.216  1.00  0.00     0.192 HD
HETATM   10  O   UNL     1       5.482  28.926  51.538  1.00  0.00    -0.264 OA
BRANCH   8  11
HETATM   11  N   UNL     1       5.458  28.679  48.636  1.00  0.00    -0.184 NA
HETATM   12  C   UNL     1       4.331  29.292  48.449  1.00  0.00     0.150 C 
BRANCH  12  13
HETATM   13  C   UNL     1       4.184  30.397  47.479  1.00  0.00    -0.014 A 
HETATM   14  C   UNL     1       3.224  30.261  46.468  1.00  0.00     0.016 A 
HETATM   15  C   UNL     1       3.019  31.302  45.567  1.00  0.00     0.040 A 
HETATM   16  C   UNL     1       3.777  32.460  45.686  1.00  0.00     0.099 A 
HETATM   17  C   UNL     1       4.753  32.605  46.681  1.00  0.00     0.102 A 
HETATM   18  C   UNL     1       4.954  31.563  47.587  1.00  0.00     0.052 A 
BRANCH  16  19
HETATM   19  O   UNL     1       3.546  33.474  44.797  1.00  0.00    -0.358 OA
HETATM   20  H   UNL     1       4.428  33.844  44.602  1.00  0.00     0.218 HD
ENDBRANCH  16  19
BRANCH  17  21
HETATM   21  O   UNL     1       5.415  33.805  46.665  1.00  0.00    -0.349 OA
BRANCH  21  22
HETATM   22  C   UNL     1       6.841  33.753  46.676  1.00  0.00     0.171 C 
HETATM   23  C   UNL     1       7.313  33.679  45.234  1.00  0.00     0.034 C 
ENDBRANCH  21  22
ENDBRANCH  17  21
ENDBRANCH  12  13
ENDBRANCH   8  11
ENDBRANCH   1   7
BRANCH   5  24
HETATM   24  C   UNL     1       6.845  24.128  54.175  1.00  0.00     0.005 A 
HETATM   25  C   UNL     1       7.449  22.851  53.952  1.00  0.00    -0.012 A 
HETATM   26  C   UNL     1       7.915  22.202  55.073  1.00  0.00    -0.012 A 
HETATM   27  C   UNL     1       7.644  22.137  52.740  1.00  0.00     0.013 A 
HETATM   28  C   UNL     1       8.508  20.952  55.068  1.00  0.00    -0.046 A 
HETATM   29  C   UNL     1       7.845  22.710  56.356  1.00  0.00    -0.046 A 
HETATM   30  C   UNL     1       8.690  20.240  53.893  1.00  0.00     0.008 A 
HETATM   31  C   UNL     1       8.875  20.542  56.451  1.00  0.00     0.044 A 
HETATM   32  C   UNL     1       8.248  20.862  52.718  1.00  0.00     0.001 A 
HETATM   33  C   UNL     1       8.433  21.749  57.331  1.00  0.00     0.044 A 
HETATM   34  C   UNL     1       7.281  23.946  56.613  1.00  0.00     0.009 A 
HETATM   35  C   UNL     1       6.779  24.641  55.501  1.00  0.00     0.015 A 
ENDBRANCH   5  24
TORSDOF 7
ENDMDL
MODEL 9
REMARK VINA RESULT:      -9.5      1.662      2.214
REMARK  7 active torsions:
REMARK  status: ('A' for Active; 'I' for Inactive)
REMARK    1  A    between atoms: C_2  and  O_3 
REMARK    2  A    between atoms: O_3  and  C_4 
REMARK    3  A    between atoms: C_5  and  O_6 
REMARK    4  A    between atoms: C_9  and  C_10 
REMARK    5  A    between atoms: N_11  and  N_12 
REMARK       I    between atoms: N_12  and  C_13 
REMARK    6  A    between atoms: C_13  and  C_14 
REMARK    7  A    between atoms: C_18  and  C_19 
ROOT
HETATM    1  C   UNL     1       7.084  29.693  57.672  1.00  0.00     0.121 A 
HETATM    2  N   UNL     1       8.255  29.103  58.057  1.00  0.00    -0.272 N 
HETATM    3  H   UNL     1       8.901  29.440  58.765  1.00  0.00     0.189 HD
HETATM    4  N   UNL     1       8.574  28.006  57.359  1.00  0.00    -0.174 NA
HETATM    5  C   UNL     1       7.564  27.839  56.491  1.00  0.00     0.090 A 
HETATM    6  C   UNL     1       6.584  28.859  56.691  1.00  0.00     0.071 A 
ENDROOT
BRANCH   1   7
HETATM    7  C   UNL     1       6.660  30.954  58.227  1.00  0.00     0.289 C 
HETATM    8  N   UNL     1       6.999  31.136  59.562  1.00  0.00    -0.242 N 
HETATM    9  H   UNL     1       7.758  30.585  59.947  1.00  0.00     0.192 HD
HETATM   10  O   UNL     1       6.029  31.760  57.549  1.00  0.00    -0.264 OA
BRANCH   8  11
HETATM   11  N   UNL     1       6.593  32.166  60.378  1.00  0.00    -0.184 NA
HETATM   12  C   UNL     1       5.335  32.222  60.687  1.00  0.00     0.150 C 
BRANCH  12  13
HETATM   13  C   UNL     1       4.786  33.267  61.575  1.00  0.00    -0.014 A 
HETATM   14  C   UNL     1       3.569  33.010  62.220  1.00  0.00     0.016 A 
HETATM   15  C   UNL     1       3.046  33.948  63.105  1.00  0.00     0.040 A 
HETATM   16  C   UNL     1       3.743  35.128  63.332  1.00  0.00     0.099 A 
HETATM   17  C   UNL     1       4.953  35.408  62.683  1.00  0.00     0.102 A 
HETATM   18  C   UNL     1       5.479  34.466  61.799  1.00  0.00     0.052 A 
BRANCH  16  19
HETATM   19  O   UNL     1       3.214  36.026  64.218  1.00  0.00    -0.358 OA
HETATM   20  H   UNL     1       2.442  36.410  63.759  1.00  0.00     0.218 HD
ENDBRANCH  16  19
BRANCH  17  21
HETATM   21  O   UNL     1       5.515  36.613  63.013  1.00  0.00    -0.349 OA
BRANCH  21  22
HETATM   22  C   UNL     1       5.468  37.638  62.020  1.00  0.00     0.171 C 
HETATM   23  C   UNL     1       6.464  38.713  62.418  1.00  0.00     0.034 C 
ENDBRANCH  21  22
ENDBRANCH  17  21
ENDBRANCH  12  13
ENDBRANCH   8  11
ENDBRANCH   1   7
BRANCH   5  24
HETATM   24  C   UNL     1       7.568  26.793  55.454  1.00  0.00     0.005 A 
HETATM   25  C   UNL     1       7.766  25.406  55.744  1.00  0.00    -0.012 A 
HETATM   26  C   UNL     1       7.797  24.562  54.657  1.00  0.00    -0.012 A 
HETATM   27  C   UNL     1       7.937  24.755  56.995  1.00  0.00     0.013 A 
HETATM   28  C   UNL     1       7.999  23.195  54.729  1.00  0.00    -0.046 A 
HETATM   29  C   UNL     1       7.639  24.969  53.347  1.00  0.00    -0.046 A 
HETATM   30  C   UNL     1       8.183  22.552  55.944  1.00  0.00     0.008 A 
HETATM   31  C   UNL     1       7.994  22.593  53.368  1.00  0.00     0.044 A 
HETATM   32  C   UNL     1       8.143  23.362  57.085  1.00  0.00     0.001 A 
HETATM   33  C   UNL     1       7.735  23.804  52.423  1.00  0.00     0.044 A 
HETATM   34  C   UNL     1       7.433  26.298  53.024  1.00  0.00     0.009 A 
HETATM   35  C   UNL     1       7.406  27.200  54.099  1.00  0.00     0.015 A 
ENDBRANCH   5  24
TORSDOF 7
ENDMDL
MODEL 10
REMARK VINA RESULT:      -9.2      3.016      4.347
REMARK  7 active torsions:
REMARK  status: ('A' for Active; 'I' for Inactive)
REMARK    1  A    between atoms: C_2  and  O_3 
REMARK    2  A    between atoms: O_3  and  C_4 
REMARK    3  A    between atoms: C_5  and  O_6 
REMARK    4  A    between atoms: C_9  and  C_10 
REMARK    5  A    between atoms: N_11  and  N_12 
REMARK       I    between atoms: N_12  and  C_13 
REMARK    6  A    between atoms: C_13  and  C_14 
REMARK    7  A    between atoms: C_18  and  C_19 
ROOT
HETATM    1  C   UNL     1       5.967  27.454  56.343  1.00  0.00     0.121 A 
HETATM    2  N   UNL     1       7.278  27.377  56.719  1.00  0.00    -0.272 N 
HETATM    3  H   UNL     1       7.804  28.075  57.238  1.00  0.00     0.189 HD
HETATM    4  N   UNL     1       7.912  26.282  56.284  1.00  0.00    -0.174 NA
HETATM    5  C   UNL     1       6.982  25.584  55.613  1.00  0.00     0.090 A 
HETATM    6  C   UNL     1       5.731  26.272  55.668  1.00  0.00     0.071 A 
ENDROOT
BRANCH   1   7
HETATM    7  C   UNL     1       5.175  28.628  56.614  1.00  0.00     0.289 C 
HETATM    8  N   UNL     1       5.811  29.580  57.401  1.00  0.00    -0.242 N 
HETATM    9  H   UNL     1       6.823  29.568  57.450  1.00  0.00     0.192 HD
HETATM   10  O   UNL     1       4.028  28.726  56.188  1.00  0.00    -0.264 OA
BRANCH   8  11
HETATM   11  N   UNL     1       5.245  30.714  57.935  1.00  0.00    -0.184 NA
HETATM   12  C   UNL     1       5.343  31.810  57.249  1.00  0.00     0.150 C 
BRANCH  12  13
HETATM   13  C   UNL     1       4.753  33.084  57.708  1.00  0.00    -0.014 A 
HETATM   14  C   UNL     1       4.839  34.193  56.857  1.00  0.00     0.016 A 
HETATM   15  C   UNL     1       4.249  35.398  57.231  1.00  0.00     0.040 A 
HETATM   16  C   UNL     1       3.586  35.477  58.448  1.00  0.00     0.099 A 
HETATM   17  C   UNL     1       3.506  34.382  59.319  1.00  0.00     0.102 A 
HETATM   18  C   UNL     1       4.092  33.175  58.941  1.00  0.00     0.052 A 
BRANCH  16  19
HETATM   19  O   UNL     1       3.003  36.668  58.786  1.00  0.00    -0.358 OA
HETATM   20  H   UNL     1       3.529  37.348  58.323  1.00  0.00     0.218 HD
ENDBRANCH  16  19
BRANCH  17  21
HETATM   21  O   UNL     1       2.819  34.622  60.480  1.00  0.00    -0.349 OA
BRANCH  21  22
HETATM   22  C   UNL     1       2.987  33.675  61.535  1.00  0.00     0.171 C 
HETATM   23  C   UNL     1       3.738  34.365  62.660  1.00  0.00     0.034 C 
ENDBRANCH  21  22
ENDBRANCH  17  21
ENDBRANCH  12  13
ENDBRANCH   8  11
ENDBRANCH   1   7
BRANCH   5  24
HETATM   24  C   UNL     1       7.291  24.346  54.876  1.00  0.00     0.005 A 
HETATM   25  C   UNL     1       7.737  23.147  55.516  1.00  0.00    -0.012 A 
HETATM   26  C   UNL     1       8.035  22.094  54.681  1.00  0.00    -0.012 A 
HETATM   27  C   UNL     1       7.923  22.870  56.897  1.00  0.00     0.013 A 
HETATM   28  C   UNL     1       8.502  20.863  55.106  1.00  0.00    -0.046 A 
HETATM   29  C   UNL     1       7.917  22.129  53.305  1.00  0.00    -0.046 A 
HETATM   30  C   UNL     1       8.702  20.587  56.449  1.00  0.00     0.008 A 
HETATM   31  C   UNL     1       8.740  19.965  53.943  1.00  0.00     0.044 A 
HETATM   32  C   UNL     1       8.397  21.619  57.345  1.00  0.00     0.001 A 
HETATM   33  C   UNL     1       8.329  20.827  52.712  1.00  0.00     0.044 A 
HETATM   34  C   UNL     1       7.477  23.264  52.648  1.00  0.00     0.009 A 
HETATM   35  C   UNL     1       7.172  24.370  53.457  1.00  0.00     0.015 A 
ENDBRANCH   5  24
TORSDOF 7
ENDMDL
