MODEL 1
REMARK VINA RESULT:     -10.1      0.000      0.000
REMARK  7 active torsions:
REMARK  status: ('A' for Active; 'I' for Inactive)
REMARK    1  A    between atoms: C_3  and  N_4 
REMARK    2  A    between atoms: N_7  and  C_9 
REMARK    3  A    between atoms: N_12  and  C_13 
REMARK    4  A    between atoms: C_16  and  C_17 
REMARK       I    between atoms: C_17  and  N_18 
REMARK    5  A    between atoms: C_20  and  C_21 
REMARK    6  A    between atoms: C_21  and  O_22 
REMARK    7  A    between atoms: C_33  and  O_34 
ROOT
HETATM    1  C   UNL     1       6.406  31.422  58.214  1.00  0.00     0.191 C 
HETATM    2  C   UNL     1       7.585  30.456  58.005  1.00  0.00     0.053 C 
HETATM    3  C   UNL     1       7.185  28.998  58.217  1.00  0.00     0.125 C 
HETATM    4  N   UNL     1       6.009  28.694  57.409  1.00  0.00    -0.381 N 
HETATM    5  C   UNL     1       4.850  29.570  57.441  1.00  0.00     0.125 C 
HETATM    6  C   UNL     1       5.275  31.020  57.256  1.00  0.00     0.053 C 
ENDROOT
BRANCH   4   7
HETATM    7  C   UNL     1       6.137  27.721  56.428  1.00  0.00     0.030 A 
HETATM    8  C   UNL     1       5.467  26.494  56.560  1.00  0.00     0.030 A 
HETATM    9  C   UNL     1       5.601  25.483  55.604  1.00  0.00     0.019 A 
HETATM   10  C   UNL     1       6.417  25.677  54.489  1.00  0.00     0.032 A 
HETATM   11  C   UNL     1       7.113  26.880  54.351  1.00  0.00     0.019 A 
HETATM   12  C   UNL     1       6.951  27.898  55.299  1.00  0.00     0.030 A 
BRANCH  10  13
HETATM   13  C   UNL     1       6.617  24.541  53.554  1.00  0.00     0.253 C 
HETATM   14  N   UNL     1       7.484  23.495  53.892  1.00  0.00    -0.348 N 
HETATM   15  C   UNL     1       8.690  23.694  54.703  1.00  0.00     0.132 C 
HETATM   16  C   UNL     1       7.565  22.393  52.931  1.00  0.00     0.126 C 
HETATM   17  C   UNL     1       9.118  22.412  55.429  1.00  0.00     0.027 C 
HETATM   18  C   UNL     1       9.246  21.252  54.429  1.00  0.00     0.010 C 
HETATM   19  C   UNL     1       7.980  21.083  53.591  1.00  0.00     0.020 C 
HETATM   20  O   UNL     1       5.964  24.563  52.511  1.00  0.00    -0.267 OA
BRANCH  17  21
HETATM   21  C   UNL     1       8.155  22.100  56.583  1.00  0.00     0.170 C 
BRANCH  21  22
HETATM   22  O   UNL     1       8.050  23.195  57.482  1.00  0.00    -0.400 OA
HETATM   23  H   UNL     1       8.729  23.851  57.248  1.00  0.00     0.209 HD
ENDBRANCH  21  22
ENDBRANCH  17  21
ENDBRANCH  10  13
ENDBRANCH   4   7
BRANCH   1  24
HETATM   24  N   UNL     1       5.965  31.451  59.692  1.00  0.00    -0.064 N 
HETATM   25  C   UNL     1       7.046  32.063  60.611  1.00  0.00     0.255 C 
HETATM   26  C   UNL     1       6.645  31.926  62.092  1.00  0.00     0.150 C 
HETATM   27  N   UNL     1       5.320  32.528  62.363  1.00  0.00    -0.375 N 
HETATM   28  C   UNL     1       4.245  32.106  61.450  1.00  0.00     0.150 C 
HETATM   29  C   UNL     1       4.644  32.194  59.959  1.00  0.00     0.255 C 
HETATM   30  H   UNL     1       5.816  30.484  60.006  1.00  0.00     0.280 HD
BRANCH  27  31
HETATM   31  C   UNL     1       5.360  33.856  62.821  1.00  0.00     0.063 A 
HETATM   32  C   UNL     1       5.662  34.956  62.010  1.00  0.00     0.032 A 
HETATM   33  C   UNL     1       5.721  36.254  62.540  1.00  0.00     0.002 A 
HETATM   34  C   UNL     1       5.469  36.481  63.891  1.00  0.00     0.003 A 
HETATM   35  C   UNL     1       5.133  35.414  64.716  1.00  0.00     0.039 A 
HETATM   36  C   UNL     1       5.063  34.135  64.174  1.00  0.00     0.092 A 
BRANCH  36  37
HETATM   37  O   UNL     1       4.614  33.130  64.992  1.00  0.00    -0.358 OA
HETATM   38  H   UNL     1       4.188  33.598  65.734  1.00  0.00     0.218 HD
ENDBRANCH  36  37
ENDBRANCH  27  31
ENDBRANCH   1  24
TORSDOF 7
ENDMDL
MODEL 2
REMARK VINA RESULT:      -9.2      1.812     12.154
REMARK  7 active torsions:
REMARK  status: ('A' for Active; 'I' for Inactive)
REMARK    1  A    between atoms: C_3  and  N_4 
REMARK    2  A    between atoms: N_7  and  C_9 
REMARK    3  A    between atoms: N_12  and  C_13 
REMARK    4  A    between atoms: C_16  and  C_17 
REMARK       I    between atoms: C_17  and  N_18 
REMARK    5  A    between atoms: C_20  and  C_21 
REMARK    6  A    between atoms: C_21  and  O_22 
REMARK    7  A    between atoms: C_33  and  O_34 
ROOT
HETATM    1  C   UNL     1       7.334  30.052  56.756  1.00  0.00     0.191 C 
HETATM    2  C   UNL     1       6.037  30.873  56.858  1.00  0.00     0.053 C 
HETATM    3  C   UNL     1       5.384  30.759  58.233  1.00  0.00     0.125 C 
HETATM    4  N   UNL     1       6.368  31.061  59.265  1.00  0.00    -0.381 N 
HETATM    5  C   UNL     1       7.674  30.421  59.246  1.00  0.00     0.125 C 
HETATM    6  C   UNL     1       8.293  30.523  57.859  1.00  0.00     0.053 C 
ENDROOT
BRANCH   4   7
HETATM    7  C   UNL     1       6.127  32.155  60.086  1.00  0.00     0.030 A 
HETATM    8  C   UNL     1       5.092  33.052  59.778  1.00  0.00     0.030 A 
HETATM    9  C   UNL     1       4.845  34.179  60.567  1.00  0.00     0.019 A 
HETATM   10  C   UNL     1       5.636  34.437  61.687  1.00  0.00     0.032 A 
HETATM   11  C   UNL     1       6.687  33.572  61.996  1.00  0.00     0.019 A 
HETATM   12  C   UNL     1       6.910  32.429  61.216  1.00  0.00     0.030 A 
BRANCH  10  13
HETATM   13  C   UNL     1       5.410  35.699  62.434  1.00  0.00     0.253 C 
HETATM   14  N   UNL     1       4.833  35.669  63.709  1.00  0.00    -0.348 N 
HETATM   15  C   UNL     1       3.838  34.667  64.107  1.00  0.00     0.132 C 
HETATM   16  C   UNL     1       4.709  36.961  64.389  1.00  0.00     0.126 C 
HETATM   17  C   UNL     1       3.812  34.447  65.626  1.00  0.00     0.027 C 
HETATM   18  C   UNL     1       3.644  35.790  66.354  1.00  0.00     0.010 C 
HETATM   19  C   UNL     1       4.684  36.814  65.906  1.00  0.00     0.020 C 
HETATM   20  O   UNL     1       5.784  36.738  61.890  1.00  0.00    -0.267 OA
BRANCH  17  21
HETATM   21  C   UNL     1       5.060  33.675  66.078  1.00  0.00     0.170 C 
BRANCH  21  22
HETATM   22  O   UNL     1       5.216  33.723  67.490  1.00  0.00    -0.400 OA
HETATM   23  H   UNL     1       4.466  33.257  67.897  1.00  0.00     0.209 HD
ENDBRANCH  21  22
ENDBRANCH  17  21
ENDBRANCH  10  13
ENDBRANCH   4   7
BRANCH   1  24
HETATM   24  N   UNL     1       7.041  28.539  56.816  1.00  0.00    -0.064 N 
HETATM   25  C   UNL     1       6.088  28.085  55.687  1.00  0.00     0.255 C 
HETATM   26  C   UNL     1       5.686  26.609  55.873  1.00  0.00     0.150 C 
HETATM   27  N   UNL     1       6.867  25.721  55.955  1.00  0.00    -0.375 N 
HETATM   28  C   UNL     1       7.901  26.145  56.914  1.00  0.00     0.150 C 
HETATM   29  C   UNL     1       8.286  27.636  56.773  1.00  0.00     0.255 C 
HETATM   30  H   UNL     1       6.571  28.333  57.707  1.00  0.00     0.280 HD
BRANCH  27  31
HETATM   31  C   UNL     1       7.250  25.137  54.736  1.00  0.00     0.063 A 
HETATM   32  C   UNL     1       7.614  25.867  53.597  1.00  0.00     0.032 A 
HETATM   33  C   UNL     1       7.951  25.221  52.398  1.00  0.00     0.002 A 
HETATM   34  C   UNL     1       7.941  23.830  52.315  1.00  0.00     0.003 A 
HETATM   35  C   UNL     1       7.618  23.077  53.437  1.00  0.00     0.039 A 
HETATM   36  C   UNL     1       7.300  23.730  54.622  1.00  0.00     0.092 A 
BRANCH  36  37
HETATM   37  O   UNL     1       7.103  22.952  55.734  1.00  0.00    -0.358 OA
HETATM   38  H   UNL     1       6.950  22.057  55.377  1.00  0.00     0.218 HD
ENDBRANCH  36  37
ENDBRANCH  27  31
ENDBRANCH   1  24
TORSDOF 7
ENDMDL
MODEL 3
REMARK VINA RESULT:      -9.2      2.109     11.752
REMARK  7 active torsions:
REMARK  status: ('A' for Active; 'I' for Inactive)
REMARK    1  A    between atoms: C_3  and  N_4 
REMARK    2  A    between atoms: N_7  and  C_9 
REMARK    3  A    between atoms: N_12  and  C_13 
REMARK    4  A    between atoms: C_16  and  C_17 
REMARK       I    between atoms: C_17  and  N_18 
REMARK    5  A    between atoms: C_20  and  C_21 
REMARK    6  A    between atoms: C_21  and  O_22 
REMARK    7  A    between atoms: C_33  and  O_34 
ROOT
HETATM    1  C   UNL     1       7.767  27.882  55.869  1.00  0.00     0.191 C 
HETATM    2  C   UNL     1       6.482  28.563  55.368  1.00  0.00     0.053 C 
HETATM    3  C   UNL     1       5.479  28.808  56.494  1.00  0.00     0.125 C 
HETATM    4  N   UNL     1       6.140  29.505  57.590  1.00  0.00    -0.381 N 
HETATM    5  C   UNL     1       7.409  29.022  58.110  1.00  0.00     0.125 C 
HETATM    6  C   UNL     1       8.382  28.759  56.970  1.00  0.00     0.053 C 
ENDROOT
BRANCH   4   7
HETATM    7  C   UNL     1       5.669  30.767  57.928  1.00  0.00     0.030 A 
HETATM    8  C   UNL     1       6.366  31.555  58.858  1.00  0.00     0.030 A 
HETATM    9  C   UNL     1       5.900  32.816  59.241  1.00  0.00     0.019 A 
HETATM   10  C   UNL     1       4.715  33.318  58.702  1.00  0.00     0.032 A 
HETATM   11  C   UNL     1       3.992  32.540  57.795  1.00  0.00     0.019 A 
HETATM   12  C   UNL     1       4.481  31.290  57.395  1.00  0.00     0.030 A 
BRANCH  10  13
HETATM   13  C   UNL     1       4.199  34.612  59.214  1.00  0.00     0.253 C 
HETATM   14  N   UNL     1       3.737  34.713  60.532  1.00  0.00    -0.348 N 
HETATM   15  C   UNL     1       3.085  33.601  61.233  1.00  0.00     0.132 C 
HETATM   16  C   UNL     1       3.306  36.046  60.961  1.00  0.00     0.126 C 
HETATM   17  C   UNL     1       3.220  33.718  62.757  1.00  0.00     0.027 C 
HETATM   18  C   UNL     1       2.736  35.099  63.229  1.00  0.00     0.010 C 
HETATM   19  C   UNL     1       3.421  36.232  62.469  1.00  0.00     0.020 C 
HETATM   20  O   UNL     1       4.235  35.567  58.439  1.00  0.00    -0.267 OA
BRANCH  17  21
HETATM   21  C   UNL     1       4.659  33.410  63.195  1.00  0.00     0.170 C 
BRANCH  21  22
HETATM   22  O   UNL     1       4.687  32.717  64.435  1.00  0.00    -0.400 OA
HETATM   23  H   UNL     1       4.128  31.926  64.357  1.00  0.00     0.209 HD
ENDBRANCH  21  22
ENDBRANCH  17  21
ENDBRANCH  10  13
ENDBRANCH   4   7
BRANCH   1  24
HETATM   24  N   UNL     1       7.488  26.438  56.333  1.00  0.00    -0.064 N 
HETATM   25  C   UNL     1       6.494  25.708  55.400  1.00  0.00     0.255 C 
HETATM   26  C   UNL     1       6.111  24.333  55.980  1.00  0.00     0.150 C 
HETATM   27  N   UNL     1       7.301  23.493  56.242  1.00  0.00    -0.375 N 
HETATM   28  C   UNL     1       8.369  24.149  57.015  1.00  0.00     0.150 C 
HETATM   29  C   UNL     1       8.737  25.551  56.476  1.00  0.00     0.255 C 
HETATM   30  H   UNL     1       7.055  26.472  57.264  1.00  0.00     0.280 HD
BRANCH  27  31
HETATM   31  C   UNL     1       7.640  22.611  55.202  1.00  0.00     0.063 A 
HETATM   32  C   UNL     1       7.701  22.977  53.852  1.00  0.00     0.032 A 
HETATM   33  C   UNL     1       8.011  22.037  52.859  1.00  0.00     0.002 A 
HETATM   34  C   UNL     1       8.276  20.710  53.195  1.00  0.00     0.003 A 
HETATM   35  C   UNL     1       8.256  20.323  54.529  1.00  0.00     0.039 A 
HETATM   36  C   UNL     1       7.963  21.270  55.504  1.00  0.00     0.092 A 
BRANCH  36  37
HETATM   37  O   UNL     1       8.069  20.876  56.814  1.00  0.00    -0.358 OA
HETATM   38  H   UNL     1       7.202  20.476  57.015  1.00  0.00     0.218 HD
ENDBRANCH  36  37
ENDBRANCH  27  31
ENDBRANCH   1  24
TORSDOF 7
ENDMDL
MODEL 4
REMARK VINA RESULT:      -9.1      1.438      1.655
REMARK  7 active torsions:
REMARK  status: ('A' for Active; 'I' for Inactive)
REMARK    1  A    between atoms: C_3  and  N_4 
REMARK    2  A    between atoms: N_7  and  C_9 
REMARK    3  A    between atoms: N_12  and  C_13 
REMARK    4  A    between atoms: C_16  and  C_17 
REMARK       I    between atoms: C_17  and  N_18 
REMARK    5  A    between atoms: C_20  and  C_21 
REMARK    6  A    between atoms: C_21  and  O_22 
REMARK    7  A    between atoms: C_33  and  O_34 
ROOT
HETATM    1  C   UNL     1       6.727  30.973  57.779  1.00  0.00     0.191 C 
HETATM    2  C   UNL     1       7.801  29.894  58.004  1.00  0.00     0.053 C 
HETATM    3  C   UNL     1       7.197  28.507  58.208  1.00  0.00     0.125 C 
HETATM    4  N   UNL     1       6.271  28.215  57.121  1.00  0.00    -0.381 N 
HETATM    5  C   UNL     1       5.255  29.183  56.741  1.00  0.00     0.125 C 
HETATM    6  C   UNL     1       5.875  30.562  56.569  1.00  0.00     0.053 C 
ENDROOT
BRANCH   4   7
HETATM    7  C   UNL     1       6.560  27.131  56.303  1.00  0.00     0.030 A 
HETATM    8  C   UNL     1       7.128  27.336  55.035  1.00  0.00     0.030 A 
HETATM    9  C   UNL     1       7.401  26.268  54.176  1.00  0.00     0.019 A 
HETATM   10  C   UNL     1       7.106  24.961  54.568  1.00  0.00     0.032 A 
HETATM   11  C   UNL     1       6.516  24.737  55.814  1.00  0.00     0.019 A 
HETATM   12  C   UNL     1       6.272  25.811  56.680  1.00  0.00     0.030 A 
BRANCH  10  13
HETATM   13  C   UNL     1       7.311  23.867  53.587  1.00  0.00     0.253 C 
HETATM   14  N   UNL     1       7.979  22.697  53.966  1.00  0.00    -0.348 N 
HETATM   15  C   UNL     1       9.057  22.685  54.961  1.00  0.00     0.132 C 
HETATM   16  C   UNL     1       8.076  21.652  52.943  1.00  0.00     0.126 C 
HETATM   17  C   UNL     1       9.205  21.316  55.639  1.00  0.00     0.027 C 
HETATM   18  C   UNL     1       9.347  20.211  54.579  1.00  0.00     0.010 C 
HETATM   19  C   UNL     1       8.219  20.262  53.551  1.00  0.00     0.020 C 
HETATM   20  O   UNL     1       6.839  24.037  52.463  1.00  0.00    -0.267 OA
BRANCH  17  21
HETATM   21  C   UNL     1       8.040  21.067  56.607  1.00  0.00     0.170 C 
BRANCH  21  22
HETATM   22  O   UNL     1       8.160  21.862  57.779  1.00  0.00    -0.400 OA
HETATM   23  H   UNL     1       8.828  22.549  57.616  1.00  0.00     0.209 HD
ENDBRANCH  21  22
ENDBRANCH  17  21
ENDBRANCH  10  13
ENDBRANCH   4   7
BRANCH   1  24
HETATM   24  N   UNL     1       5.893  31.202  59.056  1.00  0.00    -0.064 N 
HETATM   25  C   UNL     1       6.585  32.176  60.037  1.00  0.00     0.255 C 
HETATM   26  C   UNL     1       5.809  32.255  61.366  1.00  0.00     0.150 C 
HETATM   27  N   UNL     1       4.393  32.633  61.158  1.00  0.00    -0.375 N 
HETATM   28  C   UNL     1       3.681  31.845  60.139  1.00  0.00     0.150 C 
HETATM   29  C   UNL     1       4.464  31.717  58.811  1.00  0.00     0.255 C 
HETATM   30  H   UNL     1       5.792  30.304  59.546  1.00  0.00     0.280 HD
BRANCH  27  31
HETATM   31  C   UNL     1       4.127  34.007  61.283  1.00  0.00     0.063 A 
HETATM   32  C   UNL     1       4.678  34.991  60.453  1.00  0.00     0.032 A 
HETATM   33  C   UNL     1       4.399  36.351  60.656  1.00  0.00     0.002 A 
HETATM   34  C   UNL     1       3.554  36.755  61.688  1.00  0.00     0.003 A 
HETATM   35  C   UNL     1       2.965  35.801  62.507  1.00  0.00     0.039 A 
HETATM   36  C   UNL     1       3.239  34.456  62.285  1.00  0.00     0.092 A 
BRANCH  36  37
HETATM   37  O   UNL     1       2.547  33.541  63.038  1.00  0.00    -0.358 OA
HETATM   38  H   UNL     1       1.883  33.178  62.422  1.00  0.00     0.218 HD
ENDBRANCH  36  37
ENDBRANCH  27  31
ENDBRANCH   1  24
TORSDOF 7
ENDMDL
MODEL 5
REMARK VINA RESULT:      -8.6      3.777     11.658
REMARK  7 active torsions:
REMARK  status: ('A' for Active; 'I' for Inactive)
REMARK    1  A    between atoms: C_3  and  N_4 
REMARK    2  A    between atoms: N_7  and  C_9 
REMARK    3  A    between atoms: N_12  and  C_13 
REMARK    4  A    between atoms: C_16  and  C_17 
REMARK       I    between atoms: C_17  and  N_18 
REMARK    5  A    between atoms: C_20  and  C_21 
REMARK    6  A    between atoms: C_21  and  O_22 
REMARK    7  A    between atoms: C_33  and  O_34 
ROOT
HETATM    1  C   UNL     1       4.328  28.602  55.131  1.00  0.00     0.191 C 
HETATM    2  C   UNL     1       5.262  27.880  56.117  1.00  0.00     0.053 C 
HETATM    3  C   UNL     1       6.595  28.605  56.289  1.00  0.00     0.125 C 
HETATM    4  N   UNL     1       6.350  30.006  56.610  1.00  0.00    -0.381 N 
HETATM    5  C   UNL     1       5.421  30.790  55.812  1.00  0.00     0.125 C 
HETATM    6  C   UNL     1       4.111  30.037  55.631  1.00  0.00     0.053 C 
ENDROOT
BRANCH   4   7
HETATM    7  C   UNL     1       6.807  30.476  57.833  1.00  0.00     0.030 A 
HETATM    8  C   UNL     1       7.933  29.893  58.437  1.00  0.00     0.030 A 
HETATM    9  C   UNL     1       8.398  30.323  59.682  1.00  0.00     0.019 A 
HETATM   10  C   UNL     1       7.740  31.352  60.359  1.00  0.00     0.032 A 
HETATM   11  C   UNL     1       6.603  31.928  59.789  1.00  0.00     0.019 A 
HETATM   12  C   UNL     1       6.160  31.509  58.527  1.00  0.00     0.030 A 
BRANCH  10  13
HETATM   13  C   UNL     1       8.200  31.705  61.725  1.00  0.00     0.253 C 
HETATM   14  N   UNL     1       7.482  32.629  62.493  1.00  0.00    -0.348 N 
HETATM   15  C   UNL     1       6.755  33.758  61.902  1.00  0.00     0.132 C 
HETATM   16  C   UNL     1       7.983  32.864  63.849  1.00  0.00     0.126 C 
HETATM   17  C   UNL     1       5.605  34.239  62.797  1.00  0.00     0.027 C 
HETATM   18  C   UNL     1       6.121  34.527  64.216  1.00  0.00     0.010 C 
HETATM   19  C   UNL     1       6.886  33.339  64.795  1.00  0.00     0.020 C 
HETATM   20  O   UNL     1       9.205  31.125  62.137  1.00  0.00    -0.267 OA
BRANCH  17  21
HETATM   21  C   UNL     1       4.449  33.228  62.777  1.00  0.00     0.170 C 
BRANCH  21  22
HETATM   22  O   UNL     1       3.188  33.881  62.778  1.00  0.00    -0.400 OA
HETATM   23  H   UNL     1       3.334  34.832  62.633  1.00  0.00     0.209 HD
ENDBRANCH  21  22
ENDBRANCH  17  21
ENDBRANCH  10  13
ENDBRANCH   4   7
BRANCH   1  24
HETATM   24  N   UNL     1       4.882  28.541  53.692  1.00  0.00    -0.064 N 
HETATM   25  C   UNL     1       4.559  27.197  53.000  1.00  0.00     0.255 C 
HETATM   26  C   UNL     1       5.264  27.104  51.634  1.00  0.00     0.150 C 
HETATM   27  N   UNL     1       4.920  28.245  50.756  1.00  0.00    -0.375 N 
HETATM   28  C   UNL     1       5.069  29.573  51.373  1.00  0.00     0.150 C 
HETATM   29  C   UNL     1       4.405  29.674  52.767  1.00  0.00     0.255 C 
HETATM   30  H   UNL     1       5.906  28.619  53.734  1.00  0.00     0.280 HD
BRANCH  27  31
HETATM   31  C   UNL     1       3.855  28.007  49.871  1.00  0.00     0.063 A 
HETATM   32  C   UNL     1       2.584  28.579  50.002  1.00  0.00     0.032 A 
HETATM   33  C   UNL     1       1.553  28.270  49.103  1.00  0.00     0.002 A 
HETATM   34  C   UNL     1       1.773  27.388  48.046  1.00  0.00     0.003 A 
HETATM   35  C   UNL     1       3.034  26.830  47.869  1.00  0.00     0.039 A 
HETATM   36  C   UNL     1       4.050  27.158  48.759  1.00  0.00     0.092 A 
BRANCH  36  37
HETATM   37  O   UNL     1       5.306  26.681  48.481  1.00  0.00    -0.358 OA
HETATM   38  H   UNL     1       5.150  25.947  47.857  1.00  0.00     0.218 HD
ENDBRANCH  36  37
ENDBRANCH  27  31
ENDBRANCH   1  24
TORSDOF 7
ENDMDL
MODEL 6
REMARK VINA RESULT:      -8.5      1.869     11.442
REMARK  7 active torsions:
REMARK  status: ('A' for Active; 'I' for Inactive)
REMARK    1  A    between atoms: C_3  and  N_4 
REMARK    2  A    between atoms: N_7  and  C_9 
REMARK    3  A    between atoms: N_12  and  C_13 
REMARK    4  A    between atoms: C_16  and  C_17 
REMARK       I    between atoms: C_17  and  N_18 
REMARK    5  A    between atoms: C_20  and  C_21 
REMARK    6  A    between atoms: C_21  and  O_22 
REMARK    7  A    between atoms: C_33  and  O_34 
ROOT
HETATM    1  C   UNL     1       4.985  26.797  55.323  1.00  0.00     0.191 C 
HETATM    2  C   UNL     1       4.914  26.924  56.854  1.00  0.00     0.053 C 
HETATM    3  C   UNL     1       5.956  27.894  57.406  1.00  0.00     0.125 C 
HETATM    4  N   UNL     1       5.866  29.162  56.693  1.00  0.00    -0.381 N 
HETATM    5  C   UNL     1       5.837  29.188  55.240  1.00  0.00     0.125 C 
HETATM    6  C   UNL     1       4.811  28.195  54.712  1.00  0.00     0.053 C 
ENDROOT
BRANCH   4   7
HETATM    7  C   UNL     1       5.539  30.293  57.430  1.00  0.00     0.030 A 
HETATM    8  C   UNL     1       6.547  31.040  58.060  1.00  0.00     0.030 A 
HETATM    9  C   UNL     1       6.246  32.164  58.834  1.00  0.00     0.019 A 
HETATM   10  C   UNL     1       4.920  32.566  59.000  1.00  0.00     0.032 A 
HETATM   11  C   UNL     1       3.900  31.822  58.404  1.00  0.00     0.019 A 
HETATM   12  C   UNL     1       4.213  30.713  57.606  1.00  0.00     0.030 A 
BRANCH  10  13
HETATM   13  C   UNL     1       4.635  33.698  59.915  1.00  0.00     0.253 C 
HETATM   14  N   UNL     1       4.830  33.556  61.294  1.00  0.00    -0.348 N 
HETATM   15  C   UNL     1       4.634  32.283  61.996  1.00  0.00     0.132 C 
HETATM   16  C   UNL     1       4.580  34.750  62.105  1.00  0.00     0.126 C 
HETATM   17  C   UNL     1       5.452  32.203  63.292  1.00  0.00     0.027 C 
HETATM   18  C   UNL     1       5.172  33.431  64.174  1.00  0.00     0.010 C 
HETATM   19  C   UNL     1       5.370  34.738  63.408  1.00  0.00     0.020 C 
HETATM   20  O   UNL     1       4.260  34.749  59.395  1.00  0.00    -0.267 OA
BRANCH  17  21
HETATM   21  C   UNL     1       6.944  32.025  62.976  1.00  0.00     0.170 C 
BRANCH  21  22
HETATM   22  O   UNL     1       7.179  30.837  62.233  1.00  0.00    -0.400 OA
HETATM   23  H   UNL     1       7.236  30.092  62.856  1.00  0.00     0.209 HD
ENDBRANCH  21  22
ENDBRANCH  17  21
ENDBRANCH  10  13
ENDBRANCH   4   7
BRANCH   1  24
HETATM   24  N   UNL     1       6.291  26.104  54.882  1.00  0.00    -0.064 N 
HETATM   25  C   UNL     1       7.084  25.539  56.083  1.00  0.00     0.255 C 
HETATM   26  C   UNL     1       8.455  25.003  55.627  1.00  0.00     0.150 C 
HETATM   27  N   UNL     1       8.324  23.988  54.557  1.00  0.00    -0.375 N 
HETATM   28  C   UNL     1       7.472  24.385  53.423  1.00  0.00     0.150 C 
HETATM   29  C   UNL     1       6.109  24.968  53.861  1.00  0.00     0.255 C 
HETATM   30  H   UNL     1       6.893  26.802  54.427  1.00  0.00     0.280 HD
BRANCH  27  31
HETATM   31  C   UNL     1       8.304  22.658  55.007  1.00  0.00     0.063 A 
HETATM   32  C   UNL     1       8.317  22.286  56.357  1.00  0.00     0.032 A 
HETATM   33  C   UNL     1       8.332  20.936  56.738  1.00  0.00     0.002 A 
HETATM   34  C   UNL     1       8.326  19.927  55.776  1.00  0.00     0.003 A 
HETATM   35  C   UNL     1       8.279  20.264  54.429  1.00  0.00     0.039 A 
HETATM   36  C   UNL     1       8.248  21.605  54.067  1.00  0.00     0.092 A 
BRANCH  36  37
HETATM   37  O   UNL     1       8.083  21.893  52.735  1.00  0.00    -0.358 OA
HETATM   38  H   UNL     1       7.994  21.019  52.311  1.00  0.00     0.218 HD
ENDBRANCH  36  37
ENDBRANCH  27  31
ENDBRANCH   1  24
TORSDOF 7
ENDMDL
MODEL 7
REMARK VINA RESULT:      -8.4      2.611      4.017
REMARK  7 active torsions:
REMARK  status: ('A' for Active; 'I' for Inactive)
REMARK    1  A    between atoms: C_3  and  N_4 
REMARK    2  A    between atoms: N_7  and  C_9 
REMARK    3  A    between atoms: N_12  and  C_13 
REMARK    4  A    between atoms: C_16  and  C_17 
REMARK       I    between atoms: C_17  and  N_18 
REMARK    5  A    between atoms: C_20  and  C_21 
REMARK    6  A    between atoms: C_21  and  O_22 
REMARK    7  A    between atoms: C_33  and  O_34 
ROOT
HETATM    1  C   UNL     1       7.004  32.085  58.890  1.00  0.00     0.191 C 
HETATM    2  C   UNL     1       8.032  31.008  58.502  1.00  0.00     0.053 C 
HETATM    3  C   UNL     1       7.443  29.601  58.548  1.00  0.00     0.125 C 
HETATM    4  N   UNL     1       6.211  29.563  57.769  1.00  0.00    -0.381 N 
HETATM    5  C   UNL     1       5.184  30.572  57.969  1.00  0.00     0.125 C 
HETATM    6  C   UNL     1       5.797  31.965  57.947  1.00  0.00     0.053 C 
ENDROOT
BRANCH   4   7
HETATM    7  C   UNL     1       6.172  28.719  56.667  1.00  0.00     0.030 A 
HETATM    8  C   UNL     1       6.950  29.001  55.534  1.00  0.00     0.030 A 
HETATM    9  C   UNL     1       6.908  28.188  54.398  1.00  0.00     0.019 A 
HETATM   10  C   UNL     1       6.076  27.068  54.369  1.00  0.00     0.032 A 
HETATM   11  C   UNL     1       5.272  26.783  55.476  1.00  0.00     0.019 A 
HETATM   12  C   UNL     1       5.343  27.588  56.621  1.00  0.00     0.030 A 
BRANCH  10  13
HETATM   13  C   UNL     1       5.979  26.293  53.107  1.00  0.00     0.253 C 
HETATM   14  N   UNL     1       5.299  26.824  52.005  1.00  0.00    -0.348 N 
HETATM   15  C   UNL     1       4.137  27.709  52.140  1.00  0.00     0.132 C 
HETATM   16  C   UNL     1       5.313  26.009  50.788  1.00  0.00     0.126 C 
HETATM   17  C   UNL     1       3.952  28.614  50.914  1.00  0.00     0.027 C 
HETATM   18  C   UNL     1       3.925  27.770  49.630  1.00  0.00     0.010 C 
HETATM   19  C   UNL     1       5.140  26.850  49.529  1.00  0.00     0.020 C 
HETATM   20  O   UNL     1       6.546  25.201  53.084  1.00  0.00    -0.267 OA
BRANCH  17  21
HETATM   21  C   UNL     1       5.029  29.708  50.886  1.00  0.00     0.170 C 
BRANCH  21  22
HETATM   22  O   UNL     1       5.191  30.310  52.163  1.00  0.00    -0.400 OA
HETATM   23  H   UNL     1       5.210  31.275  52.047  1.00  0.00     0.209 HD
ENDBRANCH  21  22
ENDBRANCH  17  21
ENDBRANCH  10  13
ENDBRANCH   4   7
BRANCH   1  24
HETATM   24  N   UNL     1       6.619  31.977  60.380  1.00  0.00    -0.064 N 
HETATM   25  C   UNL     1       7.554  32.813  61.285  1.00  0.00     0.255 C 
HETATM   26  C   UNL     1       7.248  32.554  62.772  1.00  0.00     0.150 C 
HETATM   27  N   UNL     1       5.827  32.814  63.097  1.00  0.00    -0.375 N 
HETATM   28  C   UNL     1       4.854  32.165  62.204  1.00  0.00     0.150 C 
HETATM   29  C   UNL     1       5.169  32.376  60.705  1.00  0.00     0.255 C 
HETATM   30  H   UNL     1       6.717  30.997  60.671  1.00  0.00     0.280 HD
BRANCH  27  31
HETATM   31  C   UNL     1       5.563  34.103  63.590  1.00  0.00     0.063 A 
HETATM   32  C   UNL     1       5.753  35.279  62.854  1.00  0.00     0.032 A 
HETATM   33  C   UNL     1       5.504  36.538  63.420  1.00  0.00     0.002 A 
HETATM   34  C   UNL     1       5.052  36.648  64.733  1.00  0.00     0.003 A 
HETATM   35  C   UNL     1       4.822  35.499  65.480  1.00  0.00     0.039 A 
HETATM   36  C   UNL     1       5.058  34.258  64.900  1.00  0.00     0.092 A 
BRANCH  36  37
HETATM   37  O   UNL     1       4.707  33.149  65.627  1.00  0.00    -0.358 OA
HETATM   38  H   UNL     1       4.977  33.365  66.540  1.00  0.00     0.218 HD
ENDBRANCH  36  37
ENDBRANCH  27  31
ENDBRANCH   1  24
TORSDOF 7
ENDMDL
MODEL 8
REMARK VINA RESULT:      -8.3      2.109     11.856
REMARK  7 active torsions:
REMARK  status: ('A' for Active; 'I' for Inactive)
REMARK    1  A    between atoms: C_3  and  N_4 
REMARK    2  A    between atoms: N_7  and  C_9 
REMARK    3  A    between atoms: N_12  and  C_13 
REMARK    4  A    between atoms: C_16  and  C_17 
REMARK       I    between atoms: C_17  and  N_18 
REMARK    5  A    between atoms: C_20  and  C_21 
REMARK    6  A    between atoms: C_21  and  O_22 
REMARK    7  A    between atoms: C_33  and  O_34 
ROOT
HETATM    1  C   UNL     1       4.092  29.159  55.887  1.00  0.00     0.191 C 
HETATM    2  C   UNL     1       4.423  29.105  57.389  1.00  0.00     0.053 C 
HETATM    3  C   UNL     1       5.487  30.125  57.785  1.00  0.00     0.125 C 
HETATM    4  N   UNL     1       5.100  31.445  57.303  1.00  0.00    -0.381 N 
HETATM    5  C   UNL     1       4.680  31.629  55.923  1.00  0.00     0.125 C 
HETATM    6  C   UNL     1       3.640  30.585  55.542  1.00  0.00     0.053 C 
ENDROOT
BRANCH   4   7
HETATM    7  C   UNL     1       4.886  32.439  58.248  1.00  0.00     0.030 A 
HETATM    8  C   UNL     1       3.969  33.471  57.992  1.00  0.00     0.030 A 
HETATM    9  C   UNL     1       3.756  34.503  58.911  1.00  0.00     0.019 A 
HETATM   10  C   UNL     1       4.464  34.527  60.113  1.00  0.00     0.032 A 
HETATM   11  C   UNL     1       5.400  33.525  60.377  1.00  0.00     0.019 A 
HETATM   12  C   UNL     1       5.586  32.479  59.463  1.00  0.00     0.030 A 
BRANCH  10  13
HETATM   13  C   UNL     1       4.288  35.695  61.012  1.00  0.00     0.253 C 
HETATM   14  N   UNL     1       4.041  35.503  62.377  1.00  0.00    -0.348 N 
HETATM   15  C   UNL     1       3.288  34.355  62.894  1.00  0.00     0.132 C 
HETATM   16  C   UNL     1       3.944  36.717  63.189  1.00  0.00     0.126 C 
HETATM   17  C   UNL     1       3.653  34.029  64.348  1.00  0.00     0.027 C 
HETATM   18  C   UNL     1       3.519  35.286  65.224  1.00  0.00     0.010 C 
HETATM   19  C   UNL     1       4.302  36.465  64.649  1.00  0.00     0.020 C 
HETATM   20  O   UNL     1       4.402  36.808  60.500  1.00  0.00    -0.267 OA
BRANCH  17  21
HETATM   21  C   UNL     1       5.050  33.398  64.423  1.00  0.00     0.170 C 
BRANCH  21  22
HETATM   22  O   UNL     1       5.062  32.096  63.855  1.00  0.00    -0.400 OA
HETATM   23  H   UNL     1       5.657  31.536  64.383  1.00  0.00     0.209 HD
ENDBRANCH  21  22
ENDBRANCH  17  21
ENDBRANCH  10  13
ENDBRANCH   4   7
BRANCH   1  24
HETATM   24  N   UNL     1       5.286  28.681  55.036  1.00  0.00    -0.064 N 
HETATM   25  C   UNL     1       6.334  27.919  55.879  1.00  0.00     0.255 C 
HETATM   26  C   UNL     1       7.585  27.602  55.038  1.00  0.00     0.150 C 
HETATM   27  N   UNL     1       7.248  26.849  53.809  1.00  0.00    -0.375 N 
HETATM   28  C   UNL     1       6.162  27.428  53.001  1.00  0.00     0.150 C 
HETATM   29  C   UNL     1       4.913  27.795  53.836  1.00  0.00     0.255 C 
HETATM   30  H   UNL     1       5.758  29.506  54.645  1.00  0.00     0.280 HD
BRANCH  27  31
HETATM   31  C   UNL     1       7.357  25.453  53.926  1.00  0.00     0.063 A 
HETATM   32  C   UNL     1       7.055  24.737  55.091  1.00  0.00     0.032 A 
HETATM   33  C   UNL     1       7.220  23.346  55.151  1.00  0.00     0.002 A 
HETATM   34  C   UNL     1       7.684  22.638  54.044  1.00  0.00     0.003 A 
HETATM   35  C   UNL     1       7.960  23.315  52.862  1.00  0.00     0.039 A 
HETATM   36  C   UNL     1       7.777  24.692  52.812  1.00  0.00     0.092 A 
BRANCH  36  37
HETATM   37  O   UNL     1       7.947  25.304  51.597  1.00  0.00    -0.358 OA
HETATM   38  H   UNL     1       8.415  26.133  51.810  1.00  0.00     0.218 HD
ENDBRANCH  36  37
ENDBRANCH  27  31
ENDBRANCH   1  24
TORSDOF 7
ENDMDL
MODEL 9
REMARK VINA RESULT:      -8.3      1.799      2.810
REMARK  7 active torsions:
REMARK  status: ('A' for Active; 'I' for Inactive)
REMARK    1  A    between atoms: C_3  and  N_4 
REMARK    2  A    between atoms: N_7  and  C_9 
REMARK    3  A    between atoms: N_12  and  C_13 
REMARK    4  A    between atoms: C_16  and  C_17 
REMARK       I    between atoms: C_17  and  N_18 
REMARK    5  A    between atoms: C_20  and  C_21 
REMARK    6  A    between atoms: C_21  and  O_22 
REMARK    7  A    between atoms: C_33  and  O_34 
ROOT
HETATM    1  C   UNL     1       5.055  32.108  56.926  1.00  0.00     0.191 C 
HETATM    2  C   UNL     1       6.327  31.589  57.619  1.00  0.00     0.053 C 
HETATM    3  C   UNL     1       6.081  30.290  58.383  1.00  0.00     0.125 C 
HETATM    4  N   UNL     1       5.439  29.321  57.502  1.00  0.00    -0.381 N 
HETATM    5  C   UNL     1       4.275  29.700  56.718  1.00  0.00     0.125 C 
HETATM    6  C   UNL     1       4.532  31.010  55.988  1.00  0.00     0.053 C 
ENDROOT
BRANCH   4   7
HETATM    7  C   UNL     1       6.121  28.142  57.236  1.00  0.00     0.030 A 
HETATM    8  C   UNL     1       5.411  26.954  56.998  1.00  0.00     0.030 A 
HETATM    9  C   UNL     1       6.070  25.745  56.758  1.00  0.00     0.019 A 
HETATM   10  C   UNL     1       7.465  25.696  56.755  1.00  0.00     0.032 A 
HETATM   11  C   UNL     1       8.191  26.860  57.016  1.00  0.00     0.019 A 
HETATM   12  C   UNL     1       7.522  28.074  57.227  1.00  0.00     0.030 A 
BRANCH  10  13
HETATM   13  C   UNL     1       8.124  24.376  56.604  1.00  0.00     0.253 C 
HETATM   14  N   UNL     1       8.038  23.680  55.392  1.00  0.00    -0.348 N 
HETATM   15  C   UNL     1       6.865  23.757  54.514  1.00  0.00     0.132 C 
HETATM   16  C   UNL     1       8.774  22.415  55.324  1.00  0.00     0.126 C 
HETATM   17  C   UNL     1       7.214  23.445  53.052  1.00  0.00     0.027 C 
HETATM   18  C   UNL     1       7.954  22.101  52.958  1.00  0.00     0.010 C 
HETATM   19  C   UNL     1       9.158  22.048  53.895  1.00  0.00     0.020 C 
HETATM   20  O   UNL     1       8.760  23.961  57.573  1.00  0.00    -0.267 OA
BRANCH  17  21
HETATM   21  C   UNL     1       8.004  24.605  52.429  1.00  0.00     0.170 C 
BRANCH  21  22
HETATM   22  O   UNL     1       7.263  25.243  51.398  1.00  0.00    -0.400 OA
HETATM   23  H   UNL     1       6.865  24.556  50.836  1.00  0.00     0.209 HD
ENDBRANCH  21  22
ENDBRANCH  17  21
ENDBRANCH  10  13
ENDBRANCH   4   7
BRANCH   1  24
HETATM   24  N   UNL     1       4.006  32.569  57.959  1.00  0.00    -0.064 N 
HETATM   25  C   UNL     1       4.279  31.986  59.365  1.00  0.00     0.255 C 
HETATM   26  C   UNL     1       3.128  32.329  60.330  1.00  0.00     0.150 C 
HETATM   27  N   UNL     1       2.883  33.788  60.402  1.00  0.00    -0.375 N 
HETATM   28  C   UNL     1       2.742  34.461  59.100  1.00  0.00     0.150 C 
HETATM   29  C   UNL     1       3.865  34.094  58.101  1.00  0.00     0.255 C 
HETATM   30  H   UNL     1       3.085  32.224  57.664  1.00  0.00     0.280 HD
BRANCH  27  31
HETATM   31  C   UNL     1       3.543  34.444  61.454  1.00  0.00     0.063 A 
HETATM   32  C   UNL     1       4.845  34.953  61.367  1.00  0.00     0.032 A 
HETATM   33  C   UNL     1       5.460  35.566  62.468  1.00  0.00     0.002 A 
HETATM   34  C   UNL     1       4.783  35.691  63.680  1.00  0.00     0.003 A 
HETATM   35  C   UNL     1       3.478  35.226  63.789  1.00  0.00     0.039 A 
HETATM   36  C   UNL     1       2.876  34.635  62.684  1.00  0.00     0.092 A 
BRANCH  36  37
HETATM   37  O   UNL     1       1.551  34.297  62.796  1.00  0.00    -0.358 OA
HETATM   38  H   UNL     1       1.256  34.175  61.874  1.00  0.00     0.218 HD
ENDBRANCH  36  37
ENDBRANCH  27  31
ENDBRANCH   1  24
TORSDOF 7
ENDMDL
MODEL 10
REMARK VINA RESULT:      -8.2      2.105     11.711
REMARK  7 active torsions:
REMARK  status: ('A' for Active; 'I' for Inactive)
REMARK    1  A    between atoms: C_3  and  N_4 
REMARK    2  A    between atoms: N_7  and  C_9 
REMARK    3  A    between atoms: N_12  and  C_13 
REMARK    4  A    between atoms: C_16  and  C_17 
REMARK       I    between atoms: C_17  and  N_18 
REMARK    5  A    between atoms: C_20  and  C_21 
REMARK    6  A    between atoms: C_21  and  O_22 
REMARK    7  A    between atoms: C_33  and  O_34 
ROOT
HETATM    1  C   UNL     1       5.041  26.875  55.381  1.00  0.00     0.191 C 
HETATM    2  C   UNL     1       4.945  27.128  56.895  1.00  0.00     0.053 C 
HETATM    3  C   UNL     1       5.946  28.177  57.374  1.00  0.00     0.125 C 
HETATM    4  N   UNL     1       5.821  29.377  56.556  1.00  0.00    -0.381 N 
HETATM    5  C   UNL     1       5.811  29.280  55.105  1.00  0.00     0.125 C 
HETATM    6  C   UNL     1       4.827  28.211  54.653  1.00  0.00     0.053 C 
ENDROOT
BRANCH   4   7
HETATM    7  C   UNL     1       5.446  30.553  57.191  1.00  0.00     0.030 A 
HETATM    8  C   UNL     1       4.242  31.188  56.846  1.00  0.00     0.030 A 
HETATM    9  C   UNL     1       3.853  32.389  57.445  1.00  0.00     0.019 A 
HETATM   10  C   UNL     1       4.667  32.988  58.407  1.00  0.00     0.032 A 
HETATM   11  C   UNL     1       5.881  32.388  58.746  1.00  0.00     0.019 A 
HETATM   12  C   UNL     1       6.250  31.169  58.161  1.00  0.00     0.030 A 
BRANCH  10  13
HETATM   13  C   UNL     1       4.270  34.315  58.940  1.00  0.00     0.253 C 
HETATM   14  N   UNL     1       3.820  34.439  60.259  1.00  0.00    -0.348 N 
HETATM   15  C   UNL     1       3.070  33.380  60.945  1.00  0.00     0.132 C 
HETATM   16  C   UNL     1       3.511  35.799  60.708  1.00  0.00     0.126 C 
HETATM   17  C   UNL     1       3.216  33.461  62.470  1.00  0.00     0.027 C 
HETATM   18  C   UNL     1       2.858  34.873  62.963  1.00  0.00     0.010 C 
HETATM   19  C   UNL     1       3.643  35.951  62.219  1.00  0.00     0.020 C 
HETATM   20  O   UNL     1       4.392  35.275  58.179  1.00  0.00    -0.267 OA
BRANCH  17  21
HETATM   21  C   UNL     1       4.621  33.018  62.901  1.00  0.00     0.170 C 
BRANCH  21  22
HETATM   22  O   UNL     1       4.649  32.638  64.269  1.00  0.00    -0.400 OA
HETATM   23  H   UNL     1       3.845  32.126  64.462  1.00  0.00     0.209 HD
ENDBRANCH  21  22
ENDBRANCH  17  21
ENDBRANCH  10  13
ENDBRANCH   4   7
BRANCH   1  24
HETATM   24  N   UNL     1       6.376  26.195  55.013  1.00  0.00    -0.064 N 
HETATM   25  C   UNL     1       7.034  25.508  56.232  1.00  0.00     0.255 C 
HETATM   26  C   UNL     1       8.437  24.984  55.871  1.00  0.00     0.150 C 
HETATM   27  N   UNL     1       8.403  24.071  54.706  1.00  0.00    -0.375 N 
HETATM   28  C   UNL     1       7.678  24.586  53.532  1.00  0.00     0.150 C 
HETATM   29  C   UNL     1       6.284  25.158  53.881  1.00  0.00     0.255 C 
HETATM   30  H   UNL     1       7.031  26.917  54.686  1.00  0.00     0.280 HD
BRANCH  27  31
HETATM   31  C   UNL     1       8.319  22.707  55.029  1.00  0.00     0.063 A 
HETATM   32  C   UNL     1       8.339  22.208  56.338  1.00  0.00     0.032 A 
HETATM   33  C   UNL     1       8.288  20.829  56.590  1.00  0.00     0.002 A 
HETATM   34  C   UNL     1       8.206  19.918  55.538  1.00  0.00     0.003 A 
HETATM   35  C   UNL     1       8.150  20.383  54.230  1.00  0.00     0.039 A 
HETATM   36  C   UNL     1       8.186  21.753  53.996  1.00  0.00     0.092 A 
BRANCH  36  37
HETATM   37  O   UNL     1       8.010  22.174  52.703  1.00  0.00    -0.358 OA
HETATM   38  H   UNL     1       8.289  21.411  52.162  1.00  0.00     0.218 HD
ENDBRANCH  36  37
ENDBRANCH  27  31
ENDBRANCH   1  24
TORSDOF 7
ENDMDL
