MODEL 1
REMARK VINA RESULT:      -8.5      0.000      0.000
REMARK  9 active torsions:
REMARK  status: ('A' for Active; 'I' for Inactive)
REMARK    1  A    between atoms: C_2  and  N_3 
REMARK    2  A    between atoms: C_4  and  S_5 
REMARK    3  A    between atoms: S_5  and  C_6 
REMARK    4  A    between atoms: C_6  and  C_7 
REMARK       I    between atoms: C_7  and  N_8 
REMARK    5  A    between atoms: N_8  and  C_9 
REMARK    6  A    between atoms: C_9  and  C_10 
REMARK    7  A    between atoms: C_10  and  O_11 
REMARK    8  A    between atoms: O_11  and  C_12 
REMARK    9  A    between atoms: C_21  and  C_22 
ROOT
HETATM    1  S   UNL     1       5.375  29.193  56.112  1.00  0.00    -0.081 SA
ENDROOT
BRANCH   1   2
HETATM    2  C   UNL     1       5.587  27.479  56.020  1.00  0.00     0.192 A 
HETATM    3  N   UNL     1       6.481  26.849  55.195  1.00  0.00    -0.308 N 
HETATM    4  C   UNL     1       6.339  25.499  55.457  1.00  0.00     0.165 A 
HETATM    5  N   UNL     1       5.409  25.352  56.384  1.00  0.00    -0.128 NA
HETATM    6  N   UNL     1       4.933  26.591  56.729  1.00  0.00    -0.122 NA
BRANCH   3   7
HETATM    7  C   UNL     1       7.442  27.466  54.303  1.00  0.00     0.128 C 
HETATM    8  C   UNL     1       6.825  27.938  52.996  1.00  0.00     0.027 C 
ENDBRANCH   3   7
BRANCH   4   9
HETATM    9  C   UNL     1       7.114  24.412  54.855  1.00  0.00     0.018 A 
HETATM   10  C   UNL     1       6.807  23.916  53.569  1.00  0.00    -0.048 A 
HETATM   11  C   UNL     1       5.695  24.499  52.739  1.00  0.00     0.049 C 
HETATM   12  C   UNL     1       7.584  22.876  53.029  1.00  0.00     0.007 A 
HETATM   13  C   UNL     1       8.646  22.329  53.750  1.00  0.00     0.001 A 
HETATM   14  C   UNL     1       8.958  22.827  55.011  1.00  0.00     0.001 A 
HETATM   15  C   UNL     1       8.203  23.866  55.556  1.00  0.00     0.016 A 
ENDBRANCH   4   9
ENDBRANCH   1   2
BRANCH   1  16
HETATM   16  C   UNL     1       5.996  29.499  57.793  1.00  0.00     0.185 C 
BRANCH  16  17
HETATM   17  C   UNL     1       7.494  29.245  57.834  1.00  0.00     0.227 C 
HETATM   18  N   UNL     1       8.266  30.246  57.278  1.00  0.00    -0.358 N 
HETATM   19  H   UNL     1       7.819  31.071  56.898  1.00  0.00     0.162 HD
HETATM   20  O   UNL     1       7.978  28.232  58.332  1.00  0.00    -0.273 OA
BRANCH  18  21
HETATM   21  C   UNL     1       9.717  30.197  57.300  1.00  0.00     0.149 C 
BRANCH  21  22
HETATM   22  C   UNL     1      10.347  31.140  58.329  1.00  0.00     0.195 C 
BRANCH  22  23
HETATM   23  O   UNL     1       9.332  32.053  58.755  1.00  0.00    -0.350 OA
BRANCH  23  24
HETATM   24  C   UNL     1       8.886  31.955  60.042  1.00  0.00     0.068 A 
HETATM   25  C   UNL     1       7.953  32.790  60.658  1.00  0.00     0.037 A 
HETATM   26  C   UNL     1       7.576  32.561  61.987  1.00  0.00     0.003 A 
HETATM   27  C   UNL     1       8.133  31.502  62.705  1.00  0.00     0.000 A 
HETATM   28  C   UNL     1       9.066  30.668  62.095  1.00  0.00     0.003 A 
HETATM   29  C   UNL     1       9.438  30.895  60.771  1.00  0.00     0.037 A 
ENDBRANCH  23  24
ENDBRANCH  22  23
ENDBRANCH  21  22
ENDBRANCH  18  21
ENDBRANCH  16  17
ENDBRANCH   1  16
TORSDOF 9
ENDMDL
MODEL 2
REMARK VINA RESULT:      -8.5      2.268      3.104
REMARK  9 active torsions:
REMARK  status: ('A' for Active; 'I' for Inactive)
REMARK    1  A    between atoms: C_2  and  N_3 
REMARK    2  A    between atoms: C_4  and  S_5 
REMARK    3  A    between atoms: S_5  and  C_6 
REMARK    4  A    between atoms: C_6  and  C_7 
REMARK       I    between atoms: C_7  and  N_8 
REMARK    5  A    between atoms: N_8  and  C_9 
REMARK    6  A    between atoms: C_9  and  C_10 
REMARK    7  A    between atoms: C_10  and  O_11 
REMARK    8  A    between atoms: O_11  and  C_12 
REMARK    9  A    between atoms: C_21  and  C_22 
ROOT
HETATM    1  S   UNL     1       6.573  27.494  57.276  1.00  0.00    -0.081 SA
ENDROOT
BRANCH   1   2
HETATM    2  C   UNL     1       7.429  26.062  56.819  1.00  0.00     0.192 A 
HETATM    3  N   UNL     1       6.919  25.073  56.020  1.00  0.00    -0.308 N 
HETATM    4  C   UNL     1       7.932  24.141  55.892  1.00  0.00     0.165 A 
HETATM    5  N   UNL     1       8.976  24.566  56.582  1.00  0.00    -0.128 NA
HETATM    6  N   UNL     1       8.657  25.764  57.169  1.00  0.00    -0.122 NA
BRANCH   3   7
HETATM    7  C   UNL     1       5.626  25.048  55.366  1.00  0.00     0.128 C 
HETATM    8  C   UNL     1       5.532  26.010  54.193  1.00  0.00     0.027 C 
ENDBRANCH   3   7
BRANCH   4   9
HETATM    9  C   UNL     1       7.888  22.915  55.091  1.00  0.00     0.018 A 
HETATM   10  C   UNL     1       7.997  22.954  53.684  1.00  0.00    -0.048 A 
HETATM   11  C   UNL     1       8.199  24.246  52.939  1.00  0.00     0.049 C 
HETATM   12  C   UNL     1       7.956  21.750  52.958  1.00  0.00     0.007 A 
HETATM   13  C   UNL     1       7.806  20.527  53.610  1.00  0.00     0.001 A 
HETATM   14  C   UNL     1       7.712  20.487  54.998  1.00  0.00     0.001 A 
HETATM   15  C   UNL     1       7.761  21.672  55.733  1.00  0.00     0.016 A 
ENDBRANCH   4   9
ENDBRANCH   1   2
BRANCH   1  16
HETATM   16  C   UNL     1       7.971  28.571  57.715  1.00  0.00     0.185 C 
BRANCH  16  17
HETATM   17  C   UNL     1       7.452  29.811  58.424  1.00  0.00     0.227 C 
HETATM   18  N   UNL     1       8.073  30.094  59.624  1.00  0.00    -0.358 N 
HETATM   19  H   UNL     1       8.821  29.497  59.955  1.00  0.00     0.162 HD
HETATM   20  O   UNL     1       6.555  30.511  57.959  1.00  0.00    -0.273 OA
BRANCH  18  21
HETATM   21  C   UNL     1       7.749  31.282  60.395  1.00  0.00     0.149 C 
BRANCH  21  22
HETATM   22  C   UNL     1       8.090  31.160  61.883  1.00  0.00     0.195 C 
BRANCH  22  23
HETATM   23  O   UNL     1       8.213  32.484  62.408  1.00  0.00    -0.350 OA
BRANCH  23  24
HETATM   24  C   UNL     1       7.339  32.865  63.387  1.00  0.00     0.068 A 
HETATM   25  C   UNL     1       7.674  33.439  64.613  1.00  0.00     0.037 A 
HETATM   26  C   UNL     1       6.668  33.795  65.519  1.00  0.00     0.003 A 
HETATM   27  C   UNL     1       5.327  33.574  65.205  1.00  0.00     0.000 A 
HETATM   28  C   UNL     1       4.988  32.999  63.984  1.00  0.00     0.003 A 
HETATM   29  C   UNL     1       5.992  32.648  63.081  1.00  0.00     0.037 A 
ENDBRANCH  23  24
ENDBRANCH  22  23
ENDBRANCH  21  22
ENDBRANCH  18  21
ENDBRANCH  16  17
ENDBRANCH   1  16
TORSDOF 9
ENDMDL
MODEL 3
REMARK VINA RESULT:      -8.5      1.815      2.644
REMARK  9 active torsions:
REMARK  status: ('A' for Active; 'I' for Inactive)
REMARK    1  A    between atoms: C_2  and  N_3 
REMARK    2  A    between atoms: C_4  and  S_5 
REMARK    3  A    between atoms: S_5  and  C_6 
REMARK    4  A    between atoms: C_6  and  C_7 
REMARK       I    between atoms: C_7  and  N_8 
REMARK    5  A    between atoms: N_8  and  C_9 
REMARK    6  A    between atoms: C_9  and  C_10 
REMARK    7  A    between atoms: C_10  and  O_11 
REMARK    8  A    between atoms: O_11  and  C_12 
REMARK    9  A    between atoms: C_21  and  C_22 
ROOT
HETATM    1  S   UNL     1       6.964  27.679  57.396  1.00  0.00    -0.081 SA
ENDROOT
BRANCH   1   2
HETATM    2  C   UNL     1       6.640  26.372  56.310  1.00  0.00     0.192 A 
HETATM    3  N   UNL     1       7.509  25.346  56.046  1.00  0.00    -0.308 N 
HETATM    4  C   UNL     1       6.849  24.521  55.155  1.00  0.00     0.165 A 
HETATM    5  N   UNL     1       5.659  25.041  54.912  1.00  0.00    -0.128 NA
HETATM    6  N   UNL     1       5.533  26.204  55.629  1.00  0.00    -0.122 NA
BRANCH   3   7
HETATM    7  C   UNL     1       8.810  25.118  56.643  1.00  0.00     0.128 C 
HETATM    8  C   UNL     1       8.736  24.369  57.964  1.00  0.00     0.027 C 
ENDBRANCH   3   7
BRANCH   4   9
HETATM    9  C   UNL     1       7.350  23.259  54.606  1.00  0.00     0.018 A 
HETATM   10  C   UNL     1       7.806  23.167  53.273  1.00  0.00    -0.048 A 
HETATM   11  C   UNL     1       7.835  24.365  52.361  1.00  0.00     0.049 C 
HETATM   12  C   UNL     1       8.285  21.936  52.793  1.00  0.00     0.007 A 
HETATM   13  C   UNL     1       8.309  20.809  53.614  1.00  0.00     0.001 A 
HETATM   14  C   UNL     1       7.872  20.901  54.932  1.00  0.00     0.001 A 
HETATM   15  C   UNL     1       7.404  22.119  55.426  1.00  0.00     0.016 A 
ENDBRANCH   4   9
ENDBRANCH   1   2
BRANCH   1  16
HETATM   16  C   UNL     1       8.257  28.552  56.462  1.00  0.00     0.185 C 
BRANCH  16  17
HETATM   17  C   UNL     1       9.104  29.376  57.419  1.00  0.00     0.227 C 
HETATM   18  N   UNL     1       8.412  29.922  58.481  1.00  0.00    -0.358 N 
HETATM   19  H   UNL     1       7.420  29.744  58.578  1.00  0.00     0.162 HD
HETATM   20  O   UNL     1      10.312  29.535  57.260  1.00  0.00    -0.273 OA
BRANCH  18  21
HETATM   21  C   UNL     1       9.081  30.675  59.527  1.00  0.00     0.149 C 
BRANCH  21  22
HETATM   22  C   UNL     1       8.215  31.781  60.136  1.00  0.00     0.195 C 
BRANCH  22  23
HETATM   23  O   UNL     1       8.383  31.730  61.555  1.00  0.00    -0.350 OA
BRANCH  23  24
HETATM   24  C   UNL     1       7.689  32.631  62.312  1.00  0.00     0.068 A 
HETATM   25  C   UNL     1       6.722  33.525  61.851  1.00  0.00     0.037 A 
HETATM   26  C   UNL     1       6.078  34.385  62.749  1.00  0.00     0.003 A 
HETATM   27  C   UNL     1       6.400  34.358  64.105  1.00  0.00     0.000 A 
HETATM   28  C   UNL     1       7.366  33.469  64.569  1.00  0.00     0.003 A 
HETATM   29  C   UNL     1       8.005  32.611  63.675  1.00  0.00     0.037 A 
ENDBRANCH  23  24
ENDBRANCH  22  23
ENDBRANCH  21  22
ENDBRANCH  18  21
ENDBRANCH  16  17
ENDBRANCH   1  16
TORSDOF 9
ENDMDL
MODEL 4
REMARK VINA RESULT:      -8.4      2.088      2.770
REMARK  9 active torsions:
REMARK  status: ('A' for Active; 'I' for Inactive)
REMARK    1  A    between atoms: C_2  and  N_3 
REMARK    2  A    between atoms: C_4  and  S_5 
REMARK    3  A    between atoms: S_5  and  C_6 
REMARK    4  A    between atoms: C_6  and  C_7 
REMARK       I    between atoms: C_7  and  N_8 
REMARK    5  A    between atoms: N_8  and  C_9 
REMARK    6  A    between atoms: C_9  and  C_10 
REMARK    7  A    between atoms: C_10  and  O_11 
REMARK    8  A    between atoms: O_11  and  C_12 
REMARK    9  A    between atoms: C_21  and  C_22 
ROOT
HETATM    1  S   UNL     1       5.674  28.974  57.062  1.00  0.00    -0.081 SA
ENDROOT
BRANCH   1   2
HETATM    2  C   UNL     1       5.727  27.303  56.618  1.00  0.00     0.192 A 
HETATM    3  N   UNL     1       6.646  26.754  55.764  1.00  0.00    -0.308 N 
HETATM    4  C   UNL     1       6.343  25.406  55.710  1.00  0.00     0.165 A 
HETATM    5  N   UNL     1       5.300  25.184  56.491  1.00  0.00    -0.128 NA
HETATM    6  N   UNL     1       4.911  26.373  57.052  1.00  0.00    -0.122 NA
BRANCH   3   7
HETATM    7  C   UNL     1       7.761  27.421  55.123  1.00  0.00     0.128 C 
HETATM    8  C   UNL     1       7.428  27.936  53.731  1.00  0.00     0.027 C 
ENDBRANCH   3   7
BRANCH   4   9
HETATM    9  C   UNL     1       7.074  24.381  54.961  1.00  0.00     0.018 A 
HETATM   10  C   UNL     1       6.723  24.053  53.633  1.00  0.00    -0.048 A 
HETATM   11  C   UNL     1       5.608  24.759  52.909  1.00  0.00     0.049 C 
HETATM   12  C   UNL     1       7.459  23.067  52.952  1.00  0.00     0.007 A 
HETATM   13  C   UNL     1       8.522  22.411  53.572  1.00  0.00     0.001 A 
HETATM   14  C   UNL     1       8.877  22.745  54.876  1.00  0.00     0.001 A 
HETATM   15  C   UNL     1       8.163  23.728  55.562  1.00  0.00     0.016 A 
ENDBRANCH   4   9
ENDBRANCH   1   2
BRANCH   1  16
HETATM   16  C   UNL     1       4.026  29.416  56.436  1.00  0.00     0.185 C 
BRANCH  16  17
HETATM   17  C   UNL     1       3.465  30.568  57.253  1.00  0.00     0.227 C 
HETATM   18  N   UNL     1       3.837  30.570  58.583  1.00  0.00    -0.358 N 
HETATM   19  H   UNL     1       4.450  29.844  58.933  1.00  0.00     0.162 HD
HETATM   20  O   UNL     1       2.743  31.434  56.764  1.00  0.00    -0.273 OA
BRANCH  18  21
HETATM   21  C   UNL     1       3.449  31.639  59.487  1.00  0.00     0.149 C 
BRANCH  21  22
HETATM   22  C   UNL     1       4.636  32.427  60.048  1.00  0.00     0.195 C 
BRANCH  22  23
HETATM   23  O   UNL     1       5.812  31.979  59.370  1.00  0.00    -0.350 OA
BRANCH  23  24
HETATM   24  C   UNL     1       6.963  31.868  60.097  1.00  0.00     0.068 A 
HETATM   25  C   UNL     1       8.157  31.286  59.668  1.00  0.00     0.037 A 
HETATM   26  C   UNL     1       9.268  31.257  60.519  1.00  0.00     0.003 A 
HETATM   27  C   UNL     1       9.189  31.803  61.800  1.00  0.00     0.000 A 
HETATM   28  C   UNL     1       8.000  32.382  62.233  1.00  0.00     0.003 A 
HETATM   29  C   UNL     1       6.895  32.414  61.383  1.00  0.00     0.037 A 
ENDBRANCH  23  24
ENDBRANCH  22  23
ENDBRANCH  21  22
ENDBRANCH  18  21
ENDBRANCH  16  17
ENDBRANCH   1  16
TORSDOF 9
ENDMDL
MODEL 5
REMARK VINA RESULT:      -8.2      1.900      2.726
REMARK  9 active torsions:
REMARK  status: ('A' for Active; 'I' for Inactive)
REMARK    1  A    between atoms: C_2  and  N_3 
REMARK    2  A    between atoms: C_4  and  S_5 
REMARK    3  A    between atoms: S_5  and  C_6 
REMARK    4  A    between atoms: C_6  and  C_7 
REMARK       I    between atoms: C_7  and  N_8 
REMARK    5  A    between atoms: N_8  and  C_9 
REMARK    6  A    between atoms: C_9  and  C_10 
REMARK    7  A    between atoms: C_10  and  O_11 
REMARK    8  A    between atoms: O_11  and  C_12 
REMARK    9  A    between atoms: C_21  and  C_22 
ROOT
HETATM    1  S   UNL     1       5.184  30.510  55.928  1.00  0.00    -0.081 SA
ENDROOT
BRANCH   1   2
HETATM    2  C   UNL     1       6.275  29.204  55.618  1.00  0.00     0.192 A 
HETATM    3  N   UNL     1       5.943  28.056  54.949  1.00  0.00    -0.308 N 
HETATM    4  C   UNL     1       7.102  27.304  54.904  1.00  0.00     0.165 A 
HETATM    5  N   UNL     1       8.058  27.981  55.518  1.00  0.00    -0.128 NA
HETATM    6  N   UNL     1       7.537  29.165  55.971  1.00  0.00    -0.122 NA
BRANCH   3   7
HETATM    7  C   UNL     1       4.672  27.732  54.332  1.00  0.00     0.128 C 
HETATM    8  C   UNL     1       4.579  28.184  52.884  1.00  0.00     0.027 C 
ENDBRANCH   3   7
BRANCH   4   9
HETATM    9  C   UNL     1       7.270  26.005  54.250  1.00  0.00     0.018 A 
HETATM   10  C   UNL     1       6.962  24.801  54.919  1.00  0.00    -0.048 A 
HETATM   11  C   UNL     1       6.414  24.791  56.322  1.00  0.00     0.049 C 
HETATM   12  C   UNL     1       7.133  23.577  54.248  1.00  0.00     0.007 A 
HETATM   13  C   UNL     1       7.605  23.542  52.936  1.00  0.00     0.001 A 
HETATM   14  C   UNL     1       7.896  24.729  52.271  1.00  0.00     0.001 A 
HETATM   15  C   UNL     1       7.722  25.951  52.921  1.00  0.00     0.016 A 
ENDBRANCH   4   9
ENDBRANCH   1   2
BRANCH   1  16
HETATM   16  C   UNL     1       5.223  30.530  57.745  1.00  0.00     0.185 C 
BRANCH  16  17
HETATM   17  C   UNL     1       6.327  31.462  58.219  1.00  0.00     0.227 C 
HETATM   18  N   UNL     1       7.467  30.827  58.669  1.00  0.00    -0.358 N 
HETATM   19  H   UNL     1       7.518  29.816  58.652  1.00  0.00     0.162 HD
HETATM   20  O   UNL     1       6.214  32.686  58.193  1.00  0.00    -0.273 OA
BRANCH  18  21
HETATM   21  C   UNL     1       8.643  31.569  59.088  1.00  0.00     0.149 C 
BRANCH  21  22
HETATM   22  C   UNL     1       9.005  31.362  60.562  1.00  0.00     0.195 C 
BRANCH  22  23
HETATM   23  O   UNL     1       7.785  31.183  61.285  1.00  0.00    -0.350 OA
BRANCH  23  24
HETATM   24  C   UNL     1       7.366  32.204  62.091  1.00  0.00     0.068 A 
HETATM   25  C   UNL     1       6.411  33.170  61.770  1.00  0.00     0.037 A 
HETATM   26  C   UNL     1       6.068  34.154  62.705  1.00  0.00     0.003 A 
HETATM   27  C   UNL     1       6.678  34.178  63.959  1.00  0.00     0.000 A 
HETATM   28  C   UNL     1       7.633  33.218  64.282  1.00  0.00     0.003 A 
HETATM   29  C   UNL     1       7.972  32.237  63.351  1.00  0.00     0.037 A 
ENDBRANCH  23  24
ENDBRANCH  22  23
ENDBRANCH  21  22
ENDBRANCH  18  21
ENDBRANCH  16  17
ENDBRANCH   1  16
TORSDOF 9
ENDMDL
MODEL 6
REMARK VINA RESULT:      -8.2      1.229      1.966
REMARK  9 active torsions:
REMARK  status: ('A' for Active; 'I' for Inactive)
REMARK    1  A    between atoms: C_2  and  N_3 
REMARK    2  A    between atoms: C_4  and  S_5 
REMARK    3  A    between atoms: S_5  and  C_6 
REMARK    4  A    between atoms: C_6  and  C_7 
REMARK       I    between atoms: C_7  and  N_8 
REMARK    5  A    between atoms: N_8  and  C_9 
REMARK    6  A    between atoms: C_9  and  C_10 
REMARK    7  A    between atoms: C_10  and  O_11 
REMARK    8  A    between atoms: O_11  and  C_12 
REMARK    9  A    between atoms: C_21  and  C_22 
ROOT
HETATM    1  S   UNL     1       5.418  29.086  56.615  1.00  0.00    -0.081 SA
ENDROOT
BRANCH   1   2
HETATM    2  C   UNL     1       5.623  27.385  56.377  1.00  0.00     0.192 A 
HETATM    3  N   UNL     1       6.483  26.825  55.469  1.00  0.00    -0.308 N 
HETATM    4  C   UNL     1       6.350  25.458  55.627  1.00  0.00     0.165 A 
HETATM    5  N   UNL     1       5.457  25.236  56.576  1.00  0.00    -0.128 NA
HETATM    6  N   UNL     1       4.997  26.442  57.038  1.00  0.00    -0.122 NA
BRANCH   3   7
HETATM    7  C   UNL     1       7.408  27.513  54.592  1.00  0.00     0.128 C 
HETATM    8  C   UNL     1       6.769  27.972  53.291  1.00  0.00     0.027 C 
ENDBRANCH   3   7
BRANCH   4   9
HETATM    9  C   UNL     1       7.099  24.425  54.910  1.00  0.00     0.018 A 
HETATM   10  C   UNL     1       6.713  24.001  53.619  1.00  0.00    -0.048 A 
HETATM   11  C   UNL     1       5.538  24.611  52.902  1.00  0.00     0.049 C 
HETATM   12  C   UNL     1       7.467  23.010  52.966  1.00  0.00     0.007 A 
HETATM   13  C   UNL     1       8.584  22.442  53.579  1.00  0.00     0.001 A 
HETATM   14  C   UNL     1       8.973  22.869  54.845  1.00  0.00     0.001 A 
HETATM   15  C   UNL     1       8.240  23.858  55.502  1.00  0.00     0.016 A 
ENDBRANCH   4   9
ENDBRANCH   1   2
BRANCH   1  16
HETATM   16  C   UNL     1       7.156  29.618  56.619  1.00  0.00     0.185 C 
BRANCH  16  17
HETATM   17  C   UNL     1       7.758  29.374  57.994  1.00  0.00     0.227 C 
HETATM   18  N   UNL     1       8.021  30.518  58.721  1.00  0.00    -0.358 N 
HETATM   19  H   UNL     1       7.799  31.424  58.328  1.00  0.00     0.162 HD
HETATM   20  O   UNL     1       7.983  28.246  58.425  1.00  0.00    -0.273 OA
BRANCH  18  21
HETATM   21  C   UNL     1       8.528  30.462  60.081  1.00  0.00     0.149 C 
BRANCH  21  22
HETATM   22  C   UNL     1       8.966  31.824  60.628  1.00  0.00     0.195 C 
BRANCH  22  23
HETATM   23  O   UNL     1       7.792  32.627  60.775  1.00  0.00    -0.350 OA
BRANCH  23  24
HETATM   24  C   UNL     1       7.451  33.033  62.034  1.00  0.00     0.068 A 
HETATM   25  C   UNL     1       8.013  32.578  63.228  1.00  0.00     0.037 A 
HETATM   26  C   UNL     1       7.573  33.097  64.452  1.00  0.00     0.003 A 
HETATM   27  C   UNL     1       6.571  34.066  64.487  1.00  0.00     0.000 A 
HETATM   28  C   UNL     1       6.006  34.521  63.299  1.00  0.00     0.003 A 
HETATM   29  C   UNL     1       6.447  34.006  62.080  1.00  0.00     0.037 A 
ENDBRANCH  23  24
ENDBRANCH  22  23
ENDBRANCH  21  22
ENDBRANCH  18  21
ENDBRANCH  16  17
ENDBRANCH   1  16
TORSDOF 9
ENDMDL
MODEL 7
REMARK VINA RESULT:      -8.2      1.388      2.438
REMARK  9 active torsions:
REMARK  status: ('A' for Active; 'I' for Inactive)
REMARK    1  A    between atoms: C_2  and  N_3 
REMARK    2  A    between atoms: C_4  and  S_5 
REMARK    3  A    between atoms: S_5  and  C_6 
REMARK    4  A    between atoms: C_6  and  C_7 
REMARK       I    between atoms: C_7  and  N_8 
REMARK    5  A    between atoms: N_8  and  C_9 
REMARK    6  A    between atoms: C_9  and  C_10 
REMARK    7  A    between atoms: C_10  and  O_11 
REMARK    8  A    between atoms: O_11  and  C_12 
REMARK    9  A    between atoms: C_21  and  C_22 
ROOT
HETATM    1  S   UNL     1       5.119  28.905  55.785  1.00  0.00    -0.081 SA
ENDROOT
BRANCH   1   2
HETATM    2  C   UNL     1       5.511  27.221  55.856  1.00  0.00     0.192 A 
HETATM    3  N   UNL     1       6.396  26.593  55.021  1.00  0.00    -0.308 N 
HETATM    4  C   UNL     1       6.427  25.275  55.437  1.00  0.00     0.165 A 
HETATM    5  N   UNL     1       5.601  25.144  56.461  1.00  0.00    -0.128 NA
HETATM    6  N   UNL     1       5.022  26.361  56.717  1.00  0.00    -0.122 NA
BRANCH   3   7
HETATM    7  C   UNL     1       7.203  27.195  53.980  1.00  0.00     0.128 C 
HETATM    8  C   UNL     1       6.513  27.214  52.625  1.00  0.00     0.027 C 
ENDBRANCH   3   7
BRANCH   4   9
HETATM    9  C   UNL     1       7.264  24.209  54.883  1.00  0.00     0.018 A 
HETATM   10  C   UNL     1       8.401  23.734  55.573  1.00  0.00    -0.048 A 
HETATM   11  C   UNL     1       8.790  24.271  56.924  1.00  0.00     0.049 C 
HETATM   12  C   UNL     1       9.170  22.703  55.004  1.00  0.00     0.007 A 
HETATM   13  C   UNL     1       8.825  22.152  53.770  1.00  0.00     0.001 A 
HETATM   14  C   UNL     1       7.697  22.610  53.096  1.00  0.00     0.001 A 
HETATM   15  C   UNL     1       6.918  23.625  53.652  1.00  0.00     0.016 A 
ENDBRANCH   4   9
ENDBRANCH   1   2
BRANCH   1  16
HETATM   16  C   UNL     1       5.418  29.372  57.517  1.00  0.00     0.185 C 
BRANCH  16  17
HETATM   17  C   UNL     1       6.852  29.854  57.671  1.00  0.00     0.227 C 
HETATM   18  N   UNL     1       7.054  30.747  58.705  1.00  0.00    -0.358 N 
HETATM   19  H   UNL     1       6.276  31.017  59.294  1.00  0.00     0.162 HD
HETATM   20  O   UNL     1       7.759  29.470  56.937  1.00  0.00    -0.273 OA
BRANCH  18  21
HETATM   21  C   UNL     1       8.376  31.249  59.037  1.00  0.00     0.149 C 
BRANCH  21  22
HETATM   22  C   UNL     1       8.371  32.293  60.158  1.00  0.00     0.195 C 
BRANCH  22  23
HETATM   23  O   UNL     1       7.225  32.042  60.976  1.00  0.00    -0.350 OA
BRANCH  23  24
HETATM   24  C   UNL     1       7.122  32.725  62.154  1.00  0.00     0.068 A 
HETATM   25  C   UNL     1       7.842  32.468  63.322  1.00  0.00     0.037 A 
HETATM   26  C   UNL     1       7.642  33.264  64.457  1.00  0.00     0.003 A 
HETATM   27  C   UNL     1       6.722  34.311  64.431  1.00  0.00     0.000 A 
HETATM   28  C   UNL     1       5.999  34.569  63.269  1.00  0.00     0.003 A 
HETATM   29  C   UNL     1       6.201  33.778  62.138  1.00  0.00     0.037 A 
ENDBRANCH  23  24
ENDBRANCH  22  23
ENDBRANCH  21  22
ENDBRANCH  18  21
ENDBRANCH  16  17
ENDBRANCH   1  16
TORSDOF 9
ENDMDL
MODEL 8
REMARK VINA RESULT:      -8.2      1.508      2.077
REMARK  9 active torsions:
REMARK  status: ('A' for Active; 'I' for Inactive)
REMARK    1  A    between atoms: C_2  and  N_3 
REMARK    2  A    between atoms: C_4  and  S_5 
REMARK    3  A    between atoms: S_5  and  C_6 
REMARK    4  A    between atoms: C_6  and  C_7 
REMARK       I    between atoms: C_7  and  N_8 
REMARK    5  A    between atoms: N_8  and  C_9 
REMARK    6  A    between atoms: C_9  and  C_10 
REMARK    7  A    between atoms: C_10  and  O_11 
REMARK    8  A    between atoms: O_11  and  C_12 
REMARK    9  A    between atoms: C_21  and  C_22 
ROOT
HETATM    1  S   UNL     1       5.357  27.502  56.088  1.00  0.00    -0.081 SA
ENDROOT
BRANCH   1   2
HETATM    2  C   UNL     1       6.451  26.166  55.983  1.00  0.00     0.192 A 
HETATM    3  N   UNL     1       6.235  25.040  55.233  1.00  0.00    -0.308 N 
HETATM    4  C   UNL     1       7.356  24.252  55.415  1.00  0.00     0.165 A 
HETATM    5  N   UNL     1       8.180  24.887  56.231  1.00  0.00    -0.128 NA
HETATM    6  N   UNL     1       7.609  26.080  56.592  1.00  0.00    -0.122 NA
BRANCH   3   7
HETATM    7  C   UNL     1       5.113  24.768  54.357  1.00  0.00     0.128 C 
HETATM    8  C   UNL     1       5.166  25.556  53.057  1.00  0.00     0.027 C 
ENDBRANCH   3   7
BRANCH   4   9
HETATM    9  C   UNL     1       7.620  22.959  54.781  1.00  0.00     0.018 A 
HETATM   10  C   UNL     1       7.987  22.871  53.420  1.00  0.00    -0.048 A 
HETATM   11  C   UNL     1       8.159  24.097  52.563  1.00  0.00     0.049 C 
HETATM   12  C   UNL     1       8.238  21.607  52.856  1.00  0.00     0.007 A 
HETATM   13  C   UNL     1       8.125  20.447  53.622  1.00  0.00     0.001 A 
HETATM   14  C   UNL     1       7.778  20.535  54.967  1.00  0.00     0.001 A 
HETATM   15  C   UNL     1       7.535  21.782  55.543  1.00  0.00     0.016 A 
ENDBRANCH   4   9
ENDBRANCH   1   2
BRANCH   1  16
HETATM   16  C   UNL     1       6.047  28.363  57.533  1.00  0.00     0.185 C 
BRANCH  16  17
HETATM   17  C   UNL     1       7.124  29.334  57.078  1.00  0.00     0.227 C 
HETATM   18  N   UNL     1       7.798  29.971  58.101  1.00  0.00    -0.358 N 
HETATM   19  H   UNL     1       7.564  29.761  59.063  1.00  0.00     0.162 HD
HETATM   20  O   UNL     1       7.379  29.528  55.892  1.00  0.00    -0.273 OA
BRANCH  18  21
HETATM   21  C   UNL     1       8.906  30.874  57.844  1.00  0.00     0.149 C 
BRANCH  21  22
HETATM   22  C   UNL     1       9.671  31.281  59.106  1.00  0.00     0.195 C 
BRANCH  22  23
HETATM   23  O   UNL     1       9.082  32.488  59.598  1.00  0.00    -0.350 OA
BRANCH  23  24
HETATM   24  C   UNL     1       8.381  32.424  60.768  1.00  0.00     0.068 A 
HETATM   25  C   UNL     1       8.914  32.197  62.038  1.00  0.00     0.037 A 
HETATM   26  C   UNL     1       8.073  32.172  63.157  1.00  0.00     0.003 A 
HETATM   27  C   UNL     1       6.700  32.369  63.012  1.00  0.00     0.000 A 
HETATM   28  C   UNL     1       6.163  32.594  61.747  1.00  0.00     0.003 A 
HETATM   29  C   UNL     1       7.003  32.621  60.633  1.00  0.00     0.037 A 
ENDBRANCH  23  24
ENDBRANCH  22  23
ENDBRANCH  21  22
ENDBRANCH  18  21
ENDBRANCH  16  17
ENDBRANCH   1  16
TORSDOF 9
ENDMDL
MODEL 9
REMARK VINA RESULT:      -8.2      2.740     10.102
REMARK  9 active torsions:
REMARK  status: ('A' for Active; 'I' for Inactive)
REMARK    1  A    between atoms: C_2  and  N_3 
REMARK    2  A    between atoms: C_4  and  S_5 
REMARK    3  A    between atoms: S_5  and  C_6 
REMARK    4  A    between atoms: C_6  and  C_7 
REMARK       I    between atoms: C_7  and  N_8 
REMARK    5  A    between atoms: N_8  and  C_9 
REMARK    6  A    between atoms: C_9  and  C_10 
REMARK    7  A    between atoms: C_10  and  O_11 
REMARK    8  A    between atoms: O_11  and  C_12 
REMARK    9  A    between atoms: C_21  and  C_22 
ROOT
HETATM    1  S   UNL     1       9.200  30.542  58.986  1.00  0.00    -0.081 SA
ENDROOT
BRANCH   1   2
HETATM    2  C   UNL     1       8.770  30.768  60.646  1.00  0.00     0.192 A 
HETATM    3  N   UNL     1       8.043  31.826  61.124  1.00  0.00    -0.308 N 
HETATM    4  C   UNL     1       7.910  31.602  62.482  1.00  0.00     0.165 A 
HETATM    5  N   UNL     1       8.530  30.473  62.778  1.00  0.00    -0.128 NA
HETATM    6  N   UNL     1       9.074  29.956  61.630  1.00  0.00    -0.122 NA
BRANCH   3   7
HETATM    7  C   UNL     1       7.454  32.907  60.360  1.00  0.00     0.128 C 
HETATM    8  C   UNL     1       6.121  32.535  59.731  1.00  0.00     0.027 C 
ENDBRANCH   3   7
BRANCH   4   9
HETATM    9  C   UNL     1       7.171  32.437  63.431  1.00  0.00     0.018 A 
HETATM   10  C   UNL     1       5.765  32.358  63.538  1.00  0.00    -0.048 A 
HETATM   11  C   UNL     1       4.960  31.392  62.710  1.00  0.00     0.049 C 
HETATM   12  C   UNL     1       5.099  33.173  64.470  1.00  0.00     0.007 A 
HETATM   13  C   UNL     1       5.809  34.058  65.281  1.00  0.00     0.001 A 
HETATM   14  C   UNL     1       7.195  34.126  65.187  1.00  0.00     0.001 A 
HETATM   15  C   UNL     1       7.872  33.316  64.274  1.00  0.00     0.016 A 
ENDBRANCH   4   9
ENDBRANCH   1   2
BRANCH   1  16
HETATM   16  C   UNL     1       7.779  29.558  58.423  1.00  0.00     0.185 C 
BRANCH  16  17
HETATM   17  C   UNL     1       8.267  28.425  57.535  1.00  0.00     0.227 C 
HETATM   18  N   UNL     1       7.640  27.213  57.746  1.00  0.00    -0.358 N 
HETATM   19  H   UNL     1       6.908  27.141  58.441  1.00  0.00     0.162 HD
HETATM   20  O   UNL     1       9.145  28.581  56.689  1.00  0.00    -0.273 OA
BRANCH  18  21
HETATM   21  C   UNL     1       7.935  26.045  56.933  1.00  0.00     0.149 C 
BRANCH  21  22
HETATM   22  C   UNL     1       6.989  25.874  55.740  1.00  0.00     0.195 C 
BRANCH  22  23
HETATM   23  O   UNL     1       6.508  24.528  55.761  1.00  0.00    -0.350 OA
BRANCH  23  24
HETATM   24  C   UNL     1       7.076  23.635  54.898  1.00  0.00     0.068 A 
HETATM   25  C   UNL     1       7.285  23.827  53.531  1.00  0.00     0.037 A 
HETATM   26  C   UNL     1       7.896  22.824  52.768  1.00  0.00     0.003 A 
HETATM   27  C   UNL     1       8.294  21.628  53.365  1.00  0.00     0.000 A 
HETATM   28  C   UNL     1       8.085  21.432  54.727  1.00  0.00     0.003 A 
HETATM   29  C   UNL     1       7.480  22.432  55.487  1.00  0.00     0.037 A 
ENDBRANCH  23  24
ENDBRANCH  22  23
ENDBRANCH  21  22
ENDBRANCH  18  21
ENDBRANCH  16  17
ENDBRANCH   1  16
TORSDOF 9
ENDMDL
MODEL 10
REMARK VINA RESULT:      -8.1      2.318      9.982
REMARK  9 active torsions:
REMARK  status: ('A' for Active; 'I' for Inactive)
REMARK    1  A    between atoms: C_2  and  N_3 
REMARK    2  A    between atoms: C_4  and  S_5 
REMARK    3  A    between atoms: S_5  and  C_6 
REMARK    4  A    between atoms: C_6  and  C_7 
REMARK       I    between atoms: C_7  and  N_8 
REMARK    5  A    between atoms: N_8  and  C_9 
REMARK    6  A    between atoms: C_9  and  C_10 
REMARK    7  A    between atoms: C_10  and  O_11 
REMARK    8  A    between atoms: O_11  and  C_12 
REMARK    9  A    between atoms: C_21  and  C_22 
ROOT
HETATM    1  S   UNL     1       8.284  30.229  57.901  1.00  0.00    -0.081 SA
ENDROOT
BRANCH   1   2
HETATM    2  C   UNL     1       7.442  31.262  59.003  1.00  0.00     0.192 A 
HETATM    3  N   UNL     1       7.604  31.246  60.363  1.00  0.00    -0.308 N 
HETATM    4  C   UNL     1       6.770  32.236  60.848  1.00  0.00     0.165 A 
HETATM    5  N   UNL     1       6.152  32.796  59.823  1.00  0.00    -0.128 NA
HETATM    6  N   UNL     1       6.568  32.180  58.670  1.00  0.00    -0.122 NA
BRANCH   3   7
HETATM    7  C   UNL     1       8.525  30.432  61.131  1.00  0.00     0.128 C 
HETATM    8  C   UNL     1       9.885  31.086  61.319  1.00  0.00     0.027 C 
ENDBRANCH   3   7
BRANCH   4   9
HETATM    9  C   UNL     1       6.623  32.639  62.248  1.00  0.00     0.018 A 
HETATM   10  C   UNL     1       5.364  32.627  62.888  1.00  0.00    -0.048 A 
HETATM   11  C   UNL     1       4.118  32.168  62.177  1.00  0.00     0.049 C 
HETATM   12  C   UNL     1       5.273  33.016  64.236  1.00  0.00     0.007 A 
HETATM   13  C   UNL     1       6.408  33.415  64.942  1.00  0.00     0.001 A 
HETATM   14  C   UNL     1       7.651  33.413  64.317  1.00  0.00     0.001 A 
HETATM   15  C   UNL     1       7.758  33.021  62.983  1.00  0.00     0.016 A 
ENDBRANCH   4   9
ENDBRANCH   1   2
BRANCH   1  16
HETATM   16  C   UNL     1       6.884  29.305  57.200  1.00  0.00     0.185 C 
BRANCH  16  17
HETATM   17  C   UNL     1       7.038  27.828  57.524  1.00  0.00     0.227 C 
HETATM   18  N   UNL     1       6.048  27.016  57.009  1.00  0.00    -0.358 N 
HETATM   19  H   UNL     1       5.305  27.422  56.453  1.00  0.00     0.162 HD
HETATM   20  O   UNL     1       7.978  27.392  58.186  1.00  0.00    -0.273 OA
BRANCH  18  21
HETATM   21  C   UNL     1       6.082  25.572  57.163  1.00  0.00     0.149 C 
BRANCH  21  22
HETATM   22  C   UNL     1       6.372  24.823  55.859  1.00  0.00     0.195 C 
BRANCH  22  23
HETATM   23  O   UNL     1       7.496  23.970  56.092  1.00  0.00    -0.350 OA
BRANCH  23  24
HETATM   24  C   UNL     1       7.654  22.888  55.274  1.00  0.00     0.068 A 
HETATM   25  C   UNL     1       7.777  21.558  55.679  1.00  0.00     0.037 A 
HETATM   26  C   UNL     1       7.920  20.544  54.724  1.00  0.00     0.003 A 
HETATM   27  C   UNL     1       7.944  20.855  53.364  1.00  0.00     0.000 A 
HETATM   28  C   UNL     1       7.824  22.180  52.956  1.00  0.00     0.003 A 
HETATM   29  C   UNL     1       7.679  23.189  53.908  1.00  0.00     0.037 A 
ENDBRANCH  23  24
ENDBRANCH  22  23
ENDBRANCH  21  22
ENDBRANCH  18  21
ENDBRANCH  16  17
ENDBRANCH   1  16
TORSDOF 9
ENDMDL
