MODEL 1
REMARK VINA RESULT:      -9.1      0.000      0.000
REMARK  3 active torsions:
REMARK  status: ('A' for Active; 'I' for Inactive)
REMARK    1  A    between atoms: C_5  and  N_6 
REMARK       I    between atoms: N_6  and  C_7 
REMARK    2  A    between atoms: C_7  and  C_8 
REMARK    3  A    between atoms: C_11  and  N_12 
ROOT
HETATM    1  C   UNL     1       7.242  24.865  51.854  1.00  0.00     0.001 A 
HETATM    2  C   UNL     1       7.964  23.873  52.520  1.00  0.00     0.008 A 
HETATM    3  C   UNL     1       8.125  23.979  53.895  1.00  0.00    -0.043 A 
HETATM    4  C   UNL     1       7.595  25.061  54.599  1.00  0.00    -0.028 A 
HETATM    5  C   UNL     1       7.875  24.964  56.068  1.00  0.00     0.125 C 
HETATM    6  C   UNL     1       8.829  23.742  56.161  1.00  0.00     0.049 C 
HETATM    7  C   UNL     1       8.853  23.027  54.790  1.00  0.00     0.053 C 
HETATM    8  C   UNL     1       8.322  22.699  57.145  1.00  0.00     0.239 C 
HETATM    9  N   UNL     1       7.458  21.807  56.310  1.00  0.00    -0.074 N 
HETATM   10  H   UNL     1       7.316  20.891  56.758  1.00  0.00     0.277 HD
HETATM   11  H   UNL     1       6.524  22.225  56.190  1.00  0.00     0.277 HD
HETATM   12  C   UNL     1       8.144  21.690  54.985  1.00  0.00     0.242 C 
HETATM   13  C   UNL     1       6.860  26.041  53.943  1.00  0.00     0.010 A 
HETATM   14  C   UNL     1       6.691  25.940  52.562  1.00  0.00     0.001 A 
ENDROOT
BRANCH   5  15
HETATM   15  N   UNL     1       8.467  26.166  56.605  1.00  0.00    -0.348 N 
HETATM   16  C   UNL     1       7.660  27.135  57.169  1.00  0.00     0.252 C 
HETATM   17  O   UNL     1       6.462  26.938  57.353  1.00  0.00    -0.268 OA
HETATM   18  H   UNL     1       9.392  26.426  56.285  1.00  0.00     0.163 HD
BRANCH  16  19
HETATM   19  C   UNL     1       8.287  28.441  57.518  1.00  0.00     0.032 A 
HETATM   20  C   UNL     1       7.671  29.377  58.355  1.00  0.00     0.019 A 
HETATM   21  C   UNL     1       8.326  30.576  58.665  1.00  0.00     0.024 A 
HETATM   22  C   UNL     1       9.569  30.882  58.107  1.00  0.00     0.005 A 
HETATM   23  C   UNL     1      10.194  29.927  57.304  1.00  0.00     0.024 A 
HETATM   24  C   UNL     1       9.551  28.726  56.989  1.00  0.00     0.019 A 
BRANCH  22  25
HETATM   25  N   UNL     1      10.273  32.012  58.532  1.00  0.00    -0.303 NA
HETATM   26  H   UNL     1      11.264  31.858  58.689  1.00  0.00     0.124 HD
HETATM   27  H   UNL     1       9.839  32.511  59.302  1.00  0.00     0.124 HD
ENDBRANCH  22  25
ENDBRANCH  16  19
ENDBRANCH   5  15
TORSDOF 3
ENDMDL
MODEL 2
REMARK VINA RESULT:      -8.7     10.899     14.368
REMARK  3 active torsions:
REMARK  status: ('A' for Active; 'I' for Inactive)
REMARK    1  A    between atoms: C_5  and  N_6 
REMARK       I    between atoms: N_6  and  C_7 
REMARK    2  A    between atoms: C_7  and  C_8 
REMARK    3  A    between atoms: C_11  and  N_12 
ROOT
HETATM    1  C   UNL     1       7.023  32.449  62.726  1.00  0.00     0.001 A 
HETATM    2  C   UNL     1       5.679  32.766  62.928  1.00  0.00     0.008 A 
HETATM    3  C   UNL     1       5.316  33.388  64.115  1.00  0.00    -0.043 A 
HETATM    4  C   UNL     1       6.266  33.677  65.095  1.00  0.00    -0.028 A 
HETATM    5  C   UNL     1       5.656  34.361  66.281  1.00  0.00     0.125 C 
HETATM    6  C   UNL     1       4.134  34.293  65.979  1.00  0.00     0.049 C 
HETATM    7  C   UNL     1       3.940  33.813  64.521  1.00  0.00     0.053 C 
HETATM    8  C   UNL     1       3.482  35.665  66.036  1.00  0.00     0.239 C 
HETATM    9  N   UNL     1       3.613  36.185  64.639  1.00  0.00    -0.074 N 
HETATM   10  H   UNL     1       2.943  36.944  64.453  1.00  0.00     0.277 HD
HETATM   11  H   UNL     1       4.554  36.579  64.492  1.00  0.00     0.277 HD
HETATM   12  C   UNL     1       3.402  35.009  63.739  1.00  0.00     0.242 C 
HETATM   13  C   UNL     1       7.607  33.380  64.891  1.00  0.00     0.010 A 
HETATM   14  C   UNL     1       7.982  32.757  63.699  1.00  0.00     0.001 A 
ENDROOT
BRANCH   5  15
HETATM   15  N   UNL     1       5.997  33.723  67.531  1.00  0.00    -0.348 N 
HETATM   16  C   UNL     1       6.279  34.496  68.640  1.00  0.00     0.252 C 
HETATM   17  O   UNL     1       6.111  35.712  68.629  1.00  0.00    -0.268 OA
HETATM   18  H   UNL     1       6.331  32.767  67.503  1.00  0.00     0.163 HD
BRANCH  16  19
HETATM   19  C   UNL     1       6.827  33.807  69.843  1.00  0.00     0.032 A 
HETATM   20  C   UNL     1       6.308  32.601  70.327  1.00  0.00     0.019 A 
HETATM   21  C   UNL     1       6.886  31.991  71.448  1.00  0.00     0.024 A 
HETATM   22  C   UNL     1       7.944  32.594  72.130  1.00  0.00     0.005 A 
HETATM   23  C   UNL     1       8.481  33.777  71.618  1.00  0.00     0.024 A 
HETATM   24  C   UNL     1       7.914  34.394  70.500  1.00  0.00     0.019 A 
BRANCH  22  25
HETATM   25  N   UNL     1       8.601  31.910  73.156  1.00  0.00    -0.303 NA
HETATM   26  H   UNL     1       8.053  31.176  73.593  1.00  0.00     0.124 HD
HETATM   27  H   UNL     1       9.047  32.511  73.843  1.00  0.00     0.124 HD
ENDBRANCH  22  25
ENDBRANCH  16  19
ENDBRANCH   5  15
TORSDOF 3
ENDMDL
MODEL 3
REMARK VINA RESULT:      -8.5      4.860      7.293
REMARK  3 active torsions:
REMARK  status: ('A' for Active; 'I' for Inactive)
REMARK    1  A    between atoms: C_5  and  N_6 
REMARK       I    between atoms: N_6  and  C_7 
REMARK    2  A    between atoms: C_7  and  C_8 
REMARK    3  A    between atoms: C_11  and  N_12 
ROOT
HETATM    1  C   UNL     1      10.986  29.635  57.022  1.00  0.00     0.001 A 
HETATM    2  C   UNL     1       9.766  29.010  56.756  1.00  0.00     0.008 A 
HETATM    3  C   UNL     1       8.609  29.558  57.293  1.00  0.00    -0.043 A 
HETATM    4  C   UNL     1       8.659  30.699  58.094  1.00  0.00    -0.028 A 
HETATM    5  C   UNL     1       7.295  31.123  58.550  1.00  0.00     0.125 C 
HETATM    6  C   UNL     1       6.387  29.961  58.063  1.00  0.00     0.049 C 
HETATM    7  C   UNL     1       7.212  29.048  57.124  1.00  0.00     0.053 C 
HETATM    8  C   UNL     1       5.230  30.462  57.214  1.00  0.00     0.239 C 
HETATM    9  N   UNL     1       5.777  30.457  55.821  1.00  0.00    -0.074 N 
HETATM   10  H   UNL     1       5.024  30.458  55.118  1.00  0.00     0.277 HD
HETATM   11  H   UNL     1       6.336  31.306  55.654  1.00  0.00     0.277 HD
HETATM   12  C   UNL     1       6.644  29.242  55.721  1.00  0.00     0.242 C 
HETATM   13  C   UNL     1       9.867  31.335  58.347  1.00  0.00     0.010 A 
HETATM   14  C   UNL     1      11.035  30.792  57.809  1.00  0.00     0.001 A 
ENDROOT
BRANCH   5  15
HETATM   15  N   UNL     1       7.218  31.318  59.979  1.00  0.00    -0.348 N 
HETATM   16  C   UNL     1       6.463  32.356  60.489  1.00  0.00     0.252 C 
HETATM   17  O   UNL     1       5.739  33.034  59.763  1.00  0.00    -0.268 OA
HETATM   18  H   UNL     1       7.946  30.914  60.555  1.00  0.00     0.163 HD
BRANCH  16  19
HETATM   19  C   UNL     1       6.580  32.647  61.946  1.00  0.00     0.032 A 
HETATM   20  C   UNL     1       7.803  32.632  62.625  1.00  0.00     0.019 A 
HETATM   21  C   UNL     1       7.848  32.941  63.991  1.00  0.00     0.024 A 
HETATM   22  C   UNL     1       6.680  33.212  64.706  1.00  0.00     0.005 A 
HETATM   23  C   UNL     1       5.469  33.262  64.014  1.00  0.00     0.024 A 
HETATM   24  C   UNL     1       5.411  32.958  62.650  1.00  0.00     0.019 A 
BRANCH  22  25
HETATM   25  N   UNL     1       6.751  33.655  66.029  1.00  0.00    -0.303 NA
HETATM   26  H   UNL     1       7.401  33.137  66.613  1.00  0.00     0.124 HD
HETATM   27  H   UNL     1       5.850  33.778  66.480  1.00  0.00     0.124 HD
ENDBRANCH  22  25
ENDBRANCH  16  19
ENDBRANCH   5  15
TORSDOF 3
ENDMDL
MODEL 4
REMARK VINA RESULT:      -8.4      3.599      6.419
REMARK  3 active torsions:
REMARK  status: ('A' for Active; 'I' for Inactive)
REMARK    1  A    between atoms: C_5  and  N_6 
REMARK       I    between atoms: N_6  and  C_7 
REMARK    2  A    between atoms: C_7  and  C_8 
REMARK    3  A    between atoms: C_11  and  N_12 
ROOT
HETATM    1  C   UNL     1       9.072  21.893  54.295  1.00  0.00     0.001 A 
HETATM    2  C   UNL     1       9.045  22.936  55.221  1.00  0.00     0.008 A 
HETATM    3  C   UNL     1       8.121  23.958  55.044  1.00  0.00    -0.043 A 
HETATM    4  C   UNL     1       7.247  23.956  53.956  1.00  0.00    -0.028 A 
HETATM    5  C   UNL     1       6.330  25.141  53.972  1.00  0.00     0.125 C 
HETATM    6  C   UNL     1       6.885  25.996  55.144  1.00  0.00     0.049 C 
HETATM    7  C   UNL     1       7.926  25.155  55.920  1.00  0.00     0.053 C 
HETATM    8  C   UNL     1       5.807  26.332  56.162  1.00  0.00     0.239 C 
HETATM    9  N   UNL     1       5.857  25.191  57.130  1.00  0.00    -0.074 N 
HETATM   10  H   UNL     1       5.423  25.439  58.030  1.00  0.00     0.277 HD
HETATM   11  H   UNL     1       5.332  24.386  56.760  1.00  0.00     0.277 HD
HETATM   12  C   UNL     1       7.304  24.838  57.277  1.00  0.00     0.242 C 
HETATM   13  C   UNL     1       7.258  22.910  53.041  1.00  0.00     0.010 A 
HETATM   14  C   UNL     1       8.182  21.878  53.213  1.00  0.00     0.001 A 
ENDROOT
BRANCH   5  15
HETATM   15  N   UNL     1       6.325  25.862  52.721  1.00  0.00    -0.348 N 
HETATM   16  C   UNL     1       5.203  26.574  52.345  1.00  0.00     0.252 C 
HETATM   17  O   UNL     1       4.258  26.727  53.115  1.00  0.00    -0.268 OA
HETATM   18  H   UNL     1       6.990  25.585  52.009  1.00  0.00     0.163 HD
BRANCH  16  19
HETATM   19  C   UNL     1       5.164  27.125  50.961  1.00  0.00     0.032 A 
HETATM   20  C   UNL     1       4.766  26.367  49.855  1.00  0.00     0.019 A 
HETATM   21  C   UNL     1       4.726  26.953  48.583  1.00  0.00     0.024 A 
HETATM   22  C   UNL     1       5.132  28.275  48.387  1.00  0.00     0.005 A 
HETATM   23  C   UNL     1       5.492  29.036  49.501  1.00  0.00     0.024 A 
HETATM   24  C   UNL     1       5.533  28.462  50.775  1.00  0.00     0.019 A 
BRANCH  22  25
HETATM   25  N   UNL     1       4.955  28.888  47.144  1.00  0.00    -0.303 NA
HETATM   26  H   UNL     1       5.461  28.450  46.381  1.00  0.00     0.124 HD
HETATM   27  H   UNL     1       5.076  29.896  47.152  1.00  0.00     0.124 HD
ENDBRANCH  22  25
ENDBRANCH  16  19
ENDBRANCH   5  15
TORSDOF 3
ENDMDL
MODEL 5
REMARK VINA RESULT:      -8.1      3.472      7.151
REMARK  3 active torsions:
REMARK  status: ('A' for Active; 'I' for Inactive)
REMARK    1  A    between atoms: C_5  and  N_6 
REMARK       I    between atoms: N_6  and  C_7 
REMARK    2  A    between atoms: C_7  and  C_8 
REMARK    3  A    between atoms: C_11  and  N_12 
ROOT
HETATM    1  C   UNL     1       3.608  28.207  49.447  1.00  0.00     0.001 A 
HETATM    2  C   UNL     1       3.123  28.622  50.688  1.00  0.00     0.008 A 
HETATM    3  C   UNL     1       3.839  28.281  51.828  1.00  0.00    -0.043 A 
HETATM    4  C   UNL     1       5.009  27.525  51.743  1.00  0.00    -0.028 A 
HETATM    5  C   UNL     1       5.622  27.288  53.089  1.00  0.00     0.125 C 
HETATM    6  C   UNL     1       4.555  27.856  54.064  1.00  0.00     0.049 C 
HETATM    7  C   UNL     1       3.496  28.629  53.242  1.00  0.00     0.053 C 
HETATM    8  C   UNL     1       5.145  28.883  55.018  1.00  0.00     0.239 C 
HETATM    9  N   UNL     1       4.994  30.181  54.288  1.00  0.00    -0.074 N 
HETATM   10  H   UNL     1       5.047  30.984  54.930  1.00  0.00     0.277 HD
HETATM   11  H   UNL     1       5.757  30.297  53.606  1.00  0.00     0.277 HD
HETATM   12  C   UNL     1       3.678  30.106  53.580  1.00  0.00     0.242 C 
HETATM   13  C   UNL     1       5.505  27.125  50.508  1.00  0.00     0.010 A 
HETATM   14  C   UNL     1       4.794  27.466  49.357  1.00  0.00     0.001 A 
ENDROOT
BRANCH   5  15
HETATM   15  N   UNL     1       5.907  25.894  53.338  1.00  0.00    -0.348 N 
HETATM   16  C   UNL     1       6.977  25.545  54.138  1.00  0.00     0.252 C 
HETATM   17  O   UNL     1       7.611  26.394  54.759  1.00  0.00    -0.268 OA
HETATM   18  H   UNL     1       5.537  25.210  52.690  1.00  0.00     0.163 HD
BRANCH  16  19
HETATM   19  C   UNL     1       7.358  24.106  54.196  1.00  0.00     0.032 A 
HETATM   20  C   UNL     1       7.448  23.394  55.397  1.00  0.00     0.019 A 
HETATM   21  C   UNL     1       7.785  22.034  55.380  1.00  0.00     0.024 A 
HETATM   22  C   UNL     1       8.088  21.383  54.183  1.00  0.00     0.005 A 
HETATM   23  C   UNL     1       7.959  22.089  52.986  1.00  0.00     0.024 A 
HETATM   24  C   UNL     1       7.622  23.446  52.990  1.00  0.00     0.019 A 
BRANCH  22  25
HETATM   25  N   UNL     1       8.285  19.999  54.164  1.00  0.00    -0.303 NA
HETATM   26  H   UNL     1       7.755  19.488  54.864  1.00  0.00     0.124 HD
HETATM   27  H   UNL     1       9.258  19.714  54.141  1.00  0.00     0.124 HD
ENDBRANCH  22  25
ENDBRANCH  16  19
ENDBRANCH   5  15
TORSDOF 3
ENDMDL
MODEL 6
REMARK VINA RESULT:      -8.1      2.712      6.731
REMARK  3 active torsions:
REMARK  status: ('A' for Active; 'I' for Inactive)
REMARK    1  A    between atoms: C_5  and  N_6 
REMARK       I    between atoms: N_6  and  C_7 
REMARK    2  A    between atoms: C_7  and  C_8 
REMARK    3  A    between atoms: C_11  and  N_12 
ROOT
HETATM    1  C   UNL     1       3.933  28.493  51.897  1.00  0.00     0.001 A 
HETATM    2  C   UNL     1       3.584  28.658  53.238  1.00  0.00     0.008 A 
HETATM    3  C   UNL     1       4.384  28.070  54.209  1.00  0.00    -0.043 A 
HETATM    4  C   UNL     1       5.504  27.316  53.858  1.00  0.00    -0.028 A 
HETATM    5  C   UNL     1       6.226  26.791  55.061  1.00  0.00     0.125 C 
HETATM    6  C   UNL     1       5.280  27.176  56.231  1.00  0.00     0.049 C 
HETATM    7  C   UNL     1       4.188  28.130  55.691  1.00  0.00     0.053 C 
HETATM    8  C   UNL     1       6.002  27.968  57.310  1.00  0.00     0.239 C 
HETATM    9  N   UNL     1       5.847  29.391  56.876  1.00  0.00    -0.074 N 
HETATM   10  H   UNL     1       5.996  30.044  57.658  1.00  0.00     0.277 HD
HETATM   11  H   UNL     1       6.549  29.625  56.159  1.00  0.00     0.277 HD
HETATM   12  C   UNL     1       4.470  29.500  56.301  1.00  0.00     0.242 C 
HETATM   13  C   UNL     1       5.866  27.165  52.525  1.00  0.00     0.010 A 
HETATM   14  C   UNL     1       5.069  27.755  51.543  1.00  0.00     0.001 A 
ENDROOT
BRANCH   5  15
HETATM   15  N   UNL     1       6.466  25.368  54.994  1.00  0.00    -0.348 N 
HETATM   16  C   UNL     1       7.576  24.831  55.615  1.00  0.00     0.252 C 
HETATM   17  O   UNL     1       8.292  25.513  56.343  1.00  0.00    -0.268 OA
HETATM   18  H   UNL     1       6.018  24.844  54.252  1.00  0.00     0.163 HD
BRANCH  16  19
HETATM   19  C   UNL     1       7.896  23.400  55.344  1.00  0.00     0.032 A 
HETATM   20  C   UNL     1       7.901  22.856  54.056  1.00  0.00     0.019 A 
HETATM   21  C   UNL     1       8.237  21.509  53.867  1.00  0.00     0.024 A 
HETATM   22  C   UNL     1       8.515  20.678  54.953  1.00  0.00     0.005 A 
HETATM   23  C   UNL     1       8.545  21.237  56.232  1.00  0.00     0.024 A 
HETATM   24  C   UNL     1       8.213  22.580  56.433  1.00  0.00     0.019 A 
BRANCH  22  25
HETATM   25  N   UNL     1       8.983  19.378  54.743  1.00  0.00    -0.303 NA
HETATM   26  H   UNL     1       8.280  18.653  54.849  1.00  0.00     0.124 HD
HETATM   27  H   UNL     1       9.838  19.154  55.243  1.00  0.00     0.124 HD
ENDBRANCH  22  25
ENDBRANCH  16  19
ENDBRANCH   5  15
TORSDOF 3
ENDMDL
MODEL 7
REMARK VINA RESULT:      -7.9      5.332     10.169
REMARK  3 active torsions:
REMARK  status: ('A' for Active; 'I' for Inactive)
REMARK    1  A    between atoms: C_5  and  N_6 
REMARK       I    between atoms: N_6  and  C_7 
REMARK    2  A    between atoms: C_7  and  C_8 
REMARK    3  A    between atoms: C_11  and  N_12 
ROOT
HETATM    1  C   UNL     1       6.504  34.541  64.839  1.00  0.00     0.001 A 
HETATM    2  C   UNL     1       5.638  35.037  63.863  1.00  0.00     0.008 A 
HETATM    3  C   UNL     1       5.513  34.339  62.669  1.00  0.00    -0.043 A 
HETATM    4  C   UNL     1       6.247  33.175  62.438  1.00  0.00    -0.028 A 
HETATM    5  C   UNL     1       5.944  32.580  61.096  1.00  0.00     0.125 C 
HETATM    6  C   UNL     1       5.039  33.655  60.434  1.00  0.00     0.049 C 
HETATM    7  C   UNL     1       4.642  34.696  61.507  1.00  0.00     0.053 C 
HETATM    8  C   UNL     1       3.725  33.068  59.944  1.00  0.00     0.239 C 
HETATM    9  N   UNL     1       2.811  33.198  61.122  1.00  0.00    -0.074 N 
HETATM   10  H   UNL     1       1.822  33.146  60.841  1.00  0.00     0.277 HD
HETATM   11  H   UNL     1       2.971  32.426  61.785  1.00  0.00     0.277 HD
HETATM   12  C   UNL     1       3.150  34.506  61.765  1.00  0.00     0.242 C 
HETATM   13  C   UNL     1       7.095  32.667  63.413  1.00  0.00     0.010 A 
HETATM   14  C   UNL     1       7.225  33.361  64.617  1.00  0.00     0.001 A 
ENDROOT
BRANCH   5  15
HETATM   15  N   UNL     1       7.134  32.311  60.322  1.00  0.00    -0.348 N 
HETATM   16  C   UNL     1       7.087  31.395  59.290  1.00  0.00     0.252 C 
HETATM   17  O   UNL     1       6.022  30.905  58.921  1.00  0.00    -0.268 OA
HETATM   18  H   UNL     1       8.031  32.541  60.732  1.00  0.00     0.163 HD
BRANCH  16  19
HETATM   19  C   UNL     1       8.377  30.996  58.659  1.00  0.00     0.032 A 
HETATM   20  C   UNL     1       9.559  31.725  58.826  1.00  0.00     0.019 A 
HETATM   21  C   UNL     1      10.745  31.281  58.227  1.00  0.00     0.024 A 
HETATM   22  C   UNL     1      10.760  30.144  57.416  1.00  0.00     0.005 A 
HETATM   23  C   UNL     1       9.585  29.401  57.286  1.00  0.00     0.024 A 
HETATM   24  C   UNL     1       8.396  29.833  57.880  1.00  0.00     0.019 A 
BRANCH  22  25
HETATM   25  N   UNL     1      11.971  29.634  56.942  1.00  0.00    -0.303 NA
HETATM   26  H   UNL     1      12.718  30.318  56.870  1.00  0.00     0.124 HD
HETATM   27  H   UNL     1      11.889  29.071  56.101  1.00  0.00     0.124 HD
ENDBRANCH  22  25
ENDBRANCH  16  19
ENDBRANCH   5  15
TORSDOF 3
ENDMDL
MODEL 8
REMARK VINA RESULT:      -7.7      2.227      6.823
REMARK  3 active torsions:
REMARK  status: ('A' for Active; 'I' for Inactive)
REMARK    1  A    between atoms: C_5  and  N_6 
REMARK       I    between atoms: N_6  and  C_7 
REMARK    2  A    between atoms: C_7  and  C_8 
REMARK    3  A    between atoms: C_11  and  N_12 
ROOT
HETATM    1  C   UNL     1       3.815  29.398  56.204  1.00  0.00     0.001 A 
HETATM    2  C   UNL     1       4.789  29.255  57.193  1.00  0.00     0.008 A 
HETATM    3  C   UNL     1       6.020  28.717  56.841  1.00  0.00    -0.043 A 
HETATM    4  C   UNL     1       6.277  28.309  55.531  1.00  0.00    -0.028 A 
HETATM    5  C   UNL     1       7.668  27.775  55.374  1.00  0.00     0.125 C 
HETATM    6  C   UNL     1       8.193  27.734  56.835  1.00  0.00     0.049 C 
HETATM    7  C   UNL     1       7.191  28.486  57.742  1.00  0.00     0.053 C 
HETATM    8  C   UNL     1       9.508  28.484  56.987  1.00  0.00     0.239 C 
HETATM    9  N   UNL     1       9.088  29.885  57.305  1.00  0.00    -0.074 N 
HETATM   10  H   UNL     1       9.851  30.417  57.747  1.00  0.00     0.277 HD
HETATM   11  H   UNL     1       8.840  30.388  56.441  1.00  0.00     0.277 HD
HETATM   12  C   UNL     1       7.890  29.766  58.193  1.00  0.00     0.242 C 
HETATM   13  C   UNL     1       5.317  28.466  54.539  1.00  0.00     0.010 A 
HETATM   14  C   UNL     1       4.079  29.009  54.885  1.00  0.00     0.001 A 
ENDROOT
BRANCH   5  15
HETATM   15  N   UNL     1       7.701  26.477  54.741  1.00  0.00    -0.348 N 
HETATM   16  C   UNL     1       7.205  25.376  55.412  1.00  0.00     0.252 C 
HETATM   17  O   UNL     1       6.607  25.495  56.478  1.00  0.00    -0.268 OA
HETATM   18  H   UNL     1       8.355  26.334  53.981  1.00  0.00     0.163 HD
BRANCH  16  19
HETATM   19  C   UNL     1       7.449  24.033  54.812  1.00  0.00     0.032 A 
HETATM   20  C   UNL     1       7.576  22.872  55.582  1.00  0.00     0.019 A 
HETATM   21  C   UNL     1       7.778  21.636  54.955  1.00  0.00     0.024 A 
HETATM   22  C   UNL     1       7.911  21.546  53.568  1.00  0.00     0.005 A 
HETATM   23  C   UNL     1       7.746  22.703  52.804  1.00  0.00     0.024 A 
HETATM   24  C   UNL     1       7.542  23.942  53.419  1.00  0.00     0.019 A 
BRANCH  22  25
HETATM   25  N   UNL     1       7.972  20.296  52.946  1.00  0.00    -0.303 NA
HETATM   26  H   UNL     1       7.985  20.330  51.931  1.00  0.00     0.124 HD
HETATM   27  H   UNL     1       7.300  19.620  53.295  1.00  0.00     0.124 HD
ENDBRANCH  22  25
ENDBRANCH  16  19
ENDBRANCH   5  15
TORSDOF 3
ENDMDL
MODEL 9
REMARK VINA RESULT:      -7.7      3.617      6.634
REMARK  3 active torsions:
REMARK  status: ('A' for Active; 'I' for Inactive)
REMARK    1  A    between atoms: C_5  and  N_6 
REMARK       I    between atoms: N_6  and  C_7 
REMARK    2  A    between atoms: C_7  and  C_8 
REMARK    3  A    between atoms: C_11  and  N_12 
ROOT
HETATM    1  C   UNL     1       8.248  28.510  57.277  1.00  0.00     0.001 A 
HETATM    2  C   UNL     1       7.814  27.208  57.531  1.00  0.00     0.008 A 
HETATM    3  C   UNL     1       7.423  26.417  56.459  1.00  0.00    -0.043 A 
HETATM    4  C   UNL     1       7.445  26.913  55.155  1.00  0.00    -0.028 A 
HETATM    5  C   UNL     1       6.999  25.886  54.158  1.00  0.00     0.125 C 
HETATM    6  C   UNL     1       6.512  24.717  55.056  1.00  0.00     0.049 C 
HETATM    7  C   UNL     1       6.936  25.004  56.516  1.00  0.00     0.053 C 
HETATM    8  C   UNL     1       7.189  23.404  54.696  1.00  0.00     0.239 C 
HETATM    9  N   UNL     1       8.418  23.387  55.550  1.00  0.00    -0.074 N 
HETATM   10  H   UNL     1       8.794  22.434  55.654  1.00  0.00     0.277 HD
HETATM   11  H   UNL     1       9.162  23.952  55.116  1.00  0.00     0.277 HD
HETATM   12  C   UNL     1       8.018  23.985  56.862  1.00  0.00     0.242 C 
HETATM   13  C   UNL     1       7.894  28.202  54.895  1.00  0.00     0.010 A 
HETATM   14  C   UNL     1       8.291  29.002  55.966  1.00  0.00     0.001 A 
ENDROOT
BRANCH   5  15
HETATM   15  N   UNL     1       5.962  26.373  53.279  1.00  0.00    -0.348 N 
HETATM   16  C   UNL     1       6.041  26.125  51.923  1.00  0.00     0.252 C 
HETATM   17  O   UNL     1       6.899  25.378  51.461  1.00  0.00    -0.268 OA
HETATM   18  H   UNL     1       5.382  27.138  53.604  1.00  0.00     0.163 HD
BRANCH  16  19
HETATM   19  C   UNL     1       5.067  26.821  51.034  1.00  0.00     0.032 A 
HETATM   20  C   UNL     1       4.467  28.037  51.374  1.00  0.00     0.019 A 
HETATM   21  C   UNL     1       3.579  28.653  50.482  1.00  0.00     0.024 A 
HETATM   22  C   UNL     1       3.238  28.045  49.273  1.00  0.00     0.005 A 
HETATM   23  C   UNL     1       3.869  26.850  48.924  1.00  0.00     0.024 A 
HETATM   24  C   UNL     1       4.758  26.227  49.805  1.00  0.00     0.019 A 
BRANCH  22  25
HETATM   25  N   UNL     1       2.465  28.731  48.333  1.00  0.00    -0.303 NA
HETATM   26  H   UNL     1       2.889  29.583  47.978  1.00  0.00     0.124 HD
HETATM   27  H   UNL     1       1.498  28.874  48.608  1.00  0.00     0.124 HD
ENDBRANCH  22  25
ENDBRANCH  16  19
ENDBRANCH   5  15
TORSDOF 3
ENDMDL
MODEL 10
REMARK VINA RESULT:      -7.7      1.547      2.649
REMARK  3 active torsions:
REMARK  status: ('A' for Active; 'I' for Inactive)
REMARK    1  A    between atoms: C_5  and  N_6 
REMARK       I    between atoms: N_6  and  C_7 
REMARK    2  A    between atoms: C_7  and  C_8 
REMARK    3  A    between atoms: C_11  and  N_12 
ROOT
HETATM    1  C   UNL     1       4.368  27.655  51.682  1.00  0.00     0.001 A 
HETATM    2  C   UNL     1       5.332  26.666  51.478  1.00  0.00     0.008 A 
HETATM    3  C   UNL     1       6.170  26.329  52.532  1.00  0.00    -0.043 A 
HETATM    4  C   UNL     1       6.068  26.972  53.766  1.00  0.00    -0.028 A 
HETATM    5  C   UNL     1       7.056  26.441  54.759  1.00  0.00     0.125 C 
HETATM    6  C   UNL     1       7.930  25.484  53.903  1.00  0.00     0.049 C 
HETATM    7  C   UNL     1       7.256  25.300  52.523  1.00  0.00     0.053 C 
HETATM    8  C   UNL     1       7.999  24.088  54.502  1.00  0.00     0.239 C 
HETATM    9  N   UNL     1       6.833  23.376  53.889  1.00  0.00    -0.074 N 
HETATM   10  H   UNL     1       6.943  22.354  53.945  1.00  0.00     0.277 HD
HETATM   11  H   UNL     1       5.967  23.609  54.395  1.00  0.00     0.277 HD
HETATM   12  C   UNL     1       6.750  23.861  52.476  1.00  0.00     0.242 C 
HETATM   13  C   UNL     1       5.098  27.944  53.980  1.00  0.00     0.010 A 
HETATM   14  C   UNL     1       4.249  28.287  52.926  1.00  0.00     0.001 A 
ENDROOT
BRANCH   5  15
HETATM   15  N   UNL     1       7.835  27.483  55.386  1.00  0.00    -0.348 N 
HETATM   16  C   UNL     1       7.912  27.546  56.764  1.00  0.00     0.252 C 
HETATM   17  O   UNL     1       7.450  26.653  57.469  1.00  0.00    -0.268 OA
HETATM   18  H   UNL     1       8.041  28.315  54.846  1.00  0.00     0.163 HD
BRANCH  16  19
HETATM   19  C   UNL     1       8.548  28.751  57.367  1.00  0.00     0.032 A 
HETATM   20  C   UNL     1       9.736  29.305  56.879  1.00  0.00     0.019 A 
HETATM   21  C   UNL     1      10.268  30.456  57.475  1.00  0.00     0.024 A 
HETATM   22  C   UNL     1       9.660  31.035  58.591  1.00  0.00     0.005 A 
HETATM   23  C   UNL     1       8.455  30.499  59.048  1.00  0.00     0.024 A 
HETATM   24  C   UNL     1       7.914  29.352  58.460  1.00  0.00     0.019 A 
BRANCH  22  25
HETATM   25  N   UNL     1      10.119  32.258  59.088  1.00  0.00    -0.303 NA
HETATM   26  H   UNL     1      10.638  32.817  58.418  1.00  0.00     0.124 HD
HETATM   27  H   UNL     1      10.595  32.195  59.982  1.00  0.00     0.124 HD
ENDBRANCH  22  25
ENDBRANCH  16  19
ENDBRANCH   5  15
TORSDOF 3
ENDMDL
