MODEL 1
REMARK VINA RESULT:      -9.3      0.000      0.000
REMARK  6 active torsions:
REMARK  status: ('A' for Active; 'I' for Inactive)
REMARK    1  A    between atoms: C_3  and  C_4 
REMARK    2  A    between atoms: C_14  and  N_15 
REMARK       I    between atoms: N_15  and  C_16 
REMARK    3  A    between atoms: C_16  and  C_17 
REMARK    4  A    between atoms: N_21  and  C_22 
REMARK    5  A    between atoms: C_22  and  C_23 
REMARK    6  A    between atoms: C_26  and  O_27 
ROOT
HETATM    1  C   UNL     1       3.476  28.458  52.981  1.00  0.00     0.051 C 
HETATM    2  C   UNL     1       4.801  27.969  53.460  1.00  0.00    -0.022 A 
HETATM    3  C   UNL     1       5.524  28.404  54.607  1.00  0.00     0.062 A 
HETATM    4  C   UNL     1       6.754  27.761  54.632  1.00  0.00     0.125 A 
HETATM    5  N   UNL     1       6.774  26.872  53.573  1.00  0.00    -0.332 N 
HETATM    6  C   UNL     1       5.589  27.004  52.845  1.00  0.00     0.017 A 
HETATM    7  C   UNL     1       5.323  26.231  51.590  1.00  0.00     0.069 C 
ENDROOT
BRANCH   3   8
HETATM    8  C   UNL     1       5.109  29.382  55.666  1.00  0.00     0.143 A 
HETATM    9  N   UNL     1       5.741  30.526  55.876  1.00  0.00    -0.228 NA
HETATM   10  C   UNL     1       5.158  31.064  57.003  1.00  0.00     0.086 A 
HETATM   11  C   UNL     1       4.119  30.259  57.454  1.00  0.00     0.062 A 
HETATM   12  C   UNL     1       5.472  32.232  57.711  1.00  0.00     0.034 A 
HETATM   13  N   UNL     1       4.095  29.212  56.572  1.00  0.00    -0.338 N 
HETATM   14  C   UNL     1       3.354  30.549  58.586  1.00  0.00     0.032 A 
HETATM   15  H   UNL     1       3.479  28.416  56.635  1.00  0.00     0.167 HD
HETATM   16  C   UNL     1       3.686  31.714  59.284  1.00  0.00     0.002 A 
HETATM   17  C   UNL     1       4.727  32.543  58.857  1.00  0.00     0.002 A 
ENDBRANCH   3   8
BRANCH   4  18
HETATM   18  N   UNL     1       7.712  28.144  55.567  1.00  0.00    -0.312 N 
HETATM   19  C   UNL     1       8.858  28.962  55.382  1.00  0.00     0.226 C 
HETATM   20  O   UNL     1       9.397  29.048  54.291  1.00  0.00    -0.273 OA
HETATM   21  H   UNL     1       7.602  27.678  56.472  1.00  0.00     0.170 HD
BRANCH  19  22
HETATM   22  C   UNL     1       9.358  29.692  56.614  1.00  0.00     0.070 C 
HETATM   23  C   UNL     1       8.547  29.233  57.821  1.00  0.00     0.019 C 
HETATM   24  C   UNL     1      10.854  29.519  56.842  1.00  0.00     0.019 C 
ENDBRANCH  19  22
ENDBRANCH   4  18
BRANCH   5  25
HETATM   25  C   UNL     1       7.848  25.967  53.168  1.00  0.00     0.169 C 
BRANCH  25  26
HETATM   26  C   UNL     1       7.742  24.550  53.680  1.00  0.00    -0.040 A 
HETATM   27  C   UNL     1       7.606  24.199  55.029  1.00  0.00     0.011 A 
HETATM   28  C   UNL     1       7.583  22.854  55.415  1.00  0.00     0.037 A 
HETATM   29  C   UNL     1       7.697  21.833  54.471  1.00  0.00     0.068 A 
HETATM   30  C   UNL     1       7.821  22.168  53.126  1.00  0.00     0.037 A 
HETATM   31  C   UNL     1       7.841  23.511  52.737  1.00  0.00     0.011 A 
BRANCH  29  32
HETATM   32  O   UNL     1       7.679  20.568  54.988  1.00  0.00    -0.356 OA
HETATM   33  C   UNL     1       8.024  20.427  56.362  1.00  0.00     0.210 C 
ENDBRANCH  29  32
ENDBRANCH  25  26
ENDBRANCH   5  25
TORSDOF 6
ENDMDL
MODEL 2
REMARK VINA RESULT:      -9.1      2.784      7.257
REMARK  6 active torsions:
REMARK  status: ('A' for Active; 'I' for Inactive)
REMARK    1  A    between atoms: C_3  and  C_4 
REMARK    2  A    between atoms: C_14  and  N_15 
REMARK       I    between atoms: N_15  and  C_16 
REMARK    3  A    between atoms: C_16  and  C_17 
REMARK    4  A    between atoms: N_21  and  C_22 
REMARK    5  A    between atoms: C_22  and  C_23 
REMARK    6  A    between atoms: C_26  and  O_27 
ROOT
HETATM    1  C   UNL     1       7.464  23.695  52.416  1.00  0.00     0.051 C 
HETATM    2  C   UNL     1       6.630  24.586  53.273  1.00  0.00    -0.022 A 
HETATM    3  C   UNL     1       5.733  25.607  52.848  1.00  0.00     0.062 A 
HETATM    4  C   UNL     1       5.235  26.260  53.968  1.00  0.00     0.125 A 
HETATM    5  N   UNL     1       5.738  25.609  55.081  1.00  0.00    -0.332 N 
HETATM    6  C   UNL     1       6.602  24.595  54.662  1.00  0.00     0.017 A 
HETATM    7  C   UNL     1       7.370  23.742  55.624  1.00  0.00     0.069 C 
ENDROOT
BRANCH   3   8
HETATM    8  C   UNL     1       5.327  25.984  51.455  1.00  0.00     0.143 A 
HETATM    9  N   UNL     1       5.772  27.073  50.846  1.00  0.00    -0.228 NA
HETATM   10  C   UNL     1       5.072  27.139  49.661  1.00  0.00     0.086 A 
HETATM   11  C   UNL     1       4.226  26.046  49.523  1.00  0.00     0.062 A 
HETATM   12  C   UNL     1       5.093  28.116  48.654  1.00  0.00     0.034 A 
HETATM   13  N   UNL     1       4.428  25.317  50.665  1.00  0.00    -0.338 N 
HETATM   14  C   UNL     1       3.385  25.854  48.425  1.00  0.00     0.032 A 
HETATM   15  H   UNL     1       3.934  24.472  50.907  1.00  0.00     0.167 HD
HETATM   16  C   UNL     1       3.415  26.841  47.435  1.00  0.00     0.002 A 
HETATM   17  C   UNL     1       4.252  27.954  47.545  1.00  0.00     0.002 A 
ENDBRANCH   3   8
BRANCH   4  18
HETATM   18  N   UNL     1       4.465  27.410  53.810  1.00  0.00    -0.312 N 
HETATM   19  C   UNL     1       4.893  28.759  53.703  1.00  0.00     0.226 C 
HETATM   20  O   UNL     1       5.946  29.123  54.200  1.00  0.00    -0.273 OA
HETATM   21  H   UNL     1       3.459  27.234  53.883  1.00  0.00     0.170 HD
BRANCH  19  22
HETATM   22  C   UNL     1       3.960  29.694  52.956  1.00  0.00     0.070 C 
HETATM   23  C   UNL     1       2.910  28.862  52.229  1.00  0.00     0.019 C 
HETATM   24  C   UNL     1       3.323  30.743  53.857  1.00  0.00     0.019 C 
ENDBRANCH  19  22
ENDBRANCH   4  18
BRANCH   5  25
HETATM   25  C   UNL     1       5.514  25.919  56.491  1.00  0.00     0.169 C 
BRANCH  25  26
HETATM   26  C   UNL     1       6.178  27.175  57.003  1.00  0.00    -0.040 A 
HETATM   27  C   UNL     1       5.501  28.360  57.319  1.00  0.00     0.011 A 
HETATM   28  C   UNL     1       6.210  29.497  57.724  1.00  0.00     0.037 A 
HETATM   29  C   UNL     1       7.602  29.479  57.820  1.00  0.00     0.068 A 
HETATM   30  C   UNL     1       8.286  28.305  57.520  1.00  0.00     0.037 A 
HETATM   31  C   UNL     1       7.579  27.166  57.119  1.00  0.00     0.011 A 
BRANCH  29  32
HETATM   32  O   UNL     1       8.167  30.662  58.208  1.00  0.00    -0.356 OA
HETATM   33  C   UNL     1       9.587  30.707  58.277  1.00  0.00     0.210 C 
ENDBRANCH  29  32
ENDBRANCH  25  26
ENDBRANCH   5  25
TORSDOF 6
ENDMDL
MODEL 3
REMARK VINA RESULT:      -8.6      2.602      7.129
REMARK  6 active torsions:
REMARK  status: ('A' for Active; 'I' for Inactive)
REMARK    1  A    between atoms: C_3  and  C_4 
REMARK    2  A    between atoms: C_14  and  N_15 
REMARK       I    between atoms: N_15  and  C_16 
REMARK    3  A    between atoms: C_16  and  C_17 
REMARK    4  A    between atoms: N_21  and  C_22 
REMARK    5  A    between atoms: C_22  and  C_23 
REMARK    6  A    between atoms: C_26  and  O_27 
ROOT
HETATM    1  C   UNL     1       7.669  23.999  52.490  1.00  0.00     0.051 C 
HETATM    2  C   UNL     1       7.134  25.058  53.393  1.00  0.00    -0.022 A 
HETATM    3  C   UNL     1       6.350  26.191  53.034  1.00  0.00     0.062 A 
HETATM    4  C   UNL     1       6.148  26.972  54.164  1.00  0.00     0.125 A 
HETATM    5  N   UNL     1       6.717  26.304  55.233  1.00  0.00    -0.332 N 
HETATM    6  C   UNL     1       7.332  25.140  54.766  1.00  0.00     0.017 A 
HETATM    7  C   UNL     1       8.103  24.221  55.663  1.00  0.00     0.069 C 
ENDROOT
BRANCH   3   8
HETATM    8  C   UNL     1       5.788  26.560  51.693  1.00  0.00     0.143 A 
HETATM    9  N   UNL     1       5.936  27.763  51.158  1.00  0.00    -0.228 NA
HETATM   10  C   UNL     1       5.172  27.747  50.012  1.00  0.00     0.086 A 
HETATM   11  C   UNL     1       4.593  26.499  49.819  1.00  0.00     0.062 A 
HETATM   12  C   UNL     1       4.910  28.770  49.089  1.00  0.00     0.034 A 
HETATM   13  N   UNL     1       5.022  25.759  50.888  1.00  0.00    -0.338 N 
HETATM   14  C   UNL     1       3.756  26.194  48.744  1.00  0.00     0.032 A 
HETATM   15  H   UNL     1       4.751  24.808  51.080  1.00  0.00     0.167 HD
HETATM   16  C   UNL     1       3.501  27.228  47.837  1.00  0.00     0.002 A 
HETATM   17  C   UNL     1       4.065  28.495  48.004  1.00  0.00     0.002 A 
ENDBRANCH   3   8
BRANCH   4  18
HETATM   18  N   UNL     1       5.552  28.225  54.037  1.00  0.00    -0.312 N 
HETATM   19  C   UNL     1       4.647  28.873  54.918  1.00  0.00     0.226 C 
HETATM   20  O   UNL     1       3.923  28.228  55.657  1.00  0.00    -0.273 OA
HETATM   21  H   UNL     1       5.734  28.668  53.131  1.00  0.00     0.170 HD
BRANCH  19  22
HETATM   22  C   UNL     1       4.638  30.389  54.862  1.00  0.00     0.070 C 
HETATM   23  C   UNL     1       3.196  30.868  54.732  1.00  0.00     0.019 C 
HETATM   24  C   UNL     1       5.340  31.032  56.050  1.00  0.00     0.019 C 
ENDBRANCH  19  22
ENDBRANCH   4  18
BRANCH   5  25
HETATM   25  C   UNL     1       6.775  26.716  56.634  1.00  0.00     0.169 C 
BRANCH  25  26
HETATM   26  C   UNL     1       7.643  27.916  56.931  1.00  0.00    -0.040 A 
HETATM   27  C   UNL     1       8.702  28.351  56.125  1.00  0.00     0.011 A 
HETATM   28  C   UNL     1       9.494  29.436  56.517  1.00  0.00     0.037 A 
HETATM   29  C   UNL     1       9.252  30.107  57.716  1.00  0.00     0.068 A 
HETATM   30  C   UNL     1       8.196  29.692  58.521  1.00  0.00     0.037 A 
HETATM   31  C   UNL     1       7.400  28.610  58.130  1.00  0.00     0.011 A 
BRANCH  29  32
HETATM   32  O   UNL     1      10.114  31.134  57.984  1.00  0.00    -0.356 OA
HETATM   33  C   UNL     1       9.857  31.902  59.155  1.00  0.00     0.210 C 
ENDBRANCH  29  32
ENDBRANCH  25  26
ENDBRANCH   5  25
TORSDOF 6
ENDMDL
MODEL 4
REMARK VINA RESULT:      -8.5      3.497      8.868
REMARK  6 active torsions:
REMARK  status: ('A' for Active; 'I' for Inactive)
REMARK    1  A    between atoms: C_3  and  C_4 
REMARK    2  A    between atoms: C_14  and  N_15 
REMARK       I    between atoms: N_15  and  C_16 
REMARK    3  A    between atoms: C_16  and  C_17 
REMARK    4  A    between atoms: N_21  and  C_22 
REMARK    5  A    between atoms: C_22  and  C_23 
REMARK    6  A    between atoms: C_26  and  O_27 
ROOT
HETATM    1  C   UNL     1      10.912  29.338  57.257  1.00  0.00     0.051 C 
HETATM    2  C   UNL     1       9.521  29.707  57.651  1.00  0.00    -0.022 A 
HETATM    3  C   UNL     1       8.324  28.981  57.390  1.00  0.00     0.062 A 
HETATM    4  C   UNL     1       7.243  29.724  57.844  1.00  0.00     0.125 A 
HETATM    5  N   UNL     1       7.749  30.855  58.459  1.00  0.00    -0.332 N 
HETATM    6  C   UNL     1       9.140  30.857  58.331  1.00  0.00     0.017 A 
HETATM    7  C   UNL     1       9.994  31.982  58.830  1.00  0.00     0.069 C 
ENDROOT
BRANCH   3   8
HETATM    8  C   UNL     1       8.159  27.637  56.746  1.00  0.00     0.143 A 
HETATM    9  N   UNL     1       7.747  27.484  55.497  1.00  0.00    -0.228 NA
HETATM   10  C   UNL     1       7.593  26.125  55.329  1.00  0.00     0.086 A 
HETATM   11  C   UNL     1       7.967  25.438  56.477  1.00  0.00     0.062 A 
HETATM   12  C   UNL     1       7.119  25.401  54.225  1.00  0.00     0.034 A 
HETATM   13  N   UNL     1       8.347  26.421  57.351  1.00  0.00    -0.338 N 
HETATM   14  C   UNL     1       7.905  24.048  56.599  1.00  0.00     0.032 A 
HETATM   15  H   UNL     1       8.639  26.268  58.303  1.00  0.00     0.167 HD
HETATM   16  C   UNL     1       7.425  23.343  55.491  1.00  0.00     0.002 A 
HETATM   17  C   UNL     1       7.037  24.005  54.323  1.00  0.00     0.002 A 
ENDBRANCH   3   8
BRANCH   4  18
HETATM   18  N   UNL     1       5.947  29.303  57.552  1.00  0.00    -0.312 N 
HETATM   19  C   UNL     1       5.102  29.703  56.484  1.00  0.00     0.226 C 
HETATM   20  O   UNL     1       5.227  30.798  55.962  1.00  0.00    -0.273 OA
HETATM   21  H   UNL     1       5.545  28.702  58.278  1.00  0.00     0.170 HD
BRANCH  19  22
HETATM   22  C   UNL     1       4.049  28.696  56.060  1.00  0.00     0.070 C 
HETATM   23  C   UNL     1       3.898  28.751  54.543  1.00  0.00     0.019 C 
HETATM   24  C   UNL     1       4.346  27.284  56.545  1.00  0.00     0.019 C 
ENDBRANCH  19  22
ENDBRANCH   4  18
BRANCH   5  25
HETATM   25  C   UNL     1       7.016  31.951  59.089  1.00  0.00     0.169 C 
BRANCH  25  26
HETATM   26  C   UNL     1       7.256  32.138  60.568  1.00  0.00    -0.040 A 
HETATM   27  C   UNL     1       7.911  31.213  61.391  1.00  0.00     0.011 A 
HETATM   28  C   UNL     1       8.028  31.443  62.767  1.00  0.00     0.037 A 
HETATM   29  C   UNL     1       7.495  32.593  63.351  1.00  0.00     0.068 A 
HETATM   30  C   UNL     1       6.852  33.525  62.543  1.00  0.00     0.037 A 
HETATM   31  C   UNL     1       6.738  33.300  61.167  1.00  0.00     0.011 A 
BRANCH  29  32
HETATM   32  O   UNL     1       7.664  32.681  64.705  1.00  0.00    -0.356 OA
HETATM   33  C   UNL     1       7.006  33.754  65.368  1.00  0.00     0.210 C 
ENDBRANCH  29  32
ENDBRANCH  25  26
ENDBRANCH   5  25
TORSDOF 6
ENDMDL
MODEL 5
REMARK VINA RESULT:      -8.5      3.011      5.522
REMARK  6 active torsions:
REMARK  status: ('A' for Active; 'I' for Inactive)
REMARK    1  A    between atoms: C_3  and  C_4 
REMARK    2  A    between atoms: C_14  and  N_15 
REMARK       I    between atoms: N_15  and  C_16 
REMARK    3  A    between atoms: C_16  and  C_17 
REMARK    4  A    between atoms: N_21  and  C_22 
REMARK    5  A    between atoms: C_22  and  C_23 
REMARK    6  A    between atoms: C_26  and  O_27 
ROOT
HETATM    1  C   UNL     1      10.122  31.576  60.254  1.00  0.00     0.051 C 
HETATM    2  C   UNL     1       9.168  31.072  59.224  1.00  0.00    -0.022 A 
HETATM    3  C   UNL     1       7.746  31.125  59.257  1.00  0.00     0.062 A 
HETATM    4  C   UNL     1       7.247  30.456  58.147  1.00  0.00     0.125 A 
HETATM    5  N   UNL     1       8.330  30.065  57.381  1.00  0.00    -0.332 N 
HETATM    6  C   UNL     1       9.507  30.426  58.041  1.00  0.00     0.017 A 
HETATM    7  C   UNL     1      10.865  30.083  57.510  1.00  0.00     0.069 C 
ENDROOT
BRANCH   3   8
HETATM    8  C   UNL     1       6.852  31.772  60.272  1.00  0.00     0.143 A 
HETATM    9  N   UNL     1       6.074  32.807  59.989  1.00  0.00    -0.228 NA
HETATM   10  C   UNL     1       5.528  33.192  61.195  1.00  0.00     0.086 A 
HETATM   11  C   UNL     1       5.939  32.346  62.217  1.00  0.00     0.062 A 
HETATM   12  C   UNL     1       4.682  34.268  61.499  1.00  0.00     0.034 A 
HETATM   13  N   UNL     1       6.758  31.440  61.598  1.00  0.00    -0.338 N 
HETATM   14  C   UNL     1       5.552  32.502  63.550  1.00  0.00     0.032 A 
HETATM   15  H   UNL     1       7.262  30.703  62.064  1.00  0.00     0.167 HD
HETATM   16  C   UNL     1       4.713  33.584  63.836  1.00  0.00     0.002 A 
HETATM   17  C   UNL     1       4.285  34.455  62.830  1.00  0.00     0.002 A 
ENDBRANCH   3   8
BRANCH   4  18
HETATM   18  N   UNL     1       5.877  30.224  58.043  1.00  0.00    -0.312 N 
HETATM   19  C   UNL     1       4.932  30.847  57.186  1.00  0.00     0.226 C 
HETATM   20  O   UNL     1       5.115  31.978  56.769  1.00  0.00    -0.273 OA
HETATM   21  H   UNL     1       5.521  29.585  58.760  1.00  0.00     0.170 HD
BRANCH  19  22
HETATM   22  C   UNL     1       3.701  30.027  56.849  1.00  0.00     0.070 C 
HETATM   23  C   UNL     1       2.736  30.895  56.048  1.00  0.00     0.019 C 
HETATM   24  C   UNL     1       4.031  28.732  56.120  1.00  0.00     0.019 C 
ENDBRANCH  19  22
ENDBRANCH   4  18
BRANCH   5  25
HETATM   25  C   UNL     1       8.330  29.325  56.121  1.00  0.00     0.169 C 
BRANCH  25  26
HETATM   26  C   UNL     1       8.004  27.854  56.222  1.00  0.00    -0.040 A 
HETATM   27  C   UNL     1       8.325  27.041  57.316  1.00  0.00     0.011 A 
HETATM   28  C   UNL     1       8.041  25.670  57.291  1.00  0.00     0.037 A 
HETATM   29  C   UNL     1       7.437  25.082  56.179  1.00  0.00     0.068 A 
HETATM   30  C   UNL     1       7.103  25.880  55.090  1.00  0.00     0.037 A 
HETATM   31  C   UNL     1       7.381  27.251  55.114  1.00  0.00     0.011 A 
BRANCH  29  32
HETATM   32  O   UNL     1       7.236  23.733  56.281  1.00  0.00    -0.356 OA
HETATM   33  C   UNL     1       8.361  22.939  56.638  1.00  0.00     0.210 C 
ENDBRANCH  29  32
ENDBRANCH  25  26
ENDBRANCH   5  25
TORSDOF 6
ENDMDL
MODEL 6
REMARK VINA RESULT:      -8.4      2.663      5.534
REMARK  6 active torsions:
REMARK  status: ('A' for Active; 'I' for Inactive)
REMARK    1  A    between atoms: C_3  and  C_4 
REMARK    2  A    between atoms: C_14  and  N_15 
REMARK       I    between atoms: N_15  and  C_16 
REMARK    3  A    between atoms: C_16  and  C_17 
REMARK    4  A    between atoms: N_21  and  C_22 
REMARK    5  A    between atoms: C_22  and  C_23 
REMARK    6  A    between atoms: C_26  and  O_27 
ROOT
HETATM    1  C   UNL     1       9.079  24.791  57.388  1.00  0.00     0.051 C 
HETATM    2  C   UNL     1       8.018  25.415  56.546  1.00  0.00    -0.022 A 
HETATM    3  C   UNL     1       7.641  26.787  56.499  1.00  0.00     0.062 A 
HETATM    4  C   UNL     1       6.546  26.922  55.656  1.00  0.00     0.125 A 
HETATM    5  N   UNL     1       6.290  25.676  55.111  1.00  0.00    -0.332 N 
HETATM    6  C   UNL     1       7.177  24.749  55.662  1.00  0.00     0.017 A 
HETATM    7  C   UNL     1       7.122  23.288  55.335  1.00  0.00     0.069 C 
ENDROOT
BRANCH   3   8
HETATM    8  C   UNL     1       8.261  27.958  57.200  1.00  0.00     0.143 A 
HETATM    9  N   UNL     1       7.754  28.487  58.303  1.00  0.00    -0.228 NA
HETATM   10  C   UNL     1       8.515  29.609  58.552  1.00  0.00     0.086 A 
HETATM   11  C   UNL     1       9.533  29.734  57.616  1.00  0.00     0.062 A 
HETATM   12  C   UNL     1       8.386  30.582  59.554  1.00  0.00     0.034 A 
HETATM   13  N   UNL     1       9.364  28.659  56.785  1.00  0.00    -0.338 N 
HETATM   14  C   UNL     1      10.454  30.784  57.613  1.00  0.00     0.032 A 
HETATM   15  H   UNL     1       9.916  28.468  55.965  1.00  0.00     0.167 HD
HETATM   16  C   UNL     1      10.307  31.748  58.615  1.00  0.00     0.002 A 
HETATM   17  C   UNL     1       9.291  31.653  59.570  1.00  0.00     0.002 A 
ENDBRANCH   3   8
BRANCH   4  18
HETATM   18  N   UNL     1       5.885  28.145  55.576  1.00  0.00    -0.312 N 
HETATM   19  C   UNL     1       4.685  28.552  56.216  1.00  0.00     0.226 C 
HETATM   20  O   UNL     1       3.842  27.734  56.544  1.00  0.00    -0.273 OA
HETATM   21  H   UNL     1       6.290  28.777  54.879  1.00  0.00     0.170 HD
BRANCH  19  22
HETATM   22  C   UNL     1       4.527  30.043  56.444  1.00  0.00     0.070 C 
HETATM   23  C   UNL     1       5.886  30.714  56.272  1.00  0.00     0.019 C 
HETATM   24  C   UNL     1       3.471  30.673  55.546  1.00  0.00     0.019 C 
ENDBRANCH  19  22
ENDBRANCH   4  18
BRANCH   5  25
HETATM   25  C   UNL     1       5.238  25.295  54.171  1.00  0.00     0.169 C 
BRANCH  25  26
HETATM   26  C   UNL     1       5.158  26.114  52.905  1.00  0.00    -0.040 A 
HETATM   27  C   UNL     1       4.456  27.319  52.780  1.00  0.00     0.011 A 
HETATM   28  C   UNL     1       4.383  27.975  51.545  1.00  0.00     0.037 A 
HETATM   29  C   UNL     1       5.004  27.446  50.413  1.00  0.00     0.068 A 
HETATM   30  C   UNL     1       5.715  26.255  50.527  1.00  0.00     0.037 A 
HETATM   31  C   UNL     1       5.792  25.600  51.760  1.00  0.00     0.011 A 
BRANCH  29  32
HETATM   32  O   UNL     1       4.836  28.178  49.271  1.00  0.00    -0.356 OA
HETATM   33  C   UNL     1       4.825  27.461  48.041  1.00  0.00     0.210 C 
ENDBRANCH  29  32
ENDBRANCH  25  26
ENDBRANCH   5  25
TORSDOF 6
ENDMDL
MODEL 7
REMARK VINA RESULT:      -8.4      2.165      7.523
REMARK  6 active torsions:
REMARK  status: ('A' for Active; 'I' for Inactive)
REMARK    1  A    between atoms: C_3  and  C_4 
REMARK    2  A    between atoms: C_14  and  N_15 
REMARK       I    between atoms: N_15  and  C_16 
REMARK    3  A    between atoms: C_16  and  C_17 
REMARK    4  A    between atoms: N_21  and  C_22 
REMARK    5  A    between atoms: C_22  and  C_23 
REMARK    6  A    between atoms: C_26  and  O_27 
ROOT
HETATM    1  C   UNL     1       3.171  28.475  52.992  1.00  0.00     0.051 C 
HETATM    2  C   UNL     1       4.150  29.086  53.937  1.00  0.00    -0.022 A 
HETATM    3  C   UNL     1       5.296  28.471  54.517  1.00  0.00     0.062 A 
HETATM    4  C   UNL     1       5.875  29.360  55.413  1.00  0.00     0.125 A 
HETATM    5  N   UNL     1       5.163  30.543  55.338  1.00  0.00    -0.332 N 
HETATM    6  C   UNL     1       4.099  30.377  54.447  1.00  0.00     0.017 A 
HETATM    7  C   UNL     1       3.089  31.452  54.190  1.00  0.00     0.069 C 
ENDROOT
BRANCH   3   8
HETATM    8  C   UNL     1       5.863  27.106  54.263  1.00  0.00     0.143 A 
HETATM    9  N   UNL     1       5.902  26.160  55.188  1.00  0.00    -0.228 NA
HETATM   10  C   UNL     1       6.610  25.123  54.620  1.00  0.00     0.086 A 
HETATM   11  C   UNL     1       6.962  25.424  53.310  1.00  0.00     0.062 A 
HETATM   12  C   UNL     1       7.007  23.895  55.168  1.00  0.00     0.034 A 
HETATM   13  N   UNL     1       6.453  26.678  53.102  1.00  0.00    -0.338 N 
HETATM   14  C   UNL     1       7.695  24.563  52.491  1.00  0.00     0.032 A 
HETATM   15  H   UNL     1       6.567  27.216  52.258  1.00  0.00     0.167 HD
HETATM   16  C   UNL     1       8.088  23.346  53.056  1.00  0.00     0.002 A 
HETATM   17  C   UNL     1       7.753  23.015  54.372  1.00  0.00     0.002 A 
ENDBRANCH   3   8
BRANCH   4  18
HETATM   18  N   UNL     1       6.915  28.930  56.234  1.00  0.00    -0.312 N 
HETATM   19  C   UNL     1       8.314  28.980  55.999  1.00  0.00     0.226 C 
HETATM   20  O   UNL     1       8.758  28.979  54.863  1.00  0.00    -0.273 OA
HETATM   21  H   UNL     1       6.590  28.426  57.065  1.00  0.00     0.170 HD
BRANCH  19  22
HETATM   22  C   UNL     1       9.193  29.020  57.235  1.00  0.00     0.070 C 
HETATM   23  C   UNL     1      10.545  29.616  56.857  1.00  0.00     0.019 C 
HETATM   24  C   UNL     1       8.552  29.768  58.396  1.00  0.00     0.019 C 
ENDBRANCH  19  22
ENDBRANCH   4  18
BRANCH   5  25
HETATM   25  C   UNL     1       5.375  31.780  56.087  1.00  0.00     0.169 C 
BRANCH  25  26
HETATM   26  C   UNL     1       4.934  31.757  57.532  1.00  0.00    -0.040 A 
HETATM   27  C   UNL     1       3.716  31.235  57.984  1.00  0.00     0.011 A 
HETATM   28  C   UNL     1       3.365  31.319  59.336  1.00  0.00     0.037 A 
HETATM   29  C   UNL     1       4.213  31.924  60.263  1.00  0.00     0.068 A 
HETATM   30  C   UNL     1       5.432  32.437  59.829  1.00  0.00     0.037 A 
HETATM   31  C   UNL     1       5.787  32.351  58.479  1.00  0.00     0.011 A 
BRANCH  29  32
HETATM   32  O   UNL     1       3.738  31.955  61.544  1.00  0.00    -0.356 OA
HETATM   33  C   UNL     1       4.690  32.161  62.581  1.00  0.00     0.210 C 
ENDBRANCH  29  32
ENDBRANCH  25  26
ENDBRANCH   5  25
TORSDOF 6
ENDMDL
MODEL 8
REMARK VINA RESULT:      -8.3      4.270      9.444
REMARK  6 active torsions:
REMARK  status: ('A' for Active; 'I' for Inactive)
REMARK    1  A    between atoms: C_3  and  C_4 
REMARK    2  A    between atoms: C_14  and  N_15 
REMARK       I    between atoms: N_15  and  C_16 
REMARK    3  A    between atoms: C_16  and  C_17 
REMARK    4  A    between atoms: N_21  and  C_22 
REMARK    5  A    between atoms: C_22  and  C_23 
REMARK    6  A    between atoms: C_26  and  O_27 
ROOT
HETATM    1  C   UNL     1       3.056  31.796  56.204  1.00  0.00     0.051 C 
HETATM    2  C   UNL     1       3.892  32.277  57.342  1.00  0.00    -0.022 A 
HETATM    3  C   UNL     1       4.925  31.569  58.020  1.00  0.00     0.062 A 
HETATM    4  C   UNL     1       5.378  32.345  59.079  1.00  0.00     0.125 A 
HETATM    5  N   UNL     1       4.709  33.554  59.019  1.00  0.00    -0.332 N 
HETATM    6  C   UNL     1       3.790  33.513  57.968  1.00  0.00     0.017 A 
HETATM    7  C   UNL     1       2.852  34.643  57.673  1.00  0.00     0.069 C 
ENDROOT
BRANCH   3   8
HETATM    8  C   UNL     1       5.496  30.216  57.715  1.00  0.00     0.143 A 
HETATM    9  N   UNL     1       6.772  30.026  57.413  1.00  0.00    -0.228 NA
HETATM   10  C   UNL     1       6.869  28.696  57.068  1.00  0.00     0.086 A 
HETATM   11  C   UNL     1       5.645  28.055  57.213  1.00  0.00     0.062 A 
HETATM   12  C   UNL     1       7.971  27.963  56.603  1.00  0.00     0.034 A 
HETATM   13  N   UNL     1       4.798  29.039  57.650  1.00  0.00    -0.338 N 
HETATM   14  C   UNL     1       5.442  26.704  56.924  1.00  0.00     0.032 A 
HETATM   15  H   UNL     1       3.812  28.921  57.817  1.00  0.00     0.167 HD
HETATM   16  C   UNL     1       6.550  25.991  56.456  1.00  0.00     0.002 A 
HETATM   17  C   UNL     1       7.794  26.607  56.296  1.00  0.00     0.002 A 
ENDBRANCH   3   8
BRANCH   4  18
HETATM   18  N   UNL     1       6.272  31.800  59.997  1.00  0.00    -0.312 N 
HETATM   19  C   UNL     1       7.644  32.110  60.196  1.00  0.00     0.226 C 
HETATM   20  O   UNL     1       8.323  32.555  59.286  1.00  0.00    -0.273 OA
HETATM   21  H   UNL     1       5.885  31.005  60.514  1.00  0.00     0.170 HD
BRANCH  19  22
HETATM   22  C   UNL     1       8.189  31.841  61.586  1.00  0.00     0.070 C 
HETATM   23  C   UNL     1       7.064  31.299  62.460  1.00  0.00     0.019 C 
HETATM   24  C   UNL     1       9.397  30.913  61.581  1.00  0.00     0.019 C 
ENDBRANCH  19  22
ENDBRANCH   4  18
BRANCH   5  25
HETATM   25  C   UNL     1       4.830  34.703  59.913  1.00  0.00     0.169 C 
BRANCH  25  26
HETATM   26  C   UNL     1       4.522  34.439  61.368  1.00  0.00    -0.040 A 
HETATM   27  C   UNL     1       3.250  34.135  61.870  1.00  0.00     0.011 A 
HETATM   28  C   UNL     1       3.049  33.972  63.246  1.00  0.00     0.037 A 
HETATM   29  C   UNL     1       4.105  34.110  64.147  1.00  0.00     0.068 A 
HETATM   30  C   UNL     1       5.376  34.400  63.661  1.00  0.00     0.037 A 
HETATM   31  C   UNL     1       5.580  34.560  62.287  1.00  0.00     0.011 A 
BRANCH  29  32
HETATM   32  O   UNL     1       3.764  33.944  65.461  1.00  0.00    -0.356 OA
HETATM   33  C   UNL     1       4.805  34.090  66.421  1.00  0.00     0.210 C 
ENDBRANCH  29  32
ENDBRANCH  25  26
ENDBRANCH   5  25
TORSDOF 6
ENDMDL
MODEL 9
REMARK VINA RESULT:      -8.2      5.249     10.471
REMARK  6 active torsions:
REMARK  status: ('A' for Active; 'I' for Inactive)
REMARK    1  A    between atoms: C_3  and  C_4 
REMARK    2  A    between atoms: C_14  and  N_15 
REMARK       I    between atoms: N_15  and  C_16 
REMARK    3  A    between atoms: C_16  and  C_17 
REMARK    4  A    between atoms: N_21  and  C_22 
REMARK    5  A    between atoms: C_22  and  C_23 
REMARK    6  A    between atoms: C_26  and  O_27 
ROOT
HETATM    1  C   UNL     1       3.637  32.364  57.871  1.00  0.00     0.051 C 
HETATM    2  C   UNL     1       4.422  32.994  58.972  1.00  0.00    -0.022 A 
HETATM    3  C   UNL     1       5.699  32.601  59.462  1.00  0.00     0.062 A 
HETATM    4  C   UNL     1       6.022  33.394  60.556  1.00  0.00     0.125 A 
HETATM    5  N   UNL     1       5.012  34.327  60.700  1.00  0.00    -0.332 N 
HETATM    6  C   UNL     1       4.024  34.079  59.744  1.00  0.00     0.017 A 
HETATM    7  C   UNL     1       2.754  34.870  59.673  1.00  0.00     0.069 C 
ENDROOT
BRANCH   3   8
HETATM    8  C   UNL     1       6.616  31.531  58.950  1.00  0.00     0.143 A 
HETATM    9  N   UNL     1       7.908  31.732  58.737  1.00  0.00    -0.228 NA
HETATM   10  C   UNL     1       8.364  30.574  58.145  1.00  0.00     0.086 A 
HETATM   11  C   UNL     1       7.345  29.635  58.045  1.00  0.00     0.062 A 
HETATM   12  C   UNL     1       9.636  30.255  57.649  1.00  0.00     0.034 A 
HETATM   13  N   UNL     1       6.254  30.260  58.586  1.00  0.00    -0.338 N 
HETATM   14  C   UNL     1       7.514  28.371  57.475  1.00  0.00     0.032 A 
HETATM   15  H   UNL     1       5.327  29.869  58.633  1.00  0.00     0.167 HD
HETATM   16  C   UNL     1       8.787  28.073  56.981  1.00  0.00     0.002 A 
HETATM   17  C   UNL     1       9.832  28.997  57.063  1.00  0.00     0.002 A 
ENDBRANCH   3   8
BRANCH   4  18
HETATM   18  N   UNL     1       7.150  33.092  61.316  1.00  0.00    -0.312 N 
HETATM   19  C   UNL     1       7.337  32.040  62.251  1.00  0.00     0.226 C 
HETATM   20  O   UNL     1       6.389  31.555  62.846  1.00  0.00    -0.273 OA
HETATM   21  H   UNL     1       7.888  33.798  61.240  1.00  0.00     0.170 HD
BRANCH  19  22
HETATM   22  C   UNL     1       8.769  31.586  62.461  1.00  0.00     0.070 C 
HETATM   23  C   UNL     1       8.803  30.062  62.481  1.00  0.00     0.019 C 
HETATM   24  C   UNL     1       9.731  32.158  61.429  1.00  0.00     0.019 C 
ENDBRANCH  19  22
ENDBRANCH   4  18
BRANCH   5  25
HETATM   25  C   UNL     1       4.884  35.379  61.707  1.00  0.00     0.169 C 
BRANCH  25  26
HETATM   26  C   UNL     1       4.776  34.910  63.138  1.00  0.00    -0.040 A 
HETATM   27  C   UNL     1       3.585  34.511  63.757  1.00  0.00     0.011 A 
HETATM   28  C   UNL     1       3.572  34.155  65.111  1.00  0.00     0.037 A 
HETATM   29  C   UNL     1       4.738  34.192  65.875  1.00  0.00     0.068 A 
HETATM   30  C   UNL     1       5.931  34.575  65.269  1.00  0.00     0.037 A 
HETATM   31  C   UNL     1       5.948  34.928  63.916  1.00  0.00     0.011 A 
BRANCH  29  32
HETATM   32  O   UNL     1       4.578  33.839  67.186  1.00  0.00    -0.356 OA
HETATM   33  C   UNL     1       5.333  34.568  68.147  1.00  0.00     0.210 C 
ENDBRANCH  29  32
ENDBRANCH  25  26
ENDBRANCH   5  25
TORSDOF 6
ENDMDL
MODEL 10
REMARK VINA RESULT:      -8.1      5.925     11.445
REMARK  6 active torsions:
REMARK  status: ('A' for Active; 'I' for Inactive)
REMARK    1  A    between atoms: C_3  and  C_4 
REMARK    2  A    between atoms: C_14  and  N_15 
REMARK       I    between atoms: N_15  and  C_16 
REMARK    3  A    between atoms: C_16  and  C_17 
REMARK    4  A    between atoms: N_21  and  C_22 
REMARK    5  A    between atoms: C_22  and  C_23 
REMARK    6  A    between atoms: C_26  and  O_27 
ROOT
HETATM    1  C   UNL     1       3.642  33.086  57.528  1.00  0.00     0.051 C 
HETATM    2  C   UNL     1       3.994  33.565  58.895  1.00  0.00    -0.022 A 
HETATM    3  C   UNL     1       5.106  33.174  59.694  1.00  0.00     0.062 A 
HETATM    4  C   UNL     1       5.004  33.787  60.935  1.00  0.00     0.125 A 
HETATM    5  N   UNL     1       3.898  34.618  60.894  1.00  0.00    -0.332 N 
HETATM    6  C   UNL     1       3.269  34.476  59.655  1.00  0.00     0.017 A 
HETATM    7  C   UNL     1       1.997  35.188  59.311  1.00  0.00     0.069 C 
ENDROOT
BRANCH   3   8
HETATM    8  C   UNL     1       6.245  32.265  59.340  1.00  0.00     0.143 A 
HETATM    9  N   UNL     1       7.511  32.653  59.375  1.00  0.00    -0.228 NA
HETATM   10  C   UNL     1       8.229  31.597  58.856  1.00  0.00     0.086 A 
HETATM   11  C   UNL     1       7.392  30.531  58.550  1.00  0.00     0.062 A 
HETATM   12  C   UNL     1       9.603  31.480  58.599  1.00  0.00     0.034 A 
HETATM   13  N   UNL     1       6.142  30.974  58.891  1.00  0.00    -0.338 N 
HETATM   14  C   UNL     1       7.842  29.330  57.998  1.00  0.00     0.032 A 
HETATM   15  H   UNL     1       5.288  30.457  58.758  1.00  0.00     0.167 HD
HETATM   16  C   UNL     1       9.213  29.234  57.743  1.00  0.00     0.002 A 
HETATM   17  C   UNL     1      10.082  30.289  58.036  1.00  0.00     0.002 A 
ENDBRANCH   3   8
BRANCH   4  18
HETATM   18  N   UNL     1       5.884  33.429  61.954  1.00  0.00    -0.312 N 
HETATM   19  C   UNL     1       5.835  32.303  62.818  1.00  0.00     0.226 C 
HETATM   20  O   UNL     1       4.774  31.763  63.082  1.00  0.00    -0.273 OA
HETATM   21  H   UNL     1       6.591  34.145  62.145  1.00  0.00     0.170 HD
BRANCH  19  22
HETATM   22  C   UNL     1       7.165  31.843  63.383  1.00  0.00     0.070 C 
HETATM   23  C   UNL     1       7.892  31.021  62.324  1.00  0.00     0.019 C 
HETATM   24  C   UNL     1       8.025  32.993  63.891  1.00  0.00     0.019 C 
ENDBRANCH  19  22
ENDBRANCH   4  18
BRANCH   5  25
HETATM   25  C   UNL     1       3.366  35.472  61.953  1.00  0.00     0.169 C 
BRANCH  25  26
HETATM   26  C   UNL     1       4.268  36.595  62.409  1.00  0.00    -0.040 A 
HETATM   27  C   UNL     1       4.941  37.473  61.551  1.00  0.00     0.011 A 
HETATM   28  C   UNL     1       5.810  38.442  62.065  1.00  0.00     0.037 A 
HETATM   29  C   UNL     1       6.028  38.556  63.438  1.00  0.00     0.068 A 
HETATM   30  C   UNL     1       5.356  37.697  64.302  1.00  0.00     0.037 A 
HETATM   31  C   UNL     1       4.484  36.730  63.792  1.00  0.00     0.011 A 
BRANCH  29  32
HETATM   32  O   UNL     1       6.915  39.532  63.800  1.00  0.00    -0.356 OA
HETATM   33  C   UNL     1       7.572  40.229  62.748  1.00  0.00     0.210 C 
ENDBRANCH  29  32
ENDBRANCH  25  26
ENDBRANCH   5  25
TORSDOF 6
ENDMDL
