MODEL 1
REMARK VINA RESULT:     -10.9      0.000      0.000
REMARK  9 active torsions:
REMARK  status: ('A' for Active; 'I' for Inactive)
REMARK    1  A    between atoms: C_2  and  C_3 
REMARK    2  A    between atoms: C_3  and  C_4 
REMARK    3  A    between atoms: C_4  and  C_5 
REMARK    4  A    between atoms: C_5  and  N_6 
REMARK    5  A    between atoms: C_15  and  C_16 
REMARK       I    between atoms: C_16  and  N_17 
REMARK    6  A    between atoms: N_17  and  C_18 
REMARK    7  A    between atoms: C_18  and  C_19 
REMARK    8  A    between atoms: C_19  and  N_20 
REMARK    9  A    between atoms: N_24  and  C_25 
ROOT
HETATM    1  C   UNL     1       8.037  31.673  59.687  1.00  0.00     0.251 C 
HETATM    2  N   UNL     1       7.401  30.543  59.227  1.00  0.00    -0.355 N 
HETATM    3  O   UNL     1       8.935  32.225  59.058  1.00  0.00    -0.268 OA
HETATM    4  H   UNL     1       6.649  30.162  59.792  1.00  0.00     0.162 HD
ENDROOT
BRANCH   1   5
HETATM    5  C   UNL     1       7.598  32.226  60.991  1.00  0.00     0.034 A 
HETATM    6  C   UNL     1       6.272  32.630  61.204  1.00  0.00     0.047 A 
HETATM    7  C   UNL     1       5.875  33.024  62.484  1.00  0.00     0.053 A 
HETATM    8  N   UNL     1       4.555  33.392  62.723  1.00  0.00    -0.308 N 
HETATM    9  C   UNL     1       6.785  33.030  63.535  1.00  0.00     0.059 A 
HETATM   10  C   UNL     1       4.064  33.726  63.956  1.00  0.00     0.329 A 
HETATM   11  H   UNL     1       3.865  33.412  61.982  1.00  0.00     0.170 HD
HETATM   12  N   UNL     1       4.954  33.677  65.015  1.00  0.00    -0.266 N 
HETATM   13  O   UNL     1       2.880  34.040  64.052  1.00  0.00    -0.246 OA
HETATM   14  C   UNL     1       6.313  33.407  64.881  1.00  0.00     0.264 A 
HETATM   15  O   UNL     1       7.127  33.455  65.800  1.00  0.00    -0.267 OA
HETATM   16  C   UNL     1       8.113  32.647  63.321  1.00  0.00     0.020 A 
HETATM   17  C   UNL     1       8.516  32.234  62.050  1.00  0.00     0.018 A 
BRANCH  12  18
HETATM   18  C   UNL     1       4.452  33.987  66.350  1.00  0.00     0.137 C 
BRANCH  18  19
HETATM   19  C   UNL     1       4.598  35.473  66.688  1.00  0.00     0.020 C 
BRANCH  19  20
HETATM   20  C   UNL     1       5.446  35.666  67.945  1.00  0.00     0.001 C 
BRANCH  20  21
HETATM   21  C   UNL     1       5.555  34.372  68.752  1.00  0.00    -0.004 C 
HETATM   22  C   UNL     1       6.904  34.262  69.444  1.00  0.00     0.005 C 
ENDBRANCH  20  21
ENDBRANCH  19  20
ENDBRANCH  18  19
ENDBRANCH  12  18
ENDBRANCH   1   5
BRANCH   2  23
HETATM   23  C   UNL     1       7.904  29.687  58.153  1.00  0.00     0.150 C 
BRANCH  23  24
HETATM   24  C   UNL     1       6.862  29.014  57.225  1.00  0.00     0.254 C 
BRANCH  24  25
HETATM   25  N   UNL     1       6.844  27.511  57.329  1.00  0.00    -0.067 N 
HETATM   26  H   UNL     1       6.628  27.301  58.326  1.00  0.00     0.280 HD
HETATM   27  C   UNL     1       5.746  26.808  56.536  1.00  0.00     0.254 C 
HETATM   28  C   UNL     1       5.729  25.304  56.880  1.00  0.00     0.150 C 
HETATM   29  N   UNL     1       7.052  24.699  56.654  1.00  0.00    -0.378 N 
HETATM   30  C   UNL     1       8.163  25.356  57.373  1.00  0.00     0.150 C 
HETATM   31  C   UNL     1       8.200  26.869  57.058  1.00  0.00     0.254 C 
BRANCH  29  32
HETATM   32  C   UNL     1       7.324  23.941  55.521  1.00  0.00     0.031 A 
HETATM   33  C   UNL     1       7.631  22.573  55.574  1.00  0.00     0.053 A 
HETATM   34  C   UNL     1       7.933  21.845  54.417  1.00  0.00     0.036 A 
HETATM   35 CL   UNL     1       8.292  20.166  54.544  1.00  0.00    -0.084 Cl
HETATM   36  C   UNL     1       7.944  22.461  53.173  1.00  0.00     0.024 A 
HETATM   37  C   UNL     1       7.655  23.817  53.089  1.00  0.00     0.004 A 
HETATM   38  C   UNL     1       7.353  24.541  54.249  1.00  0.00     0.029 A 
ENDBRANCH  29  32
ENDBRANCH  24  25
ENDBRANCH  23  24
ENDBRANCH   2  23
TORSDOF 9
ENDMDL
MODEL 2
REMARK VINA RESULT:     -10.6      1.594      2.152
REMARK  9 active torsions:
REMARK  status: ('A' for Active; 'I' for Inactive)
REMARK    1  A    between atoms: C_2  and  C_3 
REMARK    2  A    between atoms: C_3  and  C_4 
REMARK    3  A    between atoms: C_4  and  C_5 
REMARK    4  A    between atoms: C_5  and  N_6 
REMARK    5  A    between atoms: C_15  and  C_16 
REMARK       I    between atoms: C_16  and  N_17 
REMARK    6  A    between atoms: N_17  and  C_18 
REMARK    7  A    between atoms: C_18  and  C_19 
REMARK    8  A    between atoms: C_19  and  N_20 
REMARK    9  A    between atoms: N_24  and  C_25 
ROOT
HETATM    1  C   UNL     1       9.223  31.338  58.871  1.00  0.00     0.251 C 
HETATM    2  N   UNL     1       8.675  30.194  58.339  1.00  0.00    -0.355 N 
HETATM    3  O   UNL     1      10.182  31.908  58.360  1.00  0.00    -0.268 OA
HETATM    4  H   UNL     1       7.864  29.798  58.804  1.00  0.00     0.162 HD
ENDROOT
BRANCH   1   5
HETATM    5  C   UNL     1       8.607  31.885  60.104  1.00  0.00     0.034 A 
HETATM    6  C   UNL     1       7.224  32.097  60.199  1.00  0.00     0.047 A 
HETATM    7  C   UNL     1       6.676  32.492  61.422  1.00  0.00     0.053 A 
HETATM    8  N   UNL     1       5.301  32.672  61.544  1.00  0.00    -0.308 N 
HETATM    9  C   UNL     1       7.491  32.687  62.532  1.00  0.00     0.059 A 
HETATM   10  C   UNL     1       4.673  32.990  62.717  1.00  0.00     0.329 A 
HETATM   11  H   UNL     1       4.676  32.551  60.757  1.00  0.00     0.170 HD
HETATM   12  N   UNL     1       5.475  33.128  63.837  1.00  0.00    -0.266 N 
HETATM   13  O   UNL     1       3.452  33.129  62.711  1.00  0.00    -0.246 OA
HETATM   14  C   UNL     1       6.865  33.056  63.815  1.00  0.00     0.264 A 
HETATM   15  O   UNL     1       7.589  33.271  64.784  1.00  0.00    -0.267 OA
HETATM   16  C   UNL     1       8.872  32.495  62.434  1.00  0.00     0.020 A 
HETATM   17  C   UNL     1       9.429  32.082  61.223  1.00  0.00     0.018 A 
BRANCH  12  18
HETATM   18  C   UNL     1       4.831  33.427  65.112  1.00  0.00     0.137 C 
BRANCH  18  19
HETATM   19  C   UNL     1       5.064  34.875  65.548  1.00  0.00     0.020 C 
BRANCH  19  20
HETATM   20  C   UNL     1       3.845  35.742  65.232  1.00  0.00     0.001 C 
BRANCH  20  21
HETATM   21  C   UNL     1       4.035  36.524  63.933  1.00  0.00    -0.004 C 
HETATM   22  C   UNL     1       5.497  36.865  63.700  1.00  0.00     0.005 C 
ENDBRANCH  20  21
ENDBRANCH  19  20
ENDBRANCH  18  19
ENDBRANCH  12  18
ENDBRANCH   1   5
BRANCH   2  23
HETATM   23  C   UNL     1       9.331  29.346  57.343  1.00  0.00     0.150 C 
BRANCH  23  24
HETATM   24  C   UNL     1       8.729  29.322  55.915  1.00  0.00     0.254 C 
BRANCH  24  25
HETATM   25  N   UNL     1       7.732  28.214  55.700  1.00  0.00    -0.067 N 
HETATM   26  H   UNL     1       6.806  28.614  55.958  1.00  0.00     0.280 HD
HETATM   27  C   UNL     1       7.566  27.747  54.257  1.00  0.00     0.254 C 
HETATM   28  C   UNL     1       6.391  26.752  54.158  1.00  0.00     0.150 C 
HETATM   29  N   UNL     1       6.578  25.625  55.088  1.00  0.00    -0.378 N 
HETATM   30  C   UNL     1       6.774  26.015  56.499  1.00  0.00     0.150 C 
HETATM   31  C   UNL     1       7.939  27.024  56.631  1.00  0.00     0.254 C 
BRANCH  29  32
HETATM   32  C   UNL     1       7.030  24.386  54.651  1.00  0.00     0.031 A 
HETATM   33  C   UNL     1       7.183  23.285  55.508  1.00  0.00     0.053 A 
HETATM   34  C   UNL     1       7.673  22.058  55.043  1.00  0.00     0.036 A 
HETATM   35 CL   UNL     1       7.829  20.740  56.140  1.00  0.00    -0.084 Cl
HETATM   36  C   UNL     1       8.032  21.895  53.712  1.00  0.00     0.024 A 
HETATM   37  C   UNL     1       7.902  22.970  52.842  1.00  0.00     0.004 A 
HETATM   38  C   UNL     1       7.411  24.194  53.311  1.00  0.00     0.029 A 
ENDBRANCH  29  32
ENDBRANCH  24  25
ENDBRANCH  23  24
ENDBRANCH   2  23
TORSDOF 9
ENDMDL
MODEL 3
REMARK VINA RESULT:     -10.4      1.035      1.414
REMARK  9 active torsions:
REMARK  status: ('A' for Active; 'I' for Inactive)
REMARK    1  A    between atoms: C_2  and  C_3 
REMARK    2  A    between atoms: C_3  and  C_4 
REMARK    3  A    between atoms: C_4  and  C_5 
REMARK    4  A    between atoms: C_5  and  N_6 
REMARK    5  A    between atoms: C_15  and  C_16 
REMARK       I    between atoms: C_16  and  N_17 
REMARK    6  A    between atoms: N_17  and  C_18 
REMARK    7  A    between atoms: C_18  and  C_19 
REMARK    8  A    between atoms: C_19  and  N_20 
REMARK    9  A    between atoms: N_24  and  C_25 
ROOT
HETATM    1  C   UNL     1       8.551  31.463  59.352  1.00  0.00     0.251 C 
HETATM    2  N   UNL     1       8.013  30.281  58.898  1.00  0.00    -0.355 N 
HETATM    3  O   UNL     1       9.443  32.055  58.751  1.00  0.00    -0.268 OA
HETATM    4  H   UNL     1       7.259  29.868  59.437  1.00  0.00     0.162 HD
ENDROOT
BRANCH   1   5
HETATM    5  C   UNL     1       8.009  32.024  60.614  1.00  0.00     0.034 A 
HETATM    6  C   UNL     1       6.657  32.375  60.737  1.00  0.00     0.047 A 
HETATM    7  C   UNL     1       6.167  32.778  61.981  1.00  0.00     0.053 A 
HETATM    8  N   UNL     1       4.820  33.094  62.131  1.00  0.00    -0.308 N 
HETATM    9  C   UNL     1       7.009  32.845  63.085  1.00  0.00     0.059 A 
HETATM   10  C   UNL     1       4.241  33.432  63.324  1.00  0.00     0.329 A 
HETATM   11  H   UNL     1       4.177  33.070  61.349  1.00  0.00     0.170 HD
HETATM   12  N   UNL     1       5.066  33.443  64.436  1.00  0.00    -0.266 N 
HETATM   13  O   UNL     1       3.041  33.697  63.341  1.00  0.00    -0.246 OA
HETATM   14  C   UNL     1       6.440  33.229  64.390  1.00  0.00     0.264 A 
HETATM   15  O   UNL     1       7.193  33.330  65.356  1.00  0.00    -0.267 OA
HETATM   16  C   UNL     1       8.362  32.514  62.960  1.00  0.00     0.020 A 
HETATM   17  C   UNL     1       8.859  32.092  61.726  1.00  0.00     0.018 A 
BRANCH  12  18
HETATM   18  C   UNL     1       4.470  33.759  65.731  1.00  0.00     0.137 C 
BRANCH  18  19
HETATM   19  C   UNL     1       4.354  35.268  65.957  1.00  0.00     0.020 C 
BRANCH  19  20
HETATM   20  C   UNL     1       5.003  35.673  67.281  1.00  0.00     0.001 C 
BRANCH  20  21
HETATM   21  C   UNL     1       5.390  34.450  68.112  1.00  0.00    -0.004 C 
HETATM   22  C   UNL     1       6.664  34.698  68.903  1.00  0.00     0.005 C 
ENDBRANCH  20  21
ENDBRANCH  19  20
ENDBRANCH  18  19
ENDBRANCH  12  18
ENDBRANCH   1   5
BRANCH   2  23
HETATM   23  C   UNL     1       8.626  29.429  57.878  1.00  0.00     0.150 C 
BRANCH  23  24
HETATM   24  C   UNL     1       7.989  29.431  56.466  1.00  0.00     0.254 C 
BRANCH  24  25
HETATM   25  N   UNL     1       7.197  28.187  56.160  1.00  0.00    -0.067 N 
HETATM   26  H   UNL     1       6.207  28.499  56.067  1.00  0.00     0.280 HD
HETATM   27  C   UNL     1       7.519  27.510  54.831  1.00  0.00     0.254 C 
HETATM   28  C   UNL     1       6.513  26.370  54.564  1.00  0.00     0.150 C 
HETATM   29  N   UNL     1       6.494  25.414  55.684  1.00  0.00    -0.378 N 
HETATM   30  C   UNL     1       6.217  26.015  57.005  1.00  0.00     0.150 C 
HETATM   31  C   UNL     1       7.201  27.171  57.298  1.00  0.00     0.254 C 
BRANCH  29  32
HETATM   32  C   UNL     1       7.155  24.194  55.613  1.00  0.00     0.031 A 
HETATM   33  C   UNL     1       7.187  23.410  54.450  1.00  0.00     0.053 A 
HETATM   34  C   UNL     1       7.835  22.169  54.421  1.00  0.00     0.036 A 
HETATM   35 CL   UNL     1       7.850  21.258  52.961  1.00  0.00    -0.084 Cl
HETATM   36  C   UNL     1       8.463  21.669  55.553  1.00  0.00     0.024 A 
HETATM   37  C   UNL     1       8.438  22.416  56.724  1.00  0.00     0.004 A 
HETATM   38  C   UNL     1       7.791  23.658  56.748  1.00  0.00     0.029 A 
ENDBRANCH  29  32
ENDBRANCH  24  25
ENDBRANCH  23  24
ENDBRANCH   2  23
TORSDOF 9
ENDMDL
MODEL 4
REMARK VINA RESULT:      -9.9      1.749      2.640
REMARK  9 active torsions:
REMARK  status: ('A' for Active; 'I' for Inactive)
REMARK    1  A    between atoms: C_2  and  C_3 
REMARK    2  A    between atoms: C_3  and  C_4 
REMARK    3  A    between atoms: C_4  and  C_5 
REMARK    4  A    between atoms: C_5  and  N_6 
REMARK    5  A    between atoms: C_15  and  C_16 
REMARK       I    between atoms: C_16  and  N_17 
REMARK    6  A    between atoms: N_17  and  C_18 
REMARK    7  A    between atoms: C_18  and  C_19 
REMARK    8  A    between atoms: C_19  and  N_20 
REMARK    9  A    between atoms: N_24  and  C_25 
ROOT
HETATM    1  C   UNL     1       8.003  29.756  58.120  1.00  0.00     0.251 C 
HETATM    2  N   UNL     1       6.834  29.307  57.551  1.00  0.00    -0.355 N 
HETATM    3  O   UNL     1       9.109  29.431  57.697  1.00  0.00    -0.268 OA
HETATM    4  H   UNL     1       5.960  29.644  57.941  1.00  0.00     0.162 HD
ENDROOT
BRANCH   1   5
HETATM    5  C   UNL     1       7.895  30.671  59.281  1.00  0.00     0.034 A 
HETATM    6  C   UNL     1       6.822  31.565  59.410  1.00  0.00     0.047 A 
HETATM    7  C   UNL     1       6.694  32.316  60.582  1.00  0.00     0.053 A 
HETATM    8  N   UNL     1       5.616  33.180  60.742  1.00  0.00    -0.308 N 
HETATM    9  C   UNL     1       7.626  32.190  61.606  1.00  0.00     0.059 A 
HETATM   10  C   UNL     1       5.375  33.900  61.881  1.00  0.00     0.329 A 
HETATM   11  H   UNL     1       4.923  33.308  60.015  1.00  0.00     0.170 HD
HETATM   12  N   UNL     1       6.270  33.733  62.924  1.00  0.00    -0.266 N 
HETATM   13  O   UNL     1       4.393  34.638  61.913  1.00  0.00    -0.246 OA
HETATM   14  C   UNL     1       7.427  32.964  62.845  1.00  0.00     0.264 A 
HETATM   15  O   UNL     1       8.274  32.887  63.732  1.00  0.00    -0.267 OA
HETATM   16  C   UNL     1       8.708  31.314  61.472  1.00  0.00     0.020 A 
HETATM   17  C   UNL     1       8.835  30.546  60.313  1.00  0.00     0.018 A 
BRANCH  12  18
HETATM   18  C   UNL     1       6.018  34.456  64.168  1.00  0.00     0.137 C 
BRANCH  18  19
HETATM   19  C   UNL     1       5.356  33.568  65.225  1.00  0.00     0.020 C 
BRANCH  19  20
HETATM   20  C   UNL     1       4.301  34.348  66.009  1.00  0.00     0.001 C 
BRANCH  20  21
HETATM   21  C   UNL     1       4.449  34.133  67.515  1.00  0.00    -0.004 C 
HETATM   22  C   UNL     1       5.853  34.474  67.987  1.00  0.00     0.005 C 
ENDBRANCH  20  21
ENDBRANCH  19  20
ENDBRANCH  18  19
ENDBRANCH  12  18
ENDBRANCH   1   5
BRANCH   2  23
HETATM   23  C   UNL     1       6.741  28.172  56.632  1.00  0.00     0.150 C 
BRANCH  23  24
HETATM   24  C   UNL     1       6.537  28.482  55.128  1.00  0.00     0.254 C 
BRANCH  24  25
HETATM   25  N   UNL     1       6.443  27.250  54.266  1.00  0.00    -0.067 N 
HETATM   26  H   UNL     1       5.903  27.539  53.422  1.00  0.00     0.280 HD
HETATM   27  C   UNL     1       7.767  26.723  53.721  1.00  0.00     0.254 C 
HETATM   28  C   UNL     1       7.504  25.585  52.713  1.00  0.00     0.150 C 
HETATM   29  N   UNL     1       6.692  24.519  53.324  1.00  0.00    -0.378 N 
HETATM   30  C   UNL     1       5.408  24.974  53.898  1.00  0.00     0.150 C 
HETATM   31  C   UNL     1       5.636  26.125  54.905  1.00  0.00     0.254 C 
BRANCH  29  32
HETATM   32  C   UNL     1       7.261  23.335  53.775  1.00  0.00     0.031 A 
HETATM   33  C   UNL     1       7.457  23.052  55.135  1.00  0.00     0.053 A 
HETATM   34  C   UNL     1       8.064  21.862  55.556  1.00  0.00     0.036 A 
HETATM   35 CL   UNL     1       8.267  21.566  57.239  1.00  0.00    -0.084 Cl
HETATM   36  C   UNL     1       8.500  20.922  54.632  1.00  0.00     0.024 A 
HETATM   37  C   UNL     1       8.331  21.179  53.277  1.00  0.00     0.004 A 
HETATM   38  C   UNL     1       7.722  22.369  52.862  1.00  0.00     0.029 A 
ENDBRANCH  29  32
ENDBRANCH  24  25
ENDBRANCH  23  24
ENDBRANCH   2  23
TORSDOF 9
ENDMDL
MODEL 5
REMARK VINA RESULT:      -9.8      1.907      2.804
REMARK  9 active torsions:
REMARK  status: ('A' for Active; 'I' for Inactive)
REMARK    1  A    between atoms: C_2  and  C_3 
REMARK    2  A    between atoms: C_3  and  C_4 
REMARK    3  A    between atoms: C_4  and  C_5 
REMARK    4  A    between atoms: C_5  and  N_6 
REMARK    5  A    between atoms: C_15  and  C_16 
REMARK       I    between atoms: C_16  and  N_17 
REMARK    6  A    between atoms: N_17  and  C_18 
REMARK    7  A    between atoms: C_18  and  C_19 
REMARK    8  A    between atoms: C_19  and  N_20 
REMARK    9  A    between atoms: N_24  and  C_25 
ROOT
HETATM    1  C   UNL     1       9.201  30.427  58.210  1.00  0.00     0.251 C 
HETATM    2  N   UNL     1       8.288  29.729  57.454  1.00  0.00    -0.355 N 
HETATM    3  O   UNL     1      10.387  30.504  57.906  1.00  0.00    -0.268 OA
HETATM    4  H   UNL     1       7.319  29.737  57.758  1.00  0.00     0.162 HD
ENDROOT
BRANCH   1   5
HETATM    5  C   UNL     1       8.704  31.109  59.430  1.00  0.00     0.034 A 
HETATM    6  C   UNL     1       7.342  31.395  59.604  1.00  0.00     0.047 A 
HETATM    7  C   UNL     1       6.905  31.921  60.823  1.00  0.00     0.053 A 
HETATM    8  N   UNL     1       5.552  32.177  61.027  1.00  0.00    -0.308 N 
HETATM    9  C   UNL     1       7.809  32.172  61.849  1.00  0.00     0.059 A 
HETATM   10  C   UNL     1       5.029  32.626  62.208  1.00  0.00     0.329 A 
HETATM   11  H   UNL     1       4.865  32.019  60.301  1.00  0.00     0.170 HD
HETATM   12  N   UNL     1       5.919  32.822  63.251  1.00  0.00    -0.266 N 
HETATM   13  O   UNL     1       3.818  32.823  62.277  1.00  0.00    -0.246 OA
HETATM   14  C   UNL     1       7.299  32.682  63.135  1.00  0.00     0.264 A 
HETATM   15  O   UNL     1       8.102  32.945  64.027  1.00  0.00    -0.267 OA
HETATM   16  C   UNL     1       9.170  31.906  61.670  1.00  0.00     0.020 A 
HETATM   17  C   UNL     1       9.615  31.363  60.464  1.00  0.00     0.018 A 
BRANCH  12  18
HETATM   18  C   UNL     1       5.386  33.262  64.537  1.00  0.00     0.137 C 
BRANCH  18  19
HETATM   19  C   UNL     1       5.923  34.637  64.941  1.00  0.00     0.020 C 
BRANCH  19  20
HETATM   20  C   UNL     1       5.416  35.721  63.990  1.00  0.00     0.001 C 
BRANCH  20  21
HETATM   21  C   UNL     1       3.902  35.898  64.097  1.00  0.00    -0.004 C 
HETATM   22  C   UNL     1       3.312  36.429  62.800  1.00  0.00     0.005 C 
ENDBRANCH  20  21
ENDBRANCH  19  20
ENDBRANCH  18  19
ENDBRANCH  12  18
ENDBRANCH   1   5
BRANCH   2  23
HETATM   23  C   UNL     1       8.639  28.747  56.427  1.00  0.00     0.150 C 
BRANCH  23  24
HETATM   24  C   UNL     1       7.751  28.688  55.159  1.00  0.00     0.254 C 
BRANCH  24  25
HETATM   25  N   UNL     1       7.057  27.365  54.971  1.00  0.00    -0.067 N 
HETATM   26  H   UNL     1       6.057  27.595  54.790  1.00  0.00     0.280 HD
HETATM   27  C   UNL     1       7.497  26.557  53.754  1.00  0.00     0.254 C 
HETATM   28  C   UNL     1       6.581  25.327  53.581  1.00  0.00     0.150 C 
HETATM   29  N   UNL     1       6.556  24.514  54.808  1.00  0.00    -0.378 N 
HETATM   30  C   UNL     1       6.165  25.250  56.028  1.00  0.00     0.150 C 
HETATM   31  C   UNL     1       7.058  26.497  56.224  1.00  0.00     0.254 C 
BRANCH  29  32
HETATM   32  C   UNL     1       7.294  23.342  54.923  1.00  0.00     0.031 A 
HETATM   33  C   UNL     1       7.500  22.463  53.849  1.00  0.00     0.053 A 
HETATM   34  C   UNL     1       8.222  21.273  54.006  1.00  0.00     0.036 A 
HETATM   35 CL   UNL     1       8.451  20.238  52.649  1.00  0.00    -0.084 Cl
HETATM   36  C   UNL     1       8.753  20.921  55.239  1.00  0.00     0.024 A 
HETATM   37  C   UNL     1       8.555  21.766  56.325  1.00  0.00     0.004 A 
HETATM   38  C   UNL     1       7.834  22.955  56.162  1.00  0.00     0.029 A 
ENDBRANCH  29  32
ENDBRANCH  24  25
ENDBRANCH  23  24
ENDBRANCH   2  23
TORSDOF 9
ENDMDL
MODEL 6
REMARK VINA RESULT:      -9.7      4.476     12.842
REMARK  9 active torsions:
REMARK  status: ('A' for Active; 'I' for Inactive)
REMARK    1  A    between atoms: C_2  and  C_3 
REMARK    2  A    between atoms: C_3  and  C_4 
REMARK    3  A    between atoms: C_4  and  C_5 
REMARK    4  A    between atoms: C_5  and  N_6 
REMARK    5  A    between atoms: C_15  and  C_16 
REMARK       I    between atoms: C_16  and  N_17 
REMARK    6  A    between atoms: N_17  and  C_18 
REMARK    7  A    between atoms: C_18  and  C_19 
REMARK    8  A    between atoms: C_19  and  N_20 
REMARK    9  A    between atoms: N_24  and  C_25 
ROOT
HETATM    1  C   UNL     1       7.633  29.653  57.557  1.00  0.00     0.251 C 
HETATM    2  N   UNL     1       8.819  29.838  58.229  1.00  0.00    -0.355 N 
HETATM    3  O   UNL     1       6.784  30.535  57.464  1.00  0.00    -0.268 OA
HETATM    4  H   UNL     1       9.481  29.069  58.237  1.00  0.00     0.162 HD
ENDROOT
BRANCH   1   5
HETATM    5  C   UNL     1       7.400  28.332  56.925  1.00  0.00     0.034 A 
HETATM    6  C   UNL     1       7.460  28.167  55.533  1.00  0.00     0.047 A 
HETATM    7  C   UNL     1       7.361  26.882  54.993  1.00  0.00     0.053 A 
HETATM    8  N   UNL     1       7.455  26.695  53.617  1.00  0.00    -0.308 N 
HETATM    9  C   UNL     1       7.192  25.778  55.821  1.00  0.00     0.059 A 
HETATM   10  C   UNL     1       7.438  25.469  53.009  1.00  0.00     0.329 A 
HETATM   11  H   UNL     1       7.567  27.474  52.980  1.00  0.00     0.170 HD
HETATM   12  N   UNL     1       7.328  24.364  53.836  1.00  0.00    -0.266 N 
HETATM   13  O   UNL     1       7.524  25.420  51.784  1.00  0.00    -0.246 OA
HETATM   14  C   UNL     1       7.141  24.436  55.213  1.00  0.00     0.264 A 
HETATM   15  O   UNL     1       6.948  23.465  55.941  1.00  0.00    -0.267 OA
HETATM   16  C   UNL     1       7.112  25.943  57.208  1.00  0.00     0.020 A 
HETATM   17  C   UNL     1       7.228  27.220  57.760  1.00  0.00     0.018 A 
BRANCH  12  18
HETATM   18  C   UNL     1       7.348  23.040  53.221  1.00  0.00     0.137 C 
BRANCH  18  19
HETATM   19  C   UNL     1       8.630  22.273  53.552  1.00  0.00     0.020 C 
BRANCH  19  20
HETATM   20  C   UNL     1       8.431  20.769  53.359  1.00  0.00     0.001 C 
BRANCH  20  21
HETATM   21  C   UNL     1       8.869  19.983  54.594  1.00  0.00    -0.004 C 
HETATM   22  C   UNL     1       8.028  20.343  55.808  1.00  0.00     0.005 C 
ENDBRANCH  20  21
ENDBRANCH  19  20
ENDBRANCH  18  19
ENDBRANCH  12  18
ENDBRANCH   1   5
BRANCH   2  23
HETATM   23  C   UNL     1       9.078  30.929  59.169  1.00  0.00     0.150 C 
BRANCH  23  24
HETATM   24  C   UNL     1       8.766  30.674  60.665  1.00  0.00     0.254 C 
BRANCH  24  25
HETATM   25  N   UNL     1       7.412  31.175  61.093  1.00  0.00    -0.067 N 
HETATM   26  H   UNL     1       6.731  30.453  60.773  1.00  0.00     0.280 HD
HETATM   27  C   UNL     1       7.191  31.276  62.599  1.00  0.00     0.254 C 
HETATM   28  C   UNL     1       5.716  31.618  62.893  1.00  0.00     0.150 C 
HETATM   29  N   UNL     1       5.310  32.846  62.188  1.00  0.00    -0.378 N 
HETATM   30  C   UNL     1       5.528  32.819  60.727  1.00  0.00     0.150 C 
HETATM   31  C   UNL     1       6.997  32.467  60.398  1.00  0.00     0.254 C 
BRANCH  29  32
HETATM   32  C   UNL     1       5.219  34.068  62.843  1.00  0.00     0.031 A 
HETATM   33  C   UNL     1       4.521  34.236  64.049  1.00  0.00     0.053 A 
HETATM   34  C   UNL     1       4.419  35.488  64.668  1.00  0.00     0.036 A 
HETATM   35 CL   UNL     1       3.559  35.630  66.152  1.00  0.00    -0.084 Cl
HETATM   36  C   UNL     1       5.005  36.611  64.099  1.00  0.00     0.024 A 
HETATM   37  C   UNL     1       5.693  36.478  62.899  1.00  0.00     0.004 A 
HETATM   38  C   UNL     1       5.793  35.224  62.285  1.00  0.00     0.029 A 
ENDBRANCH  29  32
ENDBRANCH  24  25
ENDBRANCH  23  24
ENDBRANCH   2  23
TORSDOF 9
ENDMDL
MODEL 7
REMARK VINA RESULT:      -9.4      2.045      2.804
REMARK  9 active torsions:
REMARK  status: ('A' for Active; 'I' for Inactive)
REMARK    1  A    between atoms: C_2  and  C_3 
REMARK    2  A    between atoms: C_3  and  C_4 
REMARK    3  A    between atoms: C_4  and  C_5 
REMARK    4  A    between atoms: C_5  and  N_6 
REMARK    5  A    between atoms: C_15  and  C_16 
REMARK       I    between atoms: C_16  and  N_17 
REMARK    6  A    between atoms: N_17  and  C_18 
REMARK    7  A    between atoms: C_18  and  C_19 
REMARK    8  A    between atoms: C_19  and  N_20 
REMARK    9  A    between atoms: N_24  and  C_25 
ROOT
HETATM    1  C   UNL     1       4.613  30.842  57.579  1.00  0.00     0.251 C 
HETATM    2  N   UNL     1       4.546  29.485  57.791  1.00  0.00    -0.355 N 
HETATM    3  O   UNL     1       4.553  31.337  56.457  1.00  0.00    -0.268 OA
HETATM    4  H   UNL     1       4.574  29.155  58.751  1.00  0.00     0.162 HD
ENDROOT
BRANCH   1   5
HETATM    5  C   UNL     1       4.756  31.717  58.767  1.00  0.00     0.034 A 
HETATM    6  C   UNL     1       3.667  31.991  59.609  1.00  0.00     0.047 A 
HETATM    7  C   UNL     1       3.878  32.715  60.785  1.00  0.00     0.053 A 
HETATM    8  N   UNL     1       2.817  32.963  61.650  1.00  0.00    -0.308 N 
HETATM    9  C   UNL     1       5.149  33.172  61.115  1.00  0.00     0.059 A 
HETATM   10  C   UNL     1       2.945  33.603  62.853  1.00  0.00     0.329 A 
HETATM   11  H   UNL     1       1.875  32.658  61.440  1.00  0.00     0.170 HD
HETATM   12  N   UNL     1       4.219  34.008  63.212  1.00  0.00    -0.266 N 
HETATM   13  O   UNL     1       1.939  33.774  63.538  1.00  0.00    -0.246 OA
HETATM   14  C   UNL     1       5.336  33.889  62.390  1.00  0.00     0.264 A 
HETATM   15  O   UNL     1       6.450  34.332  62.660  1.00  0.00    -0.267 OA
HETATM   16  C   UNL     1       6.232  32.917  60.268  1.00  0.00     0.020 A 
HETATM   17  C   UNL     1       6.036  32.179  59.100  1.00  0.00     0.018 A 
BRANCH  12  18
HETATM   18  C   UNL     1       4.396  34.656  64.508  1.00  0.00     0.137 C 
BRANCH  18  19
HETATM   19  C   UNL     1       4.816  33.663  65.594  1.00  0.00     0.020 C 
BRANCH  19  20
HETATM   20  C   UNL     1       5.894  34.265  66.496  1.00  0.00     0.001 C 
BRANCH  20  21
HETATM   21  C   UNL     1       5.283  35.103  67.618  1.00  0.00    -0.004 C 
HETATM   22  C   UNL     1       5.885  34.747  68.967  1.00  0.00     0.005 C 
ENDBRANCH  20  21
ENDBRANCH  19  20
ENDBRANCH  18  19
ENDBRANCH  12  18
ENDBRANCH   1   5
BRANCH   2  23
HETATM   23  C   UNL     1       4.732  28.472  56.751  1.00  0.00     0.150 C 
BRANCH  23  24
HETATM   24  C   UNL     1       6.172  27.958  56.501  1.00  0.00     0.254 C 
BRANCH  24  25
HETATM   25  N   UNL     1       6.279  27.009  55.337  1.00  0.00    -0.067 N 
HETATM   26  H   UNL     1       5.903  27.527  54.515  1.00  0.00     0.280 HD
HETATM   27  C   UNL     1       7.698  26.617  54.934  1.00  0.00     0.254 C 
HETATM   28  C   UNL     1       7.666  25.800  53.625  1.00  0.00     0.150 C 
HETATM   29  N   UNL     1       6.783  24.629  53.758  1.00  0.00    -0.378 N 
HETATM   30  C   UNL     1       5.401  24.942  54.176  1.00  0.00     0.150 C 
HETATM   31  C   UNL     1       5.398  25.772  55.481  1.00  0.00     0.254 C 
BRANCH  29  32
HETATM   32  C   UNL     1       7.290  23.353  53.973  1.00  0.00     0.031 A 
HETATM   33  C   UNL     1       7.539  22.837  55.253  1.00  0.00     0.053 A 
HETATM   34  C   UNL     1       8.081  21.559  55.435  1.00  0.00     0.036 A 
HETATM   35 CL   UNL     1       8.354  20.975  57.031  1.00  0.00    -0.084 Cl
HETATM   36  C   UNL     1       8.398  20.760  54.345  1.00  0.00     0.024 A 
HETATM   37  C   UNL     1       8.174  21.249  53.063  1.00  0.00     0.004 A 
HETATM   38  C   UNL     1       7.631  22.527  52.887  1.00  0.00     0.029 A 
ENDBRANCH  29  32
ENDBRANCH  24  25
ENDBRANCH  23  24
ENDBRANCH   2  23
TORSDOF 9
ENDMDL
MODEL 8
REMARK VINA RESULT:      -9.3      2.724      5.300
REMARK  9 active torsions:
REMARK  status: ('A' for Active; 'I' for Inactive)
REMARK    1  A    between atoms: C_2  and  C_3 
REMARK    2  A    between atoms: C_3  and  C_4 
REMARK    3  A    between atoms: C_4  and  C_5 
REMARK    4  A    between atoms: C_5  and  N_6 
REMARK    5  A    between atoms: C_15  and  C_16 
REMARK       I    between atoms: C_16  and  N_17 
REMARK    6  A    between atoms: N_17  and  C_18 
REMARK    7  A    between atoms: C_18  and  C_19 
REMARK    8  A    between atoms: C_19  and  N_20 
REMARK    9  A    between atoms: N_24  and  C_25 
ROOT
HETATM    1  C   UNL     1       5.394  28.114  55.454  1.00  0.00     0.251 C 
HETATM    2  N   UNL     1       5.096  28.696  54.244  1.00  0.00    -0.355 N 
HETATM    3  O   UNL     1       5.039  26.976  55.743  1.00  0.00    -0.268 OA
HETATM    4  H   UNL     1       5.450  29.631  54.070  1.00  0.00     0.162 HD
ENDROOT
BRANCH   1   5
HETATM    5  C   UNL     1       6.183  28.913  56.424  1.00  0.00     0.034 A 
HETATM    6  C   UNL     1       5.595  29.944  57.171  1.00  0.00     0.047 A 
HETATM    7  C   UNL     1       6.345  30.582  58.162  1.00  0.00     0.053 A 
HETATM    8  N   UNL     1       5.767  31.582  58.938  1.00  0.00    -0.308 N 
HETATM    9  C   UNL     1       7.663  30.210  58.401  1.00  0.00     0.059 A 
HETATM   10  C   UNL     1       6.403  32.211  59.973  1.00  0.00     0.329 A 
HETATM   11  H   UNL     1       4.814  31.890  58.788  1.00  0.00     0.170 HD
HETATM   12  N   UNL     1       7.697  31.803  60.251  1.00  0.00    -0.266 N 
HETATM   13  O   UNL     1       5.799  33.085  60.591  1.00  0.00    -0.246 OA
HETATM   14  C   UNL     1       8.403  30.876  59.489  1.00  0.00     0.264 A 
HETATM   15  O   UNL     1       9.581  30.578  59.671  1.00  0.00    -0.267 OA
HETATM   16  C   UNL     1       8.257  29.195  57.644  1.00  0.00     0.020 A 
HETATM   17  C   UNL     1       7.512  28.539  56.663  1.00  0.00     0.018 A 
BRANCH  12  18
HETATM   18  C   UNL     1       8.389  32.425  61.376  1.00  0.00     0.137 C 
BRANCH  18  19
HETATM   19  C   UNL     1       8.049  31.748  62.705  1.00  0.00     0.020 C 
BRANCH  19  20
HETATM   20  C   UNL     1       7.974  32.773  63.837  1.00  0.00     0.001 C 
BRANCH  20  21
HETATM   21  C   UNL     1       6.528  33.056  64.243  1.00  0.00    -0.004 C 
HETATM   22  C   UNL     1       6.462  33.913  65.496  1.00  0.00     0.005 C 
ENDBRANCH  20  21
ENDBRANCH  19  20
ENDBRANCH  18  19
ENDBRANCH  12  18
ENDBRANCH   1   5
BRANCH   2  23
HETATM   23  C   UNL     1       4.076  28.204  53.317  1.00  0.00     0.150 C 
BRANCH  23  24
HETATM   24  C   UNL     1       4.551  27.712  51.927  1.00  0.00     0.254 C 
BRANCH  24  25
HETATM   25  N   UNL     1       5.329  26.423  51.977  1.00  0.00    -0.067 N 
HETATM   26  H   UNL     1       5.336  26.061  51.000  1.00  0.00     0.280 HD
HETATM   27  C   UNL     1       6.802  26.556  52.354  1.00  0.00     0.254 C 
HETATM   28  C   UNL     1       7.513  25.197  52.184  1.00  0.00     0.150 C 
HETATM   29  N   UNL     1       6.833  24.148  52.962  1.00  0.00    -0.378 N 
HETATM   30  C   UNL     1       5.395  23.991  52.663  1.00  0.00     0.150 C 
HETATM   31  C   UNL     1       4.654  25.341  52.812  1.00  0.00     0.254 C 
BRANCH  29  32
HETATM   32  C   UNL     1       7.329  23.707  54.182  1.00  0.00     0.031 A 
HETATM   33  C   UNL     1       7.584  24.570  55.259  1.00  0.00     0.053 A 
HETATM   34  C   UNL     1       8.116  24.098  56.466  1.00  0.00     0.036 A 
HETATM   35 CL   UNL     1       8.397  25.204  57.755  1.00  0.00    -0.084 Cl
HETATM   36  C   UNL     1       8.416  22.753  56.632  1.00  0.00     0.024 A 
HETATM   37  C   UNL     1       8.185  21.875  55.580  1.00  0.00     0.004 A 
HETATM   38  C   UNL     1       7.652  22.351  54.376  1.00  0.00     0.029 A 
ENDBRANCH  29  32
ENDBRANCH  24  25
ENDBRANCH  23  24
ENDBRANCH   2  23
TORSDOF 9
ENDMDL
MODEL 9
REMARK VINA RESULT:      -9.2      3.753     11.924
REMARK  9 active torsions:
REMARK  status: ('A' for Active; 'I' for Inactive)
REMARK    1  A    between atoms: C_2  and  C_3 
REMARK    2  A    between atoms: C_3  and  C_4 
REMARK    3  A    between atoms: C_4  and  C_5 
REMARK    4  A    between atoms: C_5  and  N_6 
REMARK    5  A    between atoms: C_15  and  C_16 
REMARK       I    between atoms: C_16  and  N_17 
REMARK    6  A    between atoms: N_17  and  C_18 
REMARK    7  A    between atoms: C_18  and  C_19 
REMARK    8  A    between atoms: C_19  and  N_20 
REMARK    9  A    between atoms: N_24  and  C_25 
ROOT
HETATM    1  C   UNL     1       5.975  31.265  57.696  1.00  0.00     0.251 C 
HETATM    2  N   UNL     1       4.774  31.826  57.330  1.00  0.00    -0.355 N 
HETATM    3  O   UNL     1       6.849  31.901  58.278  1.00  0.00    -0.268 OA
HETATM    4  H   UNL     1       4.092  31.227  56.877  1.00  0.00     0.162 HD
ENDROOT
BRANCH   1   5
HETATM    5  C   UNL     1       6.193  29.835  57.370  1.00  0.00     0.034 A 
HETATM    6  C   UNL     1       5.444  29.190  56.375  1.00  0.00     0.047 A 
HETATM    7  C   UNL     1       5.771  27.880  56.015  1.00  0.00     0.053 A 
HETATM    8  N   UNL     1       5.064  27.237  55.003  1.00  0.00    -0.308 N 
HETATM    9  C   UNL     1       6.819  27.215  56.642  1.00  0.00     0.059 A 
HETATM   10  C   UNL     1       5.359  25.984  54.541  1.00  0.00     0.329 A 
HETATM   11  H   UNL     1       4.287  27.683  54.531  1.00  0.00     0.170 HD
HETATM   12  N   UNL     1       6.438  25.342  55.124  1.00  0.00    -0.266 N 
HETATM   13  O   UNL     1       4.664  25.510  53.645  1.00  0.00    -0.246 OA
HETATM   14  C   UNL     1       7.162  25.852  56.198  1.00  0.00     0.264 A 
HETATM   15  O   UNL     1       8.058  25.248  56.782  1.00  0.00    -0.267 OA
HETATM   16  C   UNL     1       7.554  27.850  57.649  1.00  0.00     0.020 A 
HETATM   17  C   UNL     1       7.248  29.164  58.004  1.00  0.00     0.018 A 
BRANCH  12  18
HETATM   18  C   UNL     1       6.804  24.021  54.624  1.00  0.00     0.137 C 
BRANCH  18  19
HETATM   19  C   UNL     1       7.963  24.085  53.625  1.00  0.00     0.020 C 
BRANCH  19  20
HETATM   20  C   UNL     1       8.718  22.757  53.579  1.00  0.00     0.001 C 
BRANCH  20  21
HETATM   21  C   UNL     1       7.878  21.657  52.930  1.00  0.00    -0.004 C 
HETATM   22  C   UNL     1       8.488  20.284  53.160  1.00  0.00     0.005 C 
ENDBRANCH  20  21
ENDBRANCH  19  20
ENDBRANCH  18  19
ENDBRANCH  12  18
ENDBRANCH   1   5
BRANCH   2  23
HETATM   23  C   UNL     1       4.514  33.265  57.273  1.00  0.00     0.150 C 
BRANCH  23  24
HETATM   24  C   UNL     1       3.200  33.781  57.911  1.00  0.00     0.254 C 
BRANCH  24  25
HETATM   25  N   UNL     1       3.294  33.990  59.400  1.00  0.00    -0.067 N 
HETATM   26  H   UNL     1       2.378  34.395  59.686  1.00  0.00     0.280 HD
HETATM   27  C   UNL     1       3.437  32.722  60.236  1.00  0.00     0.254 C 
HETATM   28  C   UNL     1       3.333  33.067  61.736  1.00  0.00     0.150 C 
HETATM   29  N   UNL     1       4.322  34.092  62.109  1.00  0.00    -0.378 N 
HETATM   30  C   UNL     1       4.254  35.334  61.313  1.00  0.00     0.150 C 
HETATM   31  C   UNL     1       4.343  35.022  59.801  1.00  0.00     0.254 C 
BRANCH  29  32
HETATM   32  C   UNL     1       5.503  33.763  62.763  1.00  0.00     0.031 A 
HETATM   33  C   UNL     1       6.539  33.043  62.150  1.00  0.00     0.053 A 
HETATM   34  C   UNL     1       7.704  32.698  62.847  1.00  0.00     0.036 A 
HETATM   35 CL   UNL     1       8.946  31.823  62.038  1.00  0.00    -0.084 Cl
HETATM   36  C   UNL     1       7.867  33.056  64.179  1.00  0.00     0.024 A 
HETATM   37  C   UNL     1       6.853  33.760  64.817  1.00  0.00     0.004 A 
HETATM   38  C   UNL     1       5.691  34.103  64.116  1.00  0.00     0.029 A 
ENDBRANCH  29  32
ENDBRANCH  24  25
ENDBRANCH  23  24
ENDBRANCH   2  23
TORSDOF 9
ENDMDL
MODEL 10
REMARK VINA RESULT:      -9.2      4.287     12.951
REMARK  9 active torsions:
REMARK  status: ('A' for Active; 'I' for Inactive)
REMARK    1  A    between atoms: C_2  and  C_3 
REMARK    2  A    between atoms: C_3  and  C_4 
REMARK    3  A    between atoms: C_4  and  C_5 
REMARK    4  A    between atoms: C_5  and  N_6 
REMARK    5  A    between atoms: C_15  and  C_16 
REMARK       I    between atoms: C_16  and  N_17 
REMARK    6  A    between atoms: N_17  and  C_18 
REMARK    7  A    between atoms: C_18  and  C_19 
REMARK    8  A    between atoms: C_19  and  N_20 
REMARK    9  A    between atoms: N_24  and  C_25 
ROOT
HETATM    1  C   UNL     1       5.482  30.536  57.724  1.00  0.00     0.251 C 
HETATM    2  N   UNL     1       4.379  30.619  58.541  1.00  0.00    -0.355 N 
HETATM    3  O   UNL     1       6.233  31.488  57.531  1.00  0.00    -0.268 OA
HETATM    4  H   UNL     1       3.824  29.780  58.671  1.00  0.00     0.162 HD
ENDROOT
BRANCH   1   5
HETATM    5  C   UNL     1       5.756  29.234  57.069  1.00  0.00     0.034 A 
HETATM    6  C   UNL     1       6.754  28.371  57.545  1.00  0.00     0.047 A 
HETATM    7  C   UNL     1       6.889  27.102  56.976  1.00  0.00     0.053 A 
HETATM    8  N   UNL     1       7.849  26.219  57.460  1.00  0.00    -0.308 N 
HETATM    9  C   UNL     1       6.052  26.700  55.940  1.00  0.00     0.059 A 
HETATM   10  C   UNL     1       8.005  24.937  57.010  1.00  0.00     0.329 A 
HETATM   11  H   UNL     1       8.485  26.479  58.204  1.00  0.00     0.170 HD
HETATM   12  N   UNL     1       7.136  24.514  56.019  1.00  0.00    -0.266 N 
HETATM   13  O   UNL     1       8.890  24.243  57.506  1.00  0.00    -0.246 OA
HETATM   14  C   UNL     1       6.197  25.334  55.402  1.00  0.00     0.264 A 
HETATM   15  O   UNL     1       5.488  24.994  54.458  1.00  0.00    -0.267 OA
HETATM   16  C   UNL     1       5.069  27.565  55.451  1.00  0.00     0.020 A 
HETATM   17  C   UNL     1       4.914  28.828  56.024  1.00  0.00     0.018 A 
BRANCH  12  18
HETATM   18  C   UNL     1       7.249  23.137  55.546  1.00  0.00     0.137 C 
BRANCH  18  19
HETATM   19  C   UNL     1       8.225  23.011  54.374  1.00  0.00     0.020 C 
BRANCH  19  20
HETATM   20  C   UNL     1       9.274  21.933  54.651  1.00  0.00     0.001 C 
BRANCH  20  21
HETATM   21  C   UNL     1       8.781  20.549  54.229  1.00  0.00    -0.004 C 
HETATM   22  C   UNL     1       8.038  20.606  52.904  1.00  0.00     0.005 C 
ENDBRANCH  20  21
ENDBRANCH  19  20
ENDBRANCH  18  19
ENDBRANCH  12  18
ENDBRANCH   1   5
BRANCH   2  23
HETATM   23  C   UNL     1       3.779  31.873  58.998  1.00  0.00     0.150 C 
BRANCH  23  24
HETATM   24  C   UNL     1       3.422  31.989  60.501  1.00  0.00     0.254 C 
BRANCH  24  25
HETATM   25  N   UNL     1       4.500  32.640  61.328  1.00  0.00    -0.067 N 
HETATM   26  H   UNL     1       5.372  32.563  60.764  1.00  0.00     0.280 HD
HETATM   27  C   UNL     1       4.328  34.135  61.578  1.00  0.00     0.254 C 
HETATM   28  C   UNL     1       5.586  34.700  62.269  1.00  0.00     0.150 C 
HETATM   29  N   UNL     1       5.882  33.961  63.508  1.00  0.00    -0.378 N 
HETATM   30  C   UNL     1       6.029  32.502  63.335  1.00  0.00     0.150 C 
HETATM   31  C   UNL     1       4.788  31.905  62.633  1.00  0.00     0.254 C 
BRANCH  29  32
HETATM   32  C   UNL     1       5.557  34.472  64.759  1.00  0.00     0.031 A 
HETATM   33  C   UNL     1       6.235  34.108  65.931  1.00  0.00     0.053 A 
HETATM   34  C   UNL     1       5.861  34.616  67.182  1.00  0.00     0.036 A 
HETATM   35 CL   UNL     1       6.739  34.141  68.584  1.00  0.00    -0.084 Cl
HETATM   36  C   UNL     1       4.795  35.498  67.301  1.00  0.00     0.024 A 
HETATM   37  C   UNL     1       4.096  35.869  66.158  1.00  0.00     0.004 A 
HETATM   38  C   UNL     1       4.475  35.359  64.910  1.00  0.00     0.029 A 
ENDBRANCH  29  32
ENDBRANCH  24  25
ENDBRANCH  23  24
ENDBRANCH   2  23
TORSDOF 9
ENDMDL
