MODEL 1
REMARK VINA RESULT:      -9.9      0.000      0.000
REMARK  10 active torsions:
REMARK  status: ('A' for Active; 'I' for Inactive)
REMARK    1  A    between atoms: N_5  and  C_7 
REMARK    2  A    between atoms: C_7  and  C_8 
REMARK    3  A    between atoms: C_8  and  C_9 
REMARK    4  A    between atoms: C_9  and  N_10 
REMARK       I    between atoms: N_10  and  C_11 
REMARK    5  A    between atoms: C_11  and  C_12 
REMARK    6  A    between atoms: C_12  and  C_13 
REMARK    7  A    between atoms: C_13  and  C_14 
REMARK    8  A    between atoms: C_14  and  N_15 
REMARK       I    between atoms: N_15  and  C_16 
REMARK    9  A    between atoms: C_16  and  C_17 
REMARK   10  A    between atoms: C_17  and  N_18 
ROOT
HETATM    1  N   UNL     1       9.317  28.828  56.952  1.00  0.00    -0.360 N 
HETATM    2  C   UNL     1       7.951  28.841  56.767  1.00  0.00     0.235 C 
HETATM    3  O   UNL     1       7.331  29.844  56.418  1.00  0.00    -0.272 OA
HETATM    4  H   UNL     1       9.742  28.015  57.397  1.00  0.00     0.162 HD
ENDROOT
BRANCH   1   5
HETATM    5  C   UNL     1      10.135  29.984  56.650  1.00  0.00     0.123 C 
BRANCH   5   6
HETATM    6  C   UNL     1      10.783  30.576  57.902  1.00  0.00     0.029 C 
BRANCH   6   7
HETATM    7  C   UNL     1       9.851  31.565  58.597  1.00  0.00     0.104 C 
BRANCH   7   8
HETATM    8  C   UNL     1       9.192  31.052  59.868  1.00  0.00     0.217 C 
HETATM    9  N   UNL     1       9.040  31.953  60.894  1.00  0.00    -0.361 N 
HETATM   10  H   UNL     1       9.537  32.837  60.853  1.00  0.00     0.162 HD
HETATM   11  O   UNL     1       8.691  29.927  59.937  1.00  0.00    -0.274 OA
BRANCH   9  12
HETATM   12  C   UNL     1       8.487  31.567  62.175  1.00  0.00     0.124 C 
BRANCH  12  13
HETATM   13  C   UNL     1       7.419  32.530  62.689  1.00  0.00     0.047 C 
BRANCH  13  14
HETATM   14  C   UNL     1       5.959  32.126  62.471  1.00  0.00     0.236 C 
BRANCH  14  15
HETATM   15  N   UNL     1       4.992  32.691  63.484  1.00  0.00    -0.071 N 
HETATM   16  C   UNL     1       5.655  33.342  64.668  1.00  0.00     0.235 C 
HETATM   17  C   UNL     1       4.614  33.839  65.662  1.00  0.00     0.032 C 
HETATM   18  C   UNL     1       3.570  34.766  65.033  1.00  0.00    -0.016 C 
HETATM   19  C   UNL     1       4.156  36.138  64.692  1.00  0.00     0.010 C 
HETATM   20  C   UNL     1       2.951  34.087  63.807  1.00  0.00     0.032 C 
HETATM   21  C   UNL     1       3.992  33.605  62.806  1.00  0.00     0.235 C 
HETATM   22  H   UNL     1       4.417  31.881  63.806  1.00  0.00     0.279 HD
ENDBRANCH  14  15
ENDBRANCH  13  14
ENDBRANCH  12  13
ENDBRANCH   9  12
ENDBRANCH   7   8
ENDBRANCH   6   7
ENDBRANCH   5   6
ENDBRANCH   1   5
BRANCH   2  23
HETATM   23  C   UNL     1       7.244  27.538  57.115  1.00  0.00     0.235 C 
BRANCH  23  24
HETATM   24  N   UNL     1       7.334  26.641  55.978  1.00  0.00    -0.299 N 
HETATM   25  C   UNL     1       7.308  25.268  56.210  1.00  0.00     0.262 C 
HETATM   26  O   UNL     1       7.094  24.783  57.320  1.00  0.00    -0.267 OA
HETATM   27  C   UNL     1       7.505  24.467  55.015  1.00  0.00     0.075 A 
HETATM   28  C   UNL     1       7.544  25.128  53.805  1.00  0.00     0.115 A 
HETATM   29  C   UNL     1       7.706  23.055  54.873  1.00  0.00    -0.026 A 
HETATM   30  S   UNL     1       7.775  24.055  52.500  1.00  0.00    -0.073 SA
HETATM   31  N   UNL     1       7.432  26.466  53.607  1.00  0.00    -0.235 NA
HETATM   32  C   UNL     1       7.887  22.717  53.544  1.00  0.00    -0.008 A 
HETATM   33  C   UNL     1       8.146  21.334  53.029  1.00  0.00     0.047 C 
HETATM   34  C   UNL     1       8.627  20.426  54.172  1.00  0.00     0.005 C 
HETATM   35  C   UNL     1       7.761  20.595  55.428  1.00  0.00     0.005 C 
HETATM   36  C   UNL     1       7.803  22.034  55.969  1.00  0.00     0.041 C 
HETATM   37  C   UNL     1       7.354  27.160  54.697  1.00  0.00     0.214 C 
ENDBRANCH  23  24
ENDBRANCH   2  23
TORSDOF 10
ENDMDL
MODEL 2
REMARK VINA RESULT:      -9.6      1.848      2.414
REMARK  10 active torsions:
REMARK  status: ('A' for Active; 'I' for Inactive)
REMARK    1  A    between atoms: N_5  and  C_7 
REMARK    2  A    between atoms: C_7  and  C_8 
REMARK    3  A    between atoms: C_8  and  C_9 
REMARK    4  A    between atoms: C_9  and  N_10 
REMARK       I    between atoms: N_10  and  C_11 
REMARK    5  A    between atoms: C_11  and  C_12 
REMARK    6  A    between atoms: C_12  and  C_13 
REMARK    7  A    between atoms: C_13  and  C_14 
REMARK    8  A    between atoms: C_14  and  N_15 
REMARK       I    between atoms: N_15  and  C_16 
REMARK    9  A    between atoms: C_16  and  C_17 
REMARK   10  A    between atoms: C_17  and  N_18 
ROOT
HETATM    1  N   UNL     1       6.276  30.058  55.618  1.00  0.00    -0.360 N 
HETATM    2  C   UNL     1       5.767  28.857  55.174  1.00  0.00     0.235 C 
HETATM    3  O   UNL     1       4.707  28.387  55.582  1.00  0.00    -0.272 OA
HETATM    4  H   UNL     1       7.231  30.308  55.363  1.00  0.00     0.162 HD
ENDROOT
BRANCH   1   5
HETATM    5  C   UNL     1       5.540  30.904  56.533  1.00  0.00     0.123 C 
BRANCH   5   6
HETATM    6  C   UNL     1       5.914  30.640  57.992  1.00  0.00     0.029 C 
BRANCH   6   7
HETATM    7  C   UNL     1       7.429  30.592  58.179  1.00  0.00     0.104 C 
BRANCH   7   8
HETATM    8  C   UNL     1       7.962  31.383  59.362  1.00  0.00     0.217 C 
HETATM    9  N   UNL     1       7.700  30.879  60.613  1.00  0.00    -0.361 N 
HETATM   10  H   UNL     1       7.012  30.140  60.714  1.00  0.00     0.162 HD
HETATM   11  O   UNL     1       8.711  32.353  59.217  1.00  0.00    -0.274 OA
BRANCH   9  12
HETATM   12  C   UNL     1       8.099  31.577  61.818  1.00  0.00     0.124 C 
BRANCH  12  13
HETATM   13  C   UNL     1       7.021  32.513  62.360  1.00  0.00     0.047 C 
BRANCH  13  14
HETATM   14  C   UNL     1       5.601  31.951  62.456  1.00  0.00     0.236 C 
BRANCH  14  15
HETATM   15  N   UNL     1       4.721  32.637  63.476  1.00  0.00    -0.071 N 
HETATM   16  C   UNL     1       5.478  33.262  64.617  1.00  0.00     0.235 C 
HETATM   17  C   UNL     1       4.519  33.885  65.621  1.00  0.00     0.032 C 
HETATM   18  C   UNL     1       3.544  34.882  64.990  1.00  0.00    -0.016 C 
HETATM   19  C   UNL     1       4.241  36.184  64.584  1.00  0.00     0.010 C 
HETATM   20  C   UNL     1       2.827  34.224  63.807  1.00  0.00     0.032 C 
HETATM   21  C   UNL     1       3.788  33.616  62.795  1.00  0.00     0.235 C 
HETATM   22  H   UNL     1       4.085  31.893  63.843  1.00  0.00     0.279 HD
ENDBRANCH  14  15
ENDBRANCH  13  14
ENDBRANCH  12  13
ENDBRANCH   9  12
ENDBRANCH   7   8
ENDBRANCH   6   7
ENDBRANCH   5   6
ENDBRANCH   1   5
BRANCH   2  23
HETATM   23  C   UNL     1       6.661  28.101  54.201  1.00  0.00     0.235 C 
BRANCH  23  24
HETATM   24  N   UNL     1       7.152  26.902  54.855  1.00  0.00    -0.299 N 
HETATM   25  C   UNL     1       7.386  25.769  54.080  1.00  0.00     0.262 C 
HETATM   26  O   UNL     1       7.310  25.773  52.852  1.00  0.00    -0.267 OA
HETATM   27  C   UNL     1       7.778  24.602  54.849  1.00  0.00     0.075 A 
HETATM   28  C   UNL     1       8.013  24.778  56.197  1.00  0.00     0.115 A 
HETATM   29  C   UNL     1       7.940  23.238  54.440  1.00  0.00    -0.026 A 
HETATM   30  S   UNL     1       8.469  23.322  56.960  1.00  0.00    -0.073 SA
HETATM   31  N   UNL     1       7.900  25.936  56.896  1.00  0.00    -0.235 NA
HETATM   32  C   UNL     1       8.294  22.442  55.515  1.00  0.00    -0.008 A 
HETATM   33  C   UNL     1       8.522  20.962  55.459  1.00  0.00     0.047 C 
HETATM   34  C   UNL     1       7.886  20.377  54.189  1.00  0.00     0.005 C 
HETATM   35  C   UNL     1       8.220  21.221  52.951  1.00  0.00     0.005 C 
HETATM   36  C   UNL     1       7.695  22.662  53.075  1.00  0.00     0.041 C 
HETATM   37  C   UNL     1       7.457  26.935  56.203  1.00  0.00     0.214 C 
ENDBRANCH  23  24
ENDBRANCH   2  23
TORSDOF 10
ENDMDL
MODEL 3
REMARK VINA RESULT:      -9.3      3.064     11.504
REMARK  10 active torsions:
REMARK  status: ('A' for Active; 'I' for Inactive)
REMARK    1  A    between atoms: N_5  and  C_7 
REMARK    2  A    between atoms: C_7  and  C_8 
REMARK    3  A    between atoms: C_8  and  C_9 
REMARK    4  A    between atoms: C_9  and  N_10 
REMARK       I    between atoms: N_10  and  C_11 
REMARK    5  A    between atoms: C_11  and  C_12 
REMARK    6  A    between atoms: C_12  and  C_13 
REMARK    7  A    between atoms: C_13  and  C_14 
REMARK    8  A    between atoms: C_14  and  N_15 
REMARK       I    between atoms: N_15  and  C_16 
REMARK    9  A    between atoms: C_16  and  C_17 
REMARK   10  A    between atoms: C_17  and  N_18 
ROOT
HETATM    1  N   UNL     1       6.577  28.024  57.414  1.00  0.00    -0.360 N 
HETATM    2  C   UNL     1       7.613  28.831  56.995  1.00  0.00     0.235 C 
HETATM    3  O   UNL     1       7.907  28.983  55.811  1.00  0.00    -0.272 OA
HETATM    4  H   UNL     1       6.492  27.816  58.409  1.00  0.00     0.162 HD
ENDROOT
BRANCH   1   5
HETATM    5  C   UNL     1       5.693  27.371  56.472  1.00  0.00     0.123 C 
BRANCH   5   6
HETATM    6  C   UNL     1       4.433  28.192  56.196  1.00  0.00     0.029 C 
BRANCH   6   7
HETATM    7  C   UNL     1       4.372  28.647  54.740  1.00  0.00     0.104 C 
BRANCH   7   8
HETATM    8  C   UNL     1       5.066  27.733  53.745  1.00  0.00     0.217 C 
HETATM    9  N   UNL     1       4.413  26.571  53.411  1.00  0.00    -0.361 N 
HETATM   10  H   UNL     1       3.621  26.271  53.969  1.00  0.00     0.162 HD
HETATM   11  O   UNL     1       6.097  28.068  53.155  1.00  0.00    -0.274 OA
BRANCH   9  12
HETATM   12  C   UNL     1       5.003  25.589  52.524  1.00  0.00     0.124 C 
BRANCH  12  13
HETATM   13  C   UNL     1       5.943  24.619  53.236  1.00  0.00     0.047 C 
BRANCH  13  14
HETATM   14  C   UNL     1       7.206  24.198  52.480  1.00  0.00     0.236 C 
BRANCH  14  15
HETATM   15  N   UNL     1       8.126  23.282  53.254  1.00  0.00    -0.071 N 
HETATM   16  C   UNL     1       8.189  23.578  54.728  1.00  0.00     0.235 C 
HETATM   17  C   UNL     1       9.173  22.646  55.422  1.00  0.00     0.032 C 
HETATM   18  C   UNL     1       8.885  21.164  55.167  1.00  0.00    -0.016 C 
HETATM   19  C   UNL     1       7.636  20.688  55.913  1.00  0.00     0.010 C 
HETATM   20  C   UNL     1       8.783  20.911  53.660  1.00  0.00     0.032 C 
HETATM   21  C   UNL     1       7.787  21.833  52.969  1.00  0.00     0.235 C 
HETATM   22  H   UNL     1       9.071  23.410  52.828  1.00  0.00     0.279 HD
ENDBRANCH  14  15
ENDBRANCH  13  14
ENDBRANCH  12  13
ENDBRANCH   9  12
ENDBRANCH   7   8
ENDBRANCH   6   7
ENDBRANCH   5   6
ENDBRANCH   1   5
BRANCH   2  23
HETATM   23  C   UNL     1       8.434  29.456  58.115  1.00  0.00     0.235 C 
BRANCH  23  24
HETATM   24  N   UNL     1       7.646  30.499  58.744  1.00  0.00    -0.299 N 
HETATM   25  C   UNL     1       8.032  30.959  60.000  1.00  0.00     0.262 C 
HETATM   26  O   UNL     1       9.076  30.607  60.548  1.00  0.00    -0.267 OA
HETATM   27  C   UNL     1       7.118  31.928  60.578  1.00  0.00     0.075 A 
HETATM   28  C   UNL     1       6.086  32.382  59.783  1.00  0.00     0.115 A 
HETATM   29  C   UNL     1       7.082  32.494  61.894  1.00  0.00    -0.026 A 
HETATM   30  S   UNL     1       5.105  33.515  60.596  1.00  0.00    -0.073 SA
HETATM   31  N   UNL     1       5.818  32.003  58.507  1.00  0.00    -0.235 NA
HETATM   32  C   UNL     1       6.011  33.359  62.028  1.00  0.00    -0.008 A 
HETATM   33  C   UNL     1       5.653  34.109  63.274  1.00  0.00     0.047 C 
HETATM   34  C   UNL     1       6.337  33.468  64.491  1.00  0.00     0.005 C 
HETATM   35  C   UNL     1       7.816  33.165  64.213  1.00  0.00     0.005 C 
HETATM   36  C   UNL     1       7.993  32.179  63.045  1.00  0.00     0.041 C 
HETATM   37  C   UNL     1       6.592  31.069  58.055  1.00  0.00     0.214 C 
ENDBRANCH  23  24
ENDBRANCH   2  23
TORSDOF 10
ENDMDL
MODEL 4
REMARK VINA RESULT:      -9.3      1.681      1.987
REMARK  10 active torsions:
REMARK  status: ('A' for Active; 'I' for Inactive)
REMARK    1  A    between atoms: N_5  and  C_7 
REMARK    2  A    between atoms: C_7  and  C_8 
REMARK    3  A    between atoms: C_8  and  C_9 
REMARK    4  A    between atoms: C_9  and  N_10 
REMARK       I    between atoms: N_10  and  C_11 
REMARK    5  A    between atoms: C_11  and  C_12 
REMARK    6  A    between atoms: C_12  and  C_13 
REMARK    7  A    between atoms: C_13  and  C_14 
REMARK    8  A    between atoms: C_14  and  N_15 
REMARK       I    between atoms: N_15  and  C_16 
REMARK    9  A    between atoms: C_16  and  C_17 
REMARK   10  A    between atoms: C_17  and  N_18 
ROOT
HETATM    1  N   UNL     1       6.370  29.664  57.631  1.00  0.00    -0.360 N 
HETATM    2  C   UNL     1       6.308  28.353  57.210  1.00  0.00     0.235 C 
HETATM    3  O   UNL     1       5.248  27.769  56.991  1.00  0.00    -0.272 OA
HETATM    4  H   UNL     1       7.266  30.033  57.951  1.00  0.00     0.162 HD
ENDROOT
BRANCH   1   5
HETATM    5  C   UNL     1       5.181  30.482  57.749  1.00  0.00     0.123 C 
BRANCH   5   6
HETATM    6  C   UNL     1       5.478  31.967  57.542  1.00  0.00     0.029 C 
BRANCH   6   7
HETATM    7  C   UNL     1       5.605  32.702  58.874  1.00  0.00     0.104 C 
BRANCH   7   8
HETATM    8  C   UNL     1       6.797  32.299  59.726  1.00  0.00     0.217 C 
HETATM    9  N   UNL     1       6.528  31.863  61.002  1.00  0.00    -0.361 N 
HETATM   10  H   UNL     1       5.603  32.013  61.390  1.00  0.00     0.162 HD
HETATM   11  O   UNL     1       7.939  32.231  59.264  1.00  0.00    -0.274 OA
BRANCH   9  12
HETATM   12  C   UNL     1       7.584  31.515  61.929  1.00  0.00     0.124 C 
BRANCH  12  13
HETATM   13  C   UNL     1       7.655  32.442  63.141  1.00  0.00     0.047 C 
BRANCH  13  14
HETATM   14  C   UNL     1       6.777  33.695  63.106  1.00  0.00     0.236 C 
BRANCH  14  15
HETATM   15  N   UNL     1       5.644  33.697  64.106  1.00  0.00    -0.071 N 
HETATM   16  C   UNL     1       6.085  33.890  65.532  1.00  0.00     0.235 C 
HETATM   17  C   UNL     1       4.892  33.829  66.477  1.00  0.00     0.032 C 
HETATM   18  C   UNL     1       3.775  34.807  66.105  1.00  0.00    -0.016 C 
HETATM   19  C   UNL     1       4.161  36.257  66.406  1.00  0.00     0.010 C 
HETATM   20  C   UNL     1       3.385  34.611  64.637  1.00  0.00     0.032 C 
HETATM   21  C   UNL     1       4.576  34.688  63.692  1.00  0.00     0.235 C 
HETATM   22  H   UNL     1       5.179  32.767  64.006  1.00  0.00     0.279 HD
ENDBRANCH  14  15
ENDBRANCH  13  14
ENDBRANCH  12  13
ENDBRANCH   9  12
ENDBRANCH   7   8
ENDBRANCH   6   7
ENDBRANCH   5   6
ENDBRANCH   1   5
BRANCH   2  23
HETATM   23  C   UNL     1       7.652  27.642  57.124  1.00  0.00     0.235 C 
BRANCH  23  24
HETATM   24  N   UNL     1       7.624  26.730  55.996  1.00  0.00    -0.299 N 
HETATM   25  C   UNL     1       7.538  25.363  56.247  1.00  0.00     0.262 C 
HETATM   26  O   UNL     1       7.364  24.901  57.374  1.00  0.00    -0.267 OA
HETATM   27  C   UNL     1       7.619  24.540  55.054  1.00  0.00     0.075 A 
HETATM   28  C   UNL     1       7.621  25.185  53.835  1.00  0.00     0.115 A 
HETATM   29  C   UNL     1       7.733  23.117  54.919  1.00  0.00    -0.026 A 
HETATM   30  S   UNL     1       7.715  24.088  52.533  1.00  0.00    -0.073 SA
HETATM   31  N   UNL     1       7.571  26.526  53.626  1.00  0.00    -0.235 NA
HETATM   32  C   UNL     1       7.817  22.756  53.586  1.00  0.00    -0.008 A 
HETATM   33  C   UNL     1       7.969  21.356  53.076  1.00  0.00     0.047 C 
HETATM   34  C   UNL     1       8.466  20.435  54.201  1.00  0.00     0.005 C 
HETATM   35  C   UNL     1       7.687  20.664  55.504  1.00  0.00     0.005 C 
HETATM   36  C   UNL     1       7.839  22.104  56.022  1.00  0.00     0.041 C 
HETATM   37  C   UNL     1       7.597  27.234  54.709  1.00  0.00     0.214 C 
ENDBRANCH  23  24
ENDBRANCH   2  23
TORSDOF 10
ENDMDL
MODEL 5
REMARK VINA RESULT:      -9.3      1.847      2.617
REMARK  10 active torsions:
REMARK  status: ('A' for Active; 'I' for Inactive)
REMARK    1  A    between atoms: N_5  and  C_7 
REMARK    2  A    between atoms: C_7  and  C_8 
REMARK    3  A    between atoms: C_8  and  C_9 
REMARK    4  A    between atoms: C_9  and  N_10 
REMARK       I    between atoms: N_10  and  C_11 
REMARK    5  A    between atoms: C_11  and  C_12 
REMARK    6  A    between atoms: C_12  and  C_13 
REMARK    7  A    between atoms: C_13  and  C_14 
REMARK    8  A    between atoms: C_14  and  N_15 
REMARK       I    between atoms: N_15  and  C_16 
REMARK    9  A    between atoms: C_16  and  C_17 
REMARK   10  A    between atoms: C_17  and  N_18 
ROOT
HETATM    1  N   UNL     1       7.736  28.685  55.600  1.00  0.00    -0.360 N 
HETATM    2  C   UNL     1       6.374  28.542  55.753  1.00  0.00     0.235 C 
HETATM    3  O   UNL     1       5.702  29.270  56.481  1.00  0.00    -0.272 OA
HETATM    4  H   UNL     1       8.253  27.952  55.114  1.00  0.00     0.162 HD
ENDROOT
BRANCH   1   5
HETATM    5  C   UNL     1       8.461  29.775  56.219  1.00  0.00     0.123 C 
BRANCH   5   6
HETATM    6  C   UNL     1       9.975  29.609  56.090  1.00  0.00     0.029 C 
BRANCH   6   7
HETATM    7  C   UNL     1      10.672  29.795  57.436  1.00  0.00     0.104 C 
BRANCH   7   8
HETATM    8  C   UNL     1      10.203  30.988  58.251  1.00  0.00     0.217 C 
HETATM    9  N   UNL     1       9.617  30.718  59.465  1.00  0.00    -0.361 N 
HETATM   10  H   UNL     1       9.340  29.766  59.679  1.00  0.00     0.162 HD
HETATM   11  O   UNL     1      10.452  32.150  57.916  1.00  0.00    -0.274 OA
BRANCH   9  12
HETATM   12  C   UNL     1       9.071  31.767  60.301  1.00  0.00     0.124 C 
BRANCH  12  13
HETATM   13  C   UNL     1       7.656  31.472  60.794  1.00  0.00     0.047 C 
BRANCH  13  14
HETATM   14  C   UNL     1       6.693  32.658  60.882  1.00  0.00     0.236 C 
BRANCH  14  15
HETATM   15  N   UNL     1       6.835  33.493  62.134  1.00  0.00    -0.071 N 
HETATM   16  C   UNL     1       5.653  34.382  62.415  1.00  0.00     0.235 C 
HETATM   17  C   UNL     1       5.897  35.222  63.661  1.00  0.00     0.032 C 
HETATM   18  C   UNL     1       6.269  34.389  64.890  1.00  0.00    -0.016 C 
HETATM   19  C   UNL     1       5.070  33.611  65.437  1.00  0.00     0.010 C 
HETATM   20  C   UNL     1       7.444  33.467  64.551  1.00  0.00     0.032 C 
HETATM   21  C   UNL     1       7.193  32.615  63.315  1.00  0.00     0.235 C 
HETATM   22  H   UNL     1       7.687  34.079  61.985  1.00  0.00     0.279 HD
ENDBRANCH  14  15
ENDBRANCH  13  14
ENDBRANCH  12  13
ENDBRANCH   9  12
ENDBRANCH   7   8
ENDBRANCH   6   7
ENDBRANCH   5   6
ENDBRANCH   1   5
BRANCH   2  23
HETATM   23  C   UNL     1       5.767  27.353  55.021  1.00  0.00     0.235 C 
BRANCH  23  24
HETATM   24  N   UNL     1       6.430  26.143  55.469  1.00  0.00    -0.299 N 
HETATM   25  C   UNL     1       6.893  25.244  54.512  1.00  0.00     0.262 C 
HETATM   26  O   UNL     1       6.872  25.484  53.306  1.00  0.00    -0.267 OA
HETATM   27  C   UNL     1       7.447  24.024  55.071  1.00  0.00     0.075 A 
HETATM   28  C   UNL     1       7.587  23.958  56.442  1.00  0.00     0.115 A 
HETATM   29  C   UNL     1       7.863  22.816  54.421  1.00  0.00    -0.026 A 
HETATM   30  S   UNL     1       8.255  22.472  56.944  1.00  0.00    -0.073 SA
HETATM   31  N   UNL     1       7.242  24.917  57.340  1.00  0.00    -0.235 NA
HETATM   32  C   UNL     1       8.302  21.887  55.348  1.00  0.00    -0.008 A 
HETATM   33  C   UNL     1       8.787  20.506  55.027  1.00  0.00     0.047 C 
HETATM   34  C   UNL     1       8.321  20.095  53.622  1.00  0.00     0.005 C 
HETATM   35  C   UNL     1       8.558  21.216  52.599  1.00  0.00     0.005 C 
HETATM   36  C   UNL     1       7.785  22.497  52.957  1.00  0.00     0.041 C 
HETATM   37  C   UNL     1       6.663  25.950  56.818  1.00  0.00     0.214 C 
ENDBRANCH  23  24
ENDBRANCH   2  23
TORSDOF 10
ENDMDL
MODEL 6
REMARK VINA RESULT:      -9.3      2.395      3.877
REMARK  10 active torsions:
REMARK  status: ('A' for Active; 'I' for Inactive)
REMARK    1  A    between atoms: N_5  and  C_7 
REMARK    2  A    between atoms: C_7  and  C_8 
REMARK    3  A    between atoms: C_8  and  C_9 
REMARK    4  A    between atoms: C_9  and  N_10 
REMARK       I    between atoms: N_10  and  C_11 
REMARK    5  A    between atoms: C_11  and  C_12 
REMARK    6  A    between atoms: C_12  and  C_13 
REMARK    7  A    between atoms: C_13  and  C_14 
REMARK    8  A    between atoms: C_14  and  N_15 
REMARK       I    between atoms: N_15  and  C_16 
REMARK    9  A    between atoms: C_16  and  C_17 
REMARK   10  A    between atoms: C_17  and  N_18 
ROOT
HETATM    1  N   UNL     1       5.931  29.453  57.629  1.00  0.00    -0.360 N 
HETATM    2  C   UNL     1       5.895  28.174  57.117  1.00  0.00     0.235 C 
HETATM    3  O   UNL     1       4.865  27.650  56.697  1.00  0.00    -0.272 OA
HETATM    4  H   UNL     1       6.777  29.764  58.108  1.00  0.00     0.162 HD
ENDROOT
BRANCH   1   5
HETATM    5  C   UNL     1       4.765  30.311  57.616  1.00  0.00     0.123 C 
BRANCH   5   6
HETATM    6  C   UNL     1       4.713  31.197  56.371  1.00  0.00     0.029 C 
BRANCH   6   7
HETATM    7  C   UNL     1       3.763  32.376  56.566  1.00  0.00     0.104 C 
BRANCH   7   8
HETATM    8  C   UNL     1       4.248  33.447  57.530  1.00  0.00     0.217 C 
HETATM    9  N   UNL     1       3.653  33.481  58.768  1.00  0.00    -0.361 N 
HETATM   10  H   UNL     1       2.803  32.949  58.923  1.00  0.00     0.162 HD
HETATM   11  O   UNL     1       5.218  34.166  57.276  1.00  0.00    -0.274 OA
BRANCH   9  12
HETATM   12  C   UNL     1       3.983  34.496  59.747  1.00  0.00     0.124 C 
BRANCH  12  13
HETATM   13  C   UNL     1       4.080  33.953  61.172  1.00  0.00     0.047 C 
BRANCH  13  14
HETATM   14  C   UNL     1       4.831  32.633  61.360  1.00  0.00     0.236 C 
BRANCH  14  15
HETATM   15  N   UNL     1       6.315  32.783  61.607  1.00  0.00    -0.071 N 
HETATM   16  C   UNL     1       6.787  32.163  62.895  1.00  0.00     0.235 C 
HETATM   17  C   UNL     1       8.277  32.401  63.091  1.00  0.00     0.032 C 
HETATM   18  C   UNL     1       9.127  31.933  61.907  1.00  0.00    -0.016 C 
HETATM   19  C   UNL     1       9.203  30.406  61.827  1.00  0.00     0.010 C 
HETATM   20  C   UNL     1       8.588  32.548  60.612  1.00  0.00     0.032 C 
HETATM   21  C   UNL     1       7.101  32.295  60.408  1.00  0.00     0.235 C 
HETATM   22  H   UNL     1       6.493  33.812  61.627  1.00  0.00     0.279 HD
ENDBRANCH  14  15
ENDBRANCH  13  14
ENDBRANCH  12  13
ENDBRANCH   9  12
ENDBRANCH   7   8
ENDBRANCH   6   7
ENDBRANCH   5   6
ENDBRANCH   1   5
BRANCH   2  23
HETATM   23  C   UNL     1       7.212  27.414  57.192  1.00  0.00     0.235 C 
BRANCH  23  24
HETATM   24  N   UNL     1       7.318  26.549  56.032  1.00  0.00    -0.299 N 
HETATM   25  C   UNL     1       7.297  25.171  56.225  1.00  0.00     0.262 C 
HETATM   26  O   UNL     1       7.074  24.653  57.319  1.00  0.00    -0.267 OA
HETATM   27  C   UNL     1       7.511  24.404  55.011  1.00  0.00     0.075 A 
HETATM   28  C   UNL     1       7.558  25.098  53.820  1.00  0.00     0.115 A 
HETATM   29  C   UNL     1       7.719  22.997  54.832  1.00  0.00    -0.026 A 
HETATM   30  S   UNL     1       7.808  24.062  52.488  1.00  0.00    -0.073 SA
HETATM   31  N   UNL     1       7.442  26.441  53.658  1.00  0.00    -0.235 NA
HETATM   32  C   UNL     1       7.916  22.696  53.496  1.00  0.00    -0.008 A 
HETATM   33  C   UNL     1       8.188  21.329  52.946  1.00  0.00     0.047 C 
HETATM   34  C   UNL     1       8.661  20.393  54.068  1.00  0.00     0.005 C 
HETATM   35  C   UNL     1       7.781  20.523  55.320  1.00  0.00     0.005 C 
HETATM   36  C   UNL     1       7.810  21.947  55.901  1.00  0.00     0.041 C 
HETATM   37  C   UNL     1       7.349  27.104  54.766  1.00  0.00     0.214 C 
ENDBRANCH  23  24
ENDBRANCH   2  23
TORSDOF 10
ENDMDL
MODEL 7
REMARK VINA RESULT:      -9.2      3.073     11.345
REMARK  10 active torsions:
REMARK  status: ('A' for Active; 'I' for Inactive)
REMARK    1  A    between atoms: N_5  and  C_7 
REMARK    2  A    between atoms: C_7  and  C_8 
REMARK    3  A    between atoms: C_8  and  C_9 
REMARK    4  A    between atoms: C_9  and  N_10 
REMARK       I    between atoms: N_10  and  C_11 
REMARK    5  A    between atoms: C_11  and  C_12 
REMARK    6  A    between atoms: C_12  and  C_13 
REMARK    7  A    between atoms: C_13  and  C_14 
REMARK    8  A    between atoms: C_14  and  N_15 
REMARK       I    between atoms: N_15  and  C_16 
REMARK    9  A    between atoms: C_16  and  C_17 
REMARK   10  A    between atoms: C_17  and  N_18 
ROOT
HETATM    1  N   UNL     1       9.734  30.472  58.764  1.00  0.00    -0.360 N 
HETATM    2  C   UNL     1       9.352  31.455  59.652  1.00  0.00     0.235 C 
HETATM    3  O   UNL     1       9.484  32.655  59.420  1.00  0.00    -0.272 OA
HETATM    4  H   UNL     1       9.749  29.504  59.084  1.00  0.00     0.162 HD
ENDROOT
BRANCH   1   5
HETATM    5  C   UNL     1      10.231  30.792  57.442  1.00  0.00     0.123 C 
BRANCH   5   6
HETATM    6  C   UNL     1      10.324  29.559  56.545  1.00  0.00     0.029 C 
BRANCH   6   7
HETATM    7  C   UNL     1       9.401  28.444  57.032  1.00  0.00     0.104 C 
BRANCH   7   8
HETATM    8  C   UNL     1       7.947  28.575  56.609  1.00  0.00     0.217 C 
HETATM    9  N   UNL     1       7.004  28.064  57.468  1.00  0.00    -0.361 N 
HETATM   10  H   UNL     1       7.301  27.457  58.225  1.00  0.00     0.162 HD
HETATM   11  O   UNL     1       7.609  29.225  55.616  1.00  0.00    -0.274 OA
BRANCH   9  12
HETATM   12  C   UNL     1       5.592  28.070  57.145  1.00  0.00     0.124 C 
BRANCH  12  13
HETATM   13  C   UNL     1       5.068  26.706  56.698  1.00  0.00     0.047 C 
BRANCH  13  14
HETATM   14  C   UNL     1       6.031  25.522  56.814  1.00  0.00     0.236 C 
BRANCH  14  15
HETATM   15  N   UNL     1       6.185  24.710  55.549  1.00  0.00    -0.071 N 
HETATM   16  C   UNL     1       5.587  25.357  54.328  1.00  0.00     0.235 C 
HETATM   17  C   UNL     1       5.741  24.455  53.112  1.00  0.00     0.032 C 
HETATM   18  C   UNL     1       7.187  24.024  52.857  1.00  0.00    -0.016 C 
HETATM   19  C   UNL     1       8.043  25.177  52.328  1.00  0.00     0.010 C 
HETATM   20  C   UNL     1       7.775  23.412  54.132  1.00  0.00     0.032 C 
HETATM   21  C   UNL     1       7.635  24.322  55.345  1.00  0.00     0.235 C 
HETATM   22  H   UNL     1       5.703  23.803  55.737  1.00  0.00     0.279 HD
ENDBRANCH  14  15
ENDBRANCH  13  14
ENDBRANCH  12  13
ENDBRANCH   9  12
ENDBRANCH   7   8
ENDBRANCH   6   7
ENDBRANCH   5   6
ENDBRANCH   1   5
BRANCH   2  23
HETATM   23  C   UNL     1       8.836  30.945  60.990  1.00  0.00     0.235 C 
BRANCH  23  24
HETATM   24  N   UNL     1       7.618  31.661  61.322  1.00  0.00    -0.299 N 
HETATM   25  C   UNL     1       7.539  32.305  62.554  1.00  0.00     0.262 C 
HETATM   26  O   UNL     1       8.495  32.396  63.322  1.00  0.00    -0.267 OA
HETATM   27  C   UNL     1       6.243  32.902  62.823  1.00  0.00     0.075 A 
HETATM   28  C   UNL     1       5.315  32.895  61.802  1.00  0.00     0.115 A 
HETATM   29  C   UNL     1       5.729  33.493  64.023  1.00  0.00    -0.026 A 
HETATM   30  S   UNL     1       3.850  33.634  62.267  1.00  0.00    -0.073 SA
HETATM   31  N   UNL     1       5.478  32.369  60.561  1.00  0.00    -0.235 NA
HETATM   32  C   UNL     1       4.422  33.909  63.845  1.00  0.00    -0.008 A 
HETATM   33  C   UNL     1       3.565  34.548  64.895  1.00  0.00     0.047 C 
HETATM   34  C   UNL     1       4.149  34.278  66.290  1.00  0.00     0.005 C 
HETATM   35  C   UNL     1       5.664  34.524  66.325  1.00  0.00     0.005 C 
HETATM   36  C   UNL     1       6.421  33.605  65.351  1.00  0.00     0.041 C 
HETATM   37  C   UNL     1       6.606  31.761  60.385  1.00  0.00     0.214 C 
ENDBRANCH  23  24
ENDBRANCH   2  23
TORSDOF 10
ENDMDL
MODEL 8
REMARK VINA RESULT:      -9.2      3.186     12.410
REMARK  10 active torsions:
REMARK  status: ('A' for Active; 'I' for Inactive)
REMARK    1  A    between atoms: N_5  and  C_7 
REMARK    2  A    between atoms: C_7  and  C_8 
REMARK    3  A    between atoms: C_8  and  C_9 
REMARK    4  A    between atoms: C_9  and  N_10 
REMARK       I    between atoms: N_10  and  C_11 
REMARK    5  A    between atoms: C_11  and  C_12 
REMARK    6  A    between atoms: C_12  and  C_13 
REMARK    7  A    between atoms: C_13  and  C_14 
REMARK    8  A    between atoms: C_14  and  N_15 
REMARK       I    between atoms: N_15  and  C_16 
REMARK    9  A    between atoms: C_16  and  C_17 
REMARK   10  A    between atoms: C_17  and  N_18 
ROOT
HETATM    1  N   UNL     1       7.976  30.361  59.560  1.00  0.00    -0.360 N 
HETATM    2  C   UNL     1       8.245  31.485  60.312  1.00  0.00     0.235 C 
HETATM    3  O   UNL     1       8.661  32.534  59.823  1.00  0.00    -0.272 OA
HETATM    4  H   UNL     1       7.792  29.482  60.044  1.00  0.00     0.162 HD
ENDROOT
BRANCH   1   5
HETATM    5  C   UNL     1       8.073  30.372  58.116  1.00  0.00     0.123 C 
BRANCH   5   6
HETATM    6  C   UNL     1       9.375  29.741  57.619  1.00  0.00     0.029 C 
BRANCH   6   7
HETATM    7  C   UNL     1       9.111  28.696  56.539  1.00  0.00     0.104 C 
BRANCH   7   8
HETATM    8  C   UNL     1       8.046  27.665  56.879  1.00  0.00     0.217 C 
HETATM    9  N   UNL     1       7.054  27.469  55.948  1.00  0.00    -0.361 N 
HETATM   10  H   UNL     1       6.949  28.134  55.190  1.00  0.00     0.162 HD
HETATM   11  O   UNL     1       8.132  26.938  57.872  1.00  0.00    -0.274 OA
BRANCH   9  12
HETATM   12  C   UNL     1       5.950  26.563  56.187  1.00  0.00     0.124 C 
BRANCH  12  13
HETATM   13  C   UNL     1       6.009  25.299  55.332  1.00  0.00     0.047 C 
BRANCH  13  14
HETATM   14  C   UNL     1       6.938  25.328  54.116  1.00  0.00     0.236 C 
BRANCH  14  15
HETATM   15  N   UNL     1       7.851  24.129  53.993  1.00  0.00    -0.071 N 
HETATM   16  C   UNL     1       8.469  23.694  55.294  1.00  0.00     0.235 C 
HETATM   17  C   UNL     1       9.410  22.517  55.075  1.00  0.00     0.032 C 
HETATM   18  C   UNL     1       8.748  21.339  54.355  1.00  0.00    -0.016 C 
HETATM   19  C   UNL     1       7.754  20.603  55.256  1.00  0.00     0.010 C 
HETATM   20  C   UNL     1       8.092  21.830  53.061  1.00  0.00     0.032 C 
HETATM   21  C   UNL     1       7.139  22.996  53.283  1.00  0.00     0.235 C 
HETATM   22  H   UNL     1       8.602  24.416  53.326  1.00  0.00     0.279 HD
ENDBRANCH  14  15
ENDBRANCH  13  14
ENDBRANCH  12  13
ENDBRANCH   9  12
ENDBRANCH   7   8
ENDBRANCH   6   7
ENDBRANCH   5   6
ENDBRANCH   1   5
BRANCH   2  23
HETATM   23  C   UNL     1       8.077  31.308  61.814  1.00  0.00     0.235 C 
BRANCH  23  24
HETATM   24  N   UNL     1       6.925  32.077  62.248  1.00  0.00    -0.299 N 
HETATM   25  C   UNL     1       6.978  32.715  63.485  1.00  0.00     0.262 C 
HETATM   26  O   UNL     1       7.998  32.754  64.172  1.00  0.00    -0.267 OA
HETATM   27  C   UNL     1       5.738  33.370  63.862  1.00  0.00     0.075 A 
HETATM   28  C   UNL     1       4.731  33.415  62.921  1.00  0.00     0.115 A 
HETATM   29  C   UNL     1       5.354  33.975  65.103  1.00  0.00    -0.026 A 
HETATM   30  S   UNL     1       3.346  34.218  63.507  1.00  0.00    -0.073 SA
HETATM   31  N   UNL     1       4.766  32.892  61.668  1.00  0.00    -0.235 NA
HETATM   32  C   UNL     1       4.057  34.453  65.034  1.00  0.00    -0.008 A 
HETATM   33  C   UNL     1       3.321  35.124  66.154  1.00  0.00     0.047 C 
HETATM   34  C   UNL     1       4.004  34.815  67.495  1.00  0.00     0.005 C 
HETATM   35  C   UNL     1       5.527  34.990  67.406  1.00  0.00     0.005 C 
HETATM   36  C   UNL     1       6.157  34.044  66.369  1.00  0.00     0.041 C 
HETATM   37  C   UNL     1       5.846  32.232  61.398  1.00  0.00     0.214 C 
ENDBRANCH  23  24
ENDBRANCH   2  23
TORSDOF 10
ENDMDL
MODEL 9
REMARK VINA RESULT:      -9.1      2.820      4.692
REMARK  10 active torsions:
REMARK  status: ('A' for Active; 'I' for Inactive)
REMARK    1  A    between atoms: N_5  and  C_7 
REMARK    2  A    between atoms: C_7  and  C_8 
REMARK    3  A    between atoms: C_8  and  C_9 
REMARK    4  A    between atoms: C_9  and  N_10 
REMARK       I    between atoms: N_10  and  C_11 
REMARK    5  A    between atoms: C_11  and  C_12 
REMARK    6  A    between atoms: C_12  and  C_13 
REMARK    7  A    between atoms: C_13  and  C_14 
REMARK    8  A    between atoms: C_14  and  N_15 
REMARK       I    between atoms: N_15  and  C_16 
REMARK    9  A    between atoms: C_16  and  C_17 
REMARK   10  A    between atoms: C_17  and  N_18 
ROOT
HETATM    1  N   UNL     1       5.099  29.657  53.657  1.00  0.00    -0.360 N 
HETATM    2  C   UNL     1       5.382  28.334  53.391  1.00  0.00     0.235 C 
HETATM    3  O   UNL     1       4.524  27.454  53.387  1.00  0.00    -0.272 OA
HETATM    4  H   UNL     1       5.875  30.302  53.806  1.00  0.00     0.162 HD
ENDROOT
BRANCH   1   5
HETATM    5  C   UNL     1       3.742  30.119  53.855  1.00  0.00     0.123 C 
BRANCH   5   6
HETATM    6  C   UNL     1       3.549  30.778  55.221  1.00  0.00     0.029 C 
BRANCH   6   7
HETATM    7  C   UNL     1       3.527  29.741  56.341  1.00  0.00     0.104 C 
BRANCH   7   8
HETATM    8  C   UNL     1       4.095  30.210  57.671  1.00  0.00     0.217 C 
HETATM    9  N   UNL     1       3.191  30.615  58.623  1.00  0.00    -0.361 N 
HETATM   10  H   UNL     1       2.227  30.778  58.351  1.00  0.00     0.162 HD
HETATM   11  O   UNL     1       5.294  30.108  57.944  1.00  0.00    -0.274 OA
BRANCH   9  12
HETATM   12  C   UNL     1       3.613  31.144  59.903  1.00  0.00     0.124 C 
BRANCH  12  13
HETATM   13  C   UNL     1       3.920  32.640  59.868  1.00  0.00     0.047 C 
BRANCH  13  14
HETATM   14  C   UNL     1       5.397  33.043  59.851  1.00  0.00     0.236 C 
BRANCH  14  15
HETATM   15  N   UNL     1       6.346  31.977  60.348  1.00  0.00    -0.071 N 
HETATM   16  C   UNL     1       7.503  31.707  59.423  1.00  0.00     0.235 C 
HETATM   17  C   UNL     1       8.380  30.590  59.971  1.00  0.00     0.032 C 
HETATM   18  C   UNL     1       8.861  30.845  61.402  1.00  0.00    -0.016 C 
HETATM   19  C   UNL     1       9.924  31.945  61.460  1.00  0.00     0.010 C 
HETATM   20  C   UNL     1       7.662  31.160  62.301  1.00  0.00     0.032 C 
HETATM   21  C   UNL     1       6.795  32.288  61.760  1.00  0.00     0.235 C 
HETATM   22  H   UNL     1       5.769  31.113  60.449  1.00  0.00     0.279 HD
ENDBRANCH  14  15
ENDBRANCH  13  14
ENDBRANCH  12  13
ENDBRANCH   9  12
ENDBRANCH   7   8
ENDBRANCH   6   7
ENDBRANCH   5   6
ENDBRANCH   1   5
BRANCH   2  23
HETATM   23  C   UNL     1       6.858  28.020  53.191  1.00  0.00     0.235 C 
BRANCH  23  24
HETATM   24  N   UNL     1       7.221  26.917  54.061  1.00  0.00    -0.299 N 
HETATM   25  C   UNL     1       7.521  25.685  53.484  1.00  0.00     0.262 C 
HETATM   26  O   UNL     1       7.607  25.521  52.268  1.00  0.00    -0.267 OA
HETATM   27  C   UNL     1       7.771  24.630  54.449  1.00  0.00     0.075 A 
HETATM   28  C   UNL     1       7.832  24.986  55.781  1.00  0.00     0.115 A 
HETATM   29  C   UNL     1       7.944  23.220  54.253  1.00  0.00    -0.026 A 
HETATM   30  S   UNL     1       8.138  23.644  56.787  1.00  0.00    -0.073 SA
HETATM   31  N   UNL     1       7.664  26.231  56.296  1.00  0.00    -0.235 NA
HETATM   32  C   UNL     1       8.128  22.576  55.463  1.00  0.00    -0.008 A 
HETATM   33  C   UNL     1       8.316  21.100  55.638  1.00  0.00     0.047 C 
HETATM   34  C   UNL     1       7.835  20.353  54.385  1.00  0.00     0.005 C 
HETATM   35  C   UNL     1       8.356  21.015  53.100  1.00  0.00     0.005 C 
HETATM   36  C   UNL     1       7.864  22.465  52.958  1.00  0.00     0.041 C 
HETATM   37  C   UNL     1       7.346  27.131  55.421  1.00  0.00     0.214 C 
ENDBRANCH  23  24
ENDBRANCH   2  23
TORSDOF 10
ENDMDL
MODEL 10
REMARK VINA RESULT:      -9.1      1.621      2.328
REMARK  10 active torsions:
REMARK  status: ('A' for Active; 'I' for Inactive)
REMARK    1  A    between atoms: N_5  and  C_7 
REMARK    2  A    between atoms: C_7  and  C_8 
REMARK    3  A    between atoms: C_8  and  C_9 
REMARK    4  A    between atoms: C_9  and  N_10 
REMARK       I    between atoms: N_10  and  C_11 
REMARK    5  A    between atoms: C_11  and  C_12 
REMARK    6  A    between atoms: C_12  and  C_13 
REMARK    7  A    between atoms: C_13  and  C_14 
REMARK    8  A    between atoms: C_14  and  N_15 
REMARK       I    between atoms: N_15  and  C_16 
REMARK    9  A    between atoms: C_16  and  C_17 
REMARK   10  A    between atoms: C_17  and  N_18 
ROOT
HETATM    1  N   UNL     1       7.676  30.241  58.393  1.00  0.00    -0.360 N 
HETATM    2  C   UNL     1       7.800  28.968  57.880  1.00  0.00     0.235 C 
HETATM    3  O   UNL     1       8.885  28.409  57.731  1.00  0.00    -0.272 OA
HETATM    4  H   UNL     1       6.769  30.704  58.336  1.00  0.00     0.162 HD
ENDROOT
BRANCH   1   5
HETATM    5  C   UNL     1       8.820  30.976  58.890  1.00  0.00     0.123 C 
BRANCH   5   6
HETATM    6  C   UNL     1       9.103  30.679  60.363  1.00  0.00     0.029 C 
BRANCH   6   7
HETATM    7  C   UNL     1       9.130  31.959  61.194  1.00  0.00     0.104 C 
BRANCH   7   8
HETATM    8  C   UNL     1       7.977  32.123  62.171  1.00  0.00     0.217 C 
HETATM    9  N   UNL     1       8.286  32.620  63.415  1.00  0.00    -0.361 N 
HETATM   10  H   UNL     1       9.258  32.665  63.702  1.00  0.00     0.162 HD
HETATM   11  O   UNL     1       6.803  31.953  61.834  1.00  0.00    -0.274 OA
BRANCH   9  12
HETATM   12  C   UNL     1       7.285  32.759  64.452  1.00  0.00     0.124 C 
BRANCH  12  13
HETATM   13  C   UNL     1       7.104  34.198  64.930  1.00  0.00     0.047 C 
BRANCH  13  14
HETATM   14  C   UNL     1       5.783  34.885  64.575  1.00  0.00     0.236 C 
BRANCH  14  15
HETATM   15  N   UNL     1       5.086  34.318  63.360  1.00  0.00    -0.071 N 
HETATM   16  C   UNL     1       3.616  34.063  63.559  1.00  0.00     0.235 C 
HETATM   17  C   UNL     1       3.003  33.449  62.309  1.00  0.00     0.032 C 
HETATM   18  C   UNL     1       3.256  34.271  61.043  1.00  0.00    -0.016 C 
HETATM   19  C   UNL     1       2.432  35.561  61.025  1.00  0.00     0.010 C 
HETATM   20  C   UNL     1       4.755  34.548  60.900  1.00  0.00     0.032 C 
HETATM   21  C   UNL     1       5.365  35.178  62.144  1.00  0.00     0.235 C 
HETATM   22  H   UNL     1       5.573  33.418  63.151  1.00  0.00     0.279 HD
ENDBRANCH  14  15
ENDBRANCH  13  14
ENDBRANCH  12  13
ENDBRANCH   9  12
ENDBRANCH   7   8
ENDBRANCH   6   7
ENDBRANCH   5   6
ENDBRANCH   1   5
BRANCH   2  23
HETATM   23  C   UNL     1       6.496  28.331  57.419  1.00  0.00     0.235 C 
BRANCH  23  24
HETATM   24  N   UNL     1       6.757  27.546  56.226  1.00  0.00    -0.299 N 
HETATM   25  C   UNL     1       6.826  26.161  56.343  1.00  0.00     0.262 C 
HETATM   26  O   UNL     1       6.558  25.565  57.385  1.00  0.00    -0.267 OA
HETATM   27  C   UNL     1       7.191  25.484  55.111  1.00  0.00     0.075 A 
HETATM   28  C   UNL     1       7.278  26.250  53.967  1.00  0.00     0.115 A 
HETATM   29  C   UNL     1       7.519  24.109  54.874  1.00  0.00    -0.026 A 
HETATM   30  S   UNL     1       7.708  25.316  52.606  1.00  0.00    -0.073 SA
HETATM   31  N   UNL     1       7.073  27.589  53.868  1.00  0.00    -0.235 NA
HETATM   32  C   UNL     1       7.841  23.904  53.544  1.00  0.00    -0.008 A 
HETATM   33  C   UNL     1       8.257  22.595  52.946  1.00  0.00     0.047 C 
HETATM   34  C   UNL     1       8.711  21.629  54.051  1.00  0.00     0.005 C 
HETATM   35  C   UNL     1       7.729  21.621  55.232  1.00  0.00     0.005 C 
HETATM   36  C   UNL     1       7.605  23.006  55.889  1.00  0.00     0.041 C 
HETATM   37  C   UNL     1       6.845  28.176  54.999  1.00  0.00     0.214 C 
ENDBRANCH  23  24
ENDBRANCH   2  23
TORSDOF 10
ENDMDL
