MODEL 1
REMARK VINA RESULT:      -8.6      0.000      0.000
REMARK  3 active torsions:
REMARK  status: ('A' for Active; 'I' for Inactive)
REMARK    1  A    between atoms: C_2  and  N_3 
REMARK       I    between atoms: N_3  and  C_4 
REMARK    2  A    between atoms: C_4  and  C_5 
REMARK    3  A    between atoms: C_5  and  C_6 
ROOT
HETATM    1  C   UNL     1       7.991  24.799  55.603  1.00  0.00     0.286 C 
HETATM    2  N   UNL     1       6.885  24.110  54.809  1.00  0.00    -0.056 N 
HETATM    3  H   UNL     1       6.046  24.149  55.426  1.00  0.00     0.278 HD
HETATM    4  H   UNL     1       6.643  24.642  53.965  1.00  0.00     0.278 HD
HETATM    5  C   UNL     1       7.145  22.665  54.490  1.00  0.00     0.209 C 
HETATM    6  C   UNL     1       7.475  21.905  55.799  1.00  0.00     0.115 C 
HETATM    7  N   UNL     1       8.491  22.577  56.607  1.00  0.00    -0.353 N 
HETATM    8  C   UNL     1       8.533  23.944  56.767  1.00  0.00     0.249 C 
HETATM    9  O   UNL     1       9.077  24.434  57.750  1.00  0.00    -0.271 OA
HETATM   10  C   UNL     1       8.243  22.548  53.430  1.00  0.00     0.035 C 
HETATM   11  C   UNL     1       8.585  21.087  53.157  1.00  0.00     0.002 C 
HETATM   12  C   UNL     1       8.972  20.355  54.440  1.00  0.00     0.002 C 
HETATM   13  C   UNL     1       7.877  20.456  55.501  1.00  0.00     0.027 C 
HETATM   14  H   UNL     1       8.834  22.088  57.432  1.00  0.00     0.163 HD
ENDROOT
BRANCH   1  15
HETATM   15  C   UNL     1       7.538  26.187  56.082  1.00  0.00     0.146 C 
BRANCH  15  16
HETATM   16  C   UNL     1       7.575  27.180  54.949  1.00  0.00     0.224 C 
HETATM   17  N   UNL     1       7.906  28.484  55.129  1.00  0.00    -0.327 N 
HETATM   18  H   UNL     1       7.761  29.025  54.280  1.00  0.00     0.169 HD
HETATM   19  O   UNL     1       7.332  26.773  53.804  1.00  0.00    -0.273 OA
BRANCH  17  20
HETATM   20  C   UNL     1       8.414  29.222  56.217  1.00  0.00     0.034 A 
HETATM   21  C   UNL     1       9.761  29.511  56.445  1.00  0.00     0.031 A 
HETATM   22  C   UNL     1      10.147  30.290  57.546  1.00  0.00     0.026 A 
HETATM   23  C   UNL     1       9.189  30.790  58.422  1.00  0.00     0.034 A 
HETATM   24  C   UNL     1       7.844  30.519  58.206  1.00  0.00     0.026 A 
HETATM   25 CL   UNL     1       9.672  31.752  59.761  1.00  0.00    -0.084 Cl
HETATM   26  C   UNL     1       7.462  29.744  57.107  1.00  0.00     0.031 A 
ENDBRANCH  17  20
ENDBRANCH  15  16
ENDBRANCH   1  15
TORSDOF 3
ENDMDL
MODEL 2
REMARK VINA RESULT:      -8.5      3.827      4.804
REMARK  3 active torsions:
REMARK  status: ('A' for Active; 'I' for Inactive)
REMARK    1  A    between atoms: C_2  and  N_3 
REMARK       I    between atoms: N_3  and  C_4 
REMARK    2  A    between atoms: C_4  and  C_5 
REMARK    3  A    between atoms: C_5  and  C_6 
ROOT
HETATM    1  C   UNL     1       7.934  24.584  55.019  1.00  0.00     0.286 C 
HETATM    2  N   UNL     1       6.869  23.693  54.388  1.00  0.00    -0.056 N 
HETATM    3  H   UNL     1       6.037  23.785  55.009  1.00  0.00     0.278 HD
HETATM    4  H   UNL     1       6.578  24.049  53.469  1.00  0.00     0.278 HD
HETATM    5  C   UNL     1       7.226  22.235  54.322  1.00  0.00     0.209 C 
HETATM    6  C   UNL     1       7.626  21.744  55.735  1.00  0.00     0.115 C 
HETATM    7  N   UNL     1       8.603  22.615  56.386  1.00  0.00    -0.353 N 
HETATM    8  C   UNL     1       8.551  23.988  56.300  1.00  0.00     0.249 C 
HETATM    9  O   UNL     1       9.073  24.681  57.168  1.00  0.00    -0.271 OA
HETATM   10  C   UNL     1       8.314  22.005  53.271  1.00  0.00     0.035 C 
HETATM   11  C   UNL     1       8.755  20.544  53.252  1.00  0.00     0.002 C 
HETATM   12  C   UNL     1       9.210  20.080  54.633  1.00  0.00     0.002 C 
HETATM   13  C   UNL     1       8.125  20.295  55.688  1.00  0.00     0.027 C 
HETATM   14  H   UNL     1       8.991  22.305  57.275  1.00  0.00     0.163 HD
ENDROOT
BRANCH   1  15
HETATM   15  C   UNL     1       7.392  26.002  55.256  1.00  0.00     0.146 C 
BRANCH  15  16
HETATM   16  C   UNL     1       5.898  25.976  55.456  1.00  0.00     0.224 C 
HETATM   17  N   UNL     1       5.024  26.394  54.506  1.00  0.00    -0.327 N 
HETATM   18  H   UNL     1       4.072  26.415  54.860  1.00  0.00     0.169 HD
HETATM   19  O   UNL     1       5.457  25.512  56.518  1.00  0.00    -0.273 OA
BRANCH  17  20
HETATM   20  C   UNL     1       5.159  26.779  53.156  1.00  0.00     0.034 A 
HETATM   21  C   UNL     1       5.117  25.919  52.057  1.00  0.00     0.031 A 
HETATM   22  C   UNL     1       5.225  26.423  50.753  1.00  0.00     0.026 A 
HETATM   23  C   UNL     1       5.369  27.789  50.538  1.00  0.00     0.034 A 
HETATM   24  C   UNL     1       5.406  28.660  51.618  1.00  0.00     0.026 A 
HETATM   25 CL   UNL     1       5.490  28.396  48.935  1.00  0.00    -0.084 Cl
HETATM   26  C   UNL     1       5.296  28.156  52.918  1.00  0.00     0.031 A 
ENDBRANCH  17  20
ENDBRANCH  15  16
ENDBRANCH   1  15
TORSDOF 3
ENDMDL
MODEL 3
REMARK VINA RESULT:      -8.3      3.138      4.188
REMARK  3 active torsions:
REMARK  status: ('A' for Active; 'I' for Inactive)
REMARK    1  A    between atoms: C_2  and  N_3 
REMARK       I    between atoms: N_3  and  C_4 
REMARK    2  A    between atoms: C_4  and  C_5 
REMARK    3  A    between atoms: C_5  and  C_6 
ROOT
HETATM    1  C   UNL     1       6.841  24.441  56.330  1.00  0.00     0.286 C 
HETATM    2  N   UNL     1       8.314  24.065  56.461  1.00  0.00    -0.056 N 
HETATM    3  H   UNL     1       8.837  24.889  56.095  1.00  0.00     0.278 HD
HETATM    4  H   UNL     1       8.589  23.967  57.446  1.00  0.00     0.278 HD
HETATM    5  C   UNL     1       8.732  22.868  55.654  1.00  0.00     0.209 C 
HETATM    6  C   UNL     1       8.321  23.081  54.176  1.00  0.00     0.115 C 
HETATM    7  N   UNL     1       6.928  23.500  54.028  1.00  0.00    -0.353 N 
HETATM    8  C   UNL     1       6.326  24.401  54.877  1.00  0.00     0.249 C 
HETATM    9  O   UNL     1       5.358  25.053  54.500  1.00  0.00    -0.271 OA
HETATM   10  C   UNL     1       8.153  21.591  56.266  1.00  0.00     0.035 C 
HETATM   11  C   UNL     1       8.492  20.374  55.410  1.00  0.00     0.002 C 
HETATM   12  C   UNL     1       8.028  20.559  53.967  1.00  0.00     0.002 C 
HETATM   13  C   UNL     1       8.611  21.827  53.344  1.00  0.00     0.027 C 
HETATM   14  H   UNL     1       6.555  23.563  53.082  1.00  0.00     0.163 HD
ENDROOT
BRANCH   1  15
HETATM   15  C   UNL     1       6.562  25.799  56.994  1.00  0.00     0.146 C 
BRANCH  15  16
HETATM   16  C   UNL     1       7.691  26.763  56.734  1.00  0.00     0.224 C 
HETATM   17  N   UNL     1       7.641  27.702  55.756  1.00  0.00    -0.327 N 
HETATM   18  H   UNL     1       8.533  28.178  55.653  1.00  0.00     0.169 HD
HETATM   19  O   UNL     1       8.683  26.717  57.476  1.00  0.00    -0.273 OA
BRANCH  17  20
HETATM   20  C   UNL     1       6.628  28.156  54.887  1.00  0.00     0.034 A 
HETATM   21  C   UNL     1       5.460  28.816  55.275  1.00  0.00     0.031 A 
HETATM   22  C   UNL     1       4.537  29.256  54.314  1.00  0.00     0.026 A 
HETATM   23  C   UNL     1       4.779  29.046  52.961  1.00  0.00     0.034 A 
HETATM   24  C   UNL     1       5.938  28.398  52.557  1.00  0.00     0.026 A 
HETATM   25 CL   UNL     1       3.648  29.599  51.793  1.00  0.00    -0.084 Cl
HETATM   26  C   UNL     1       6.858  27.961  53.516  1.00  0.00     0.031 A 
ENDBRANCH  17  20
ENDBRANCH  15  16
ENDBRANCH   1  15
TORSDOF 3
ENDMDL
MODEL 4
REMARK VINA RESULT:      -8.2      3.672      7.273
REMARK  3 active torsions:
REMARK  status: ('A' for Active; 'I' for Inactive)
REMARK    1  A    between atoms: C_2  and  N_3 
REMARK       I    between atoms: N_3  and  C_4 
REMARK    2  A    between atoms: C_4  and  C_5 
REMARK    3  A    between atoms: C_5  and  C_6 
ROOT
HETATM    1  C   UNL     1       5.685  26.391  54.307  1.00  0.00     0.286 C 
HETATM    2  N   UNL     1       5.616  25.915  55.754  1.00  0.00    -0.056 N 
HETATM    3  H   UNL     1       4.649  25.543  55.870  1.00  0.00     0.278 HD
HETATM    4  H   UNL     1       6.247  25.122  55.919  1.00  0.00     0.278 HD
HETATM    5  C   UNL     1       5.811  26.994  56.782  1.00  0.00     0.209 C 
HETATM    6  C   UNL     1       4.816  28.148  56.506  1.00  0.00     0.115 C 
HETATM    7  N   UNL     1       4.822  28.582  55.110  1.00  0.00    -0.353 N 
HETATM    8  C   UNL     1       4.914  27.703  54.055  1.00  0.00     0.249 C 
HETATM    9  O   UNL     1       4.486  28.017  52.950  1.00  0.00    -0.271 OA
HETATM   10  C   UNL     1       7.273  27.446  56.800  1.00  0.00     0.035 C 
HETATM   11  C   UNL     1       7.475  28.604  57.774  1.00  0.00     0.002 C 
HETATM   12  C   UNL     1       6.536  29.767  57.460  1.00  0.00     0.002 C 
HETATM   13  C   UNL     1       5.073  29.327  57.452  1.00  0.00     0.027 C 
HETATM   14  H   UNL     1       4.268  29.404  54.872  1.00  0.00     0.163 HD
ENDROOT
BRANCH   1  15
HETATM   15  C   UNL     1       5.243  25.279  53.343  1.00  0.00     0.146 C 
BRANCH  15  16
HETATM   16  C   UNL     1       6.233  25.124  52.217  1.00  0.00     0.224 C 
HETATM   17  N   UNL     1       7.361  24.377  52.332  1.00  0.00    -0.327 N 
HETATM   18  H   UNL     1       7.962  24.485  51.519  1.00  0.00     0.169 HD
HETATM   19  O   UNL     1       5.979  25.668  51.133  1.00  0.00    -0.273 OA
BRANCH  17  20
HETATM   20  C   UNL     1       7.851  23.491  53.312  1.00  0.00     0.034 A 
HETATM   21  C   UNL     1       8.330  23.856  54.572  1.00  0.00     0.031 A 
HETATM   22  C   UNL     1       8.758  22.879  55.483  1.00  0.00     0.026 A 
HETATM   23  C   UNL     1       8.705  21.531  55.143  1.00  0.00     0.034 A 
HETATM   24  C   UNL     1       8.225  21.149  53.898  1.00  0.00     0.026 A 
HETATM   25 CL   UNL     1       9.221  20.342  56.271  1.00  0.00    -0.084 Cl
HETATM   26  C   UNL     1       7.796  22.125  52.991  1.00  0.00     0.031 A 
ENDBRANCH  17  20
ENDBRANCH  15  16
ENDBRANCH   1  15
TORSDOF 3
ENDMDL
MODEL 5
REMARK VINA RESULT:      -8.2      1.678      2.536
REMARK  3 active torsions:
REMARK  status: ('A' for Active; 'I' for Inactive)
REMARK    1  A    between atoms: C_2  and  N_3 
REMARK       I    between atoms: N_3  and  C_4 
REMARK    2  A    between atoms: C_4  and  C_5 
REMARK    3  A    between atoms: C_5  and  C_6 
ROOT
HETATM    1  C   UNL     1       6.606  25.131  54.988  1.00  0.00     0.286 C 
HETATM    2  N   UNL     1       8.090  24.848  55.203  1.00  0.00    -0.056 N 
HETATM    3  H   UNL     1       8.584  25.471  54.529  1.00  0.00     0.278 HD
HETATM    4  H   UNL     1       8.396  25.140  56.139  1.00  0.00     0.278 HD
HETATM    5  C   UNL     1       8.511  23.436  54.905  1.00  0.00     0.209 C 
HETATM    6  C   UNL     1       8.053  23.058  53.475  1.00  0.00     0.115 C 
HETATM    7  N   UNL     1       6.647  23.375  53.226  1.00  0.00    -0.353 N 
HETATM    8  C   UNL     1       6.050  24.528  53.682  1.00  0.00     0.249 C 
HETATM    9  O   UNL     1       5.057  24.974  53.117  1.00  0.00    -0.271 OA
HETATM   10  C   UNL     1       7.978  22.489  55.982  1.00  0.00     0.035 C 
HETATM   11  C   UNL     1       8.319  21.039  55.651  1.00  0.00     0.002 C 
HETATM   12  C   UNL     1       7.809  20.648  54.266  1.00  0.00     0.002 C 
HETATM   13  C   UNL     1       8.345  21.582  53.181  1.00  0.00     0.027 C 
HETATM   14  H   UNL     1       6.245  23.063  52.343  1.00  0.00     0.163 HD
ENDROOT
BRANCH   1  15
HETATM   15  C   UNL     1       6.316  26.637  55.087  1.00  0.00     0.146 C 
BRANCH  15  16
HETATM   16  C   UNL     1       7.370  27.432  54.360  1.00  0.00     0.224 C 
HETATM   17  N   UNL     1       7.898  28.577  54.861  1.00  0.00    -0.327 N 
HETATM   18  H   UNL     1       8.503  29.035  54.184  1.00  0.00     0.169 HD
HETATM   19  O   UNL     1       7.796  26.993  53.282  1.00  0.00    -0.273 OA
BRANCH  17  20
HETATM   20  C   UNL     1       7.800  29.238  56.103  1.00  0.00     0.034 A 
HETATM   21  C   UNL     1       6.664  29.888  56.590  1.00  0.00     0.031 A 
HETATM   22  C   UNL     1       6.672  30.480  57.861  1.00  0.00     0.026 A 
HETATM   23  C   UNL     1       7.811  30.420  58.657  1.00  0.00     0.034 A 
HETATM   24  C   UNL     1       8.947  29.771  58.192  1.00  0.00     0.026 A 
HETATM   25 CL   UNL     1       7.806  31.138  60.217  1.00  0.00    -0.084 Cl
HETATM   26  C   UNL     1       8.937  29.180  56.924  1.00  0.00     0.031 A 
ENDBRANCH  17  20
ENDBRANCH  15  16
ENDBRANCH   1  15
TORSDOF 3
ENDMDL
MODEL 6
REMARK VINA RESULT:      -8.2      3.332      6.998
REMARK  3 active torsions:
REMARK  status: ('A' for Active; 'I' for Inactive)
REMARK    1  A    between atoms: C_2  and  N_3 
REMARK       I    between atoms: N_3  and  C_4 
REMARK    2  A    between atoms: C_4  and  C_5 
REMARK    3  A    between atoms: C_5  and  C_6 
ROOT
HETATM    1  C   UNL     1       5.529  26.273  54.462  1.00  0.00     0.286 C 
HETATM    2  N   UNL     1       6.542  27.304  53.973  1.00  0.00    -0.056 N 
HETATM    3  H   UNL     1       7.371  26.746  53.673  1.00  0.00     0.278 HD
HETATM    4  H   UNL     1       6.207  27.790  53.132  1.00  0.00     0.278 HD
HETATM    5  C   UNL     1       7.007  28.277  55.020  1.00  0.00     0.209 C 
HETATM    6  C   UNL     1       7.529  27.493  56.249  1.00  0.00     0.115 C 
HETATM    7  N   UNL     1       6.599  26.458  56.701  1.00  0.00    -0.353 N 
HETATM    8  C   UNL     1       5.889  25.662  55.831  1.00  0.00     0.249 C 
HETATM    9  O   UNL     1       5.484  24.562  56.192  1.00  0.00    -0.271 OA
HETATM   10  C   UNL     1       5.884  29.259  55.360  1.00  0.00     0.035 C 
HETATM   11  C   UNL     1       6.305  30.200  56.486  1.00  0.00     0.002 C 
HETATM   12  C   UNL     1       6.759  29.425  57.721  1.00  0.00     0.002 C 
HETATM   13  C   UNL     1       7.888  28.448  57.392  1.00  0.00     0.027 C 
HETATM   14  H   UNL     1       6.826  25.968  57.564  1.00  0.00     0.163 HD
ENDROOT
BRANCH   1  15
HETATM   15  C   UNL     1       5.295  25.188  53.399  1.00  0.00     0.146 C 
BRANCH  15  16
HETATM   16  C   UNL     1       6.385  25.215  52.359  1.00  0.00     0.224 C 
HETATM   17  N   UNL     1       7.494  24.437  52.440  1.00  0.00    -0.327 N 
HETATM   18  H   UNL     1       8.169  24.675  51.718  1.00  0.00     0.169 HD
HETATM   19  O   UNL     1       6.236  25.950  51.372  1.00  0.00    -0.273 OA
BRANCH  17  20
HETATM   20  C   UNL     1       7.886  23.379  53.286  1.00  0.00     0.034 A 
HETATM   21  C   UNL     1       7.797  22.019  52.983  1.00  0.00     0.031 A 
HETATM   22  C   UNL     1       8.255  21.054  53.892  1.00  0.00     0.026 A 
HETATM   23  C   UNL     1       8.810  21.442  55.107  1.00  0.00     0.034 A 
HETATM   24  C   UNL     1       8.913  22.790  55.422  1.00  0.00     0.026 A 
HETATM   25 CL   UNL     1       9.378  20.252  56.208  1.00  0.00    -0.084 Cl
HETATM   26  C   UNL     1       8.458  23.751  54.513  1.00  0.00     0.031 A 
ENDBRANCH  17  20
ENDBRANCH  15  16
ENDBRANCH   1  15
TORSDOF 3
ENDMDL
MODEL 7
REMARK VINA RESULT:      -8.2      2.762      4.080
REMARK  3 active torsions:
REMARK  status: ('A' for Active; 'I' for Inactive)
REMARK    1  A    between atoms: C_2  and  N_3 
REMARK       I    between atoms: N_3  and  C_4 
REMARK    2  A    between atoms: C_4  and  C_5 
REMARK    3  A    between atoms: C_5  and  C_6 
ROOT
HETATM    1  C   UNL     1       7.903  27.712  56.773  1.00  0.00     0.286 C 
HETATM    2  N   UNL     1       6.948  28.188  55.682  1.00  0.00    -0.056 N 
HETATM    3  H   UNL     1       6.069  28.438  56.183  1.00  0.00     0.278 HD
HETATM    4  H   UNL     1       7.282  29.055  55.244  1.00  0.00     0.278 HD
HETATM    5  C   UNL     1       6.603  27.151  54.651  1.00  0.00     0.209 C 
HETATM    6  C   UNL     1       6.078  25.879  55.361  1.00  0.00     0.115 C 
HETATM    7  N   UNL     1       6.948  25.437  56.451  1.00  0.00    -0.353 N 
HETATM    8  C   UNL     1       7.558  26.312  57.320  1.00  0.00     0.249 C 
HETATM    9  O   UNL     1       7.896  25.937  58.438  1.00  0.00    -0.271 OA
HETATM   10  C   UNL     1       7.809  26.886  53.747  1.00  0.00     0.035 C 
HETATM   11  C   UNL     1       7.508  25.771  52.749  1.00  0.00     0.002 C 
HETATM   12  C   UNL     1       7.052  24.497  53.456  1.00  0.00     0.002 C 
HETATM   13  C   UNL     1       5.841  24.750  54.353  1.00  0.00     0.027 C 
HETATM   14  H   UNL     1       6.723  24.551  56.901  1.00  0.00     0.163 HD
ENDROOT
BRANCH   1  15
HETATM   15  C   UNL     1       8.010  28.752  57.899  1.00  0.00     0.146 C 
BRANCH  15  16
HETATM   16  C   UNL     1       9.006  29.825  57.543  1.00  0.00     0.224 C 
HETATM   17  N   UNL     1       9.292  30.863  58.369  1.00  0.00    -0.327 N 
HETATM   18  H   UNL     1       9.893  31.545  57.914  1.00  0.00     0.169 HD
HETATM   19  O   UNL     1       9.617  29.725  56.468  1.00  0.00    -0.273 OA
BRANCH  17  20
HETATM   20  C   UNL     1       8.950  31.175  59.700  1.00  0.00     0.034 A 
HETATM   21  C   UNL     1       9.380  30.482  60.834  1.00  0.00     0.031 A 
HETATM   22  C   UNL     1       9.003  30.909  62.116  1.00  0.00     0.026 A 
HETATM   23  C   UNL     1       8.201  32.033  62.274  1.00  0.00     0.034 A 
HETATM   24  C   UNL     1       7.770  32.739  61.158  1.00  0.00     0.026 A 
HETATM   25 CL   UNL     1       7.755  32.554  63.849  1.00  0.00    -0.084 Cl
HETATM   26  C   UNL     1       8.147  32.313  59.881  1.00  0.00     0.031 A 
ENDBRANCH  17  20
ENDBRANCH  15  16
ENDBRANCH   1  15
TORSDOF 3
ENDMDL
MODEL 8
REMARK VINA RESULT:      -8.2      5.097      9.650
REMARK  3 active torsions:
REMARK  status: ('A' for Active; 'I' for Inactive)
REMARK    1  A    between atoms: C_2  and  N_3 
REMARK       I    between atoms: N_3  and  C_4 
REMARK    2  A    between atoms: C_4  and  C_5 
REMARK    3  A    between atoms: C_5  and  C_6 
ROOT
HETATM    1  C   UNL     1       7.172  32.070  60.112  1.00  0.00     0.286 C 
HETATM    2  N   UNL     1       7.421  31.068  61.235  1.00  0.00    -0.056 N 
HETATM    3  H   UNL     1       6.803  30.257  61.016  1.00  0.00     0.278 HD
HETATM    4  H   UNL     1       8.382  30.707  61.210  1.00  0.00     0.278 HD
HETATM    5  C   UNL     1       7.056  31.557  62.609  1.00  0.00     0.209 C 
HETATM    6  C   UNL     1       5.591  32.060  62.598  1.00  0.00     0.115 C 
HETATM    7  N   UNL     1       5.312  32.977  61.494  1.00  0.00    -0.353 N 
HETATM    8  C   UNL     1       5.815  32.793  60.226  1.00  0.00     0.249 C 
HETATM    9  O   UNL     1       5.243  33.283  59.258  1.00  0.00    -0.271 OA
HETATM   10  C   UNL     1       8.057  32.617  63.073  1.00  0.00     0.035 C 
HETATM   11  C   UNL     1       7.653  33.192  64.428  1.00  0.00     0.002 C 
HETATM   12  C   UNL     1       6.230  33.746  64.398  1.00  0.00     0.002 C 
HETATM   13  C   UNL     1       5.222  32.691  63.946  1.00  0.00     0.027 C 
HETATM   14  H   UNL     1       4.400  33.429  61.478  1.00  0.00     0.163 HD
ENDROOT
BRANCH   1  15
HETATM   15  C   UNL     1       7.349  31.406  58.738  1.00  0.00     0.146 C 
BRANCH  15  16
HETATM   16  C   UNL     1       8.807  31.168  58.443  1.00  0.00     0.224 C 
HETATM   17  N   UNL     1       9.245  30.102  57.726  1.00  0.00    -0.327 N 
HETATM   18  H   UNL     1      10.260  30.042  57.731  1.00  0.00     0.169 HD
HETATM   19  O   UNL     1       9.631  32.005  58.840  1.00  0.00    -0.273 OA
BRANCH  17  20
HETATM   20  C   UNL     1       8.600  29.096  56.978  1.00  0.00     0.034 A 
HETATM   21  C   UNL     1       8.416  29.103  55.594  1.00  0.00     0.031 A 
HETATM   22  C   UNL     1       7.790  28.024  54.952  1.00  0.00     0.026 A 
HETATM   23  C   UNL     1       7.349  26.930  55.688  1.00  0.00     0.034 A 
HETATM   24  C   UNL     1       7.530  26.902  57.064  1.00  0.00     0.026 A 
HETATM   25 CL   UNL     1       6.594  25.609  54.890  1.00  0.00    -0.084 Cl
HETATM   26  C   UNL     1       8.156  27.978  57.702  1.00  0.00     0.031 A 
ENDBRANCH  17  20
ENDBRANCH  15  16
ENDBRANCH   1  15
TORSDOF 3
ENDMDL
MODEL 9
REMARK VINA RESULT:      -8.1      5.351      7.905
REMARK  3 active torsions:
REMARK  status: ('A' for Active; 'I' for Inactive)
REMARK    1  A    between atoms: C_2  and  N_3 
REMARK       I    between atoms: N_3  and  C_4 
REMARK    2  A    between atoms: C_4  and  C_5 
REMARK    3  A    between atoms: C_5  and  C_6 
ROOT
HETATM    1  C   UNL     1       4.619  26.939  52.075  1.00  0.00     0.286 C 
HETATM    2  N   UNL     1       5.680  26.757  50.994  1.00  0.00    -0.056 N 
HETATM    3  H   UNL     1       6.460  27.390  51.273  1.00  0.00     0.278 HD
HETATM    4  H   UNL     1       6.067  25.806  51.006  1.00  0.00     0.278 HD
HETATM    5  C   UNL     1       5.246  27.156  49.612  1.00  0.00     0.209 C 
HETATM    6  C   UNL     1       4.700  28.604  49.646  1.00  0.00     0.115 C 
HETATM    7  N   UNL     1       3.723  28.819  50.713  1.00  0.00    -0.353 N 
HETATM    8  C   UNL     1       3.862  28.279  51.971  1.00  0.00     0.249 C 
HETATM    9  O   UNL     1       3.310  28.804  52.932  1.00  0.00    -0.271 OA
HETATM   10  C   UNL     1       4.239  26.142  49.063  1.00  0.00     0.035 C 
HETATM   11  C   UNL     1       3.718  26.576  47.696  1.00  0.00     0.002 C 
HETATM   12  C   UNL     1       3.121  27.981  47.746  1.00  0.00     0.002 C 
HETATM   13  C   UNL     1       4.124  29.002  48.282  1.00  0.00     0.027 C 
HETATM   14  H   UNL     1       3.244  29.718  50.737  1.00  0.00     0.163 HD
ENDROOT
BRANCH   1  15
HETATM   15  C   UNL     1       5.221  26.734  53.474  1.00  0.00     0.146 C 
BRANCH  15  16
HETATM   16  C   UNL     1       6.679  27.113  53.488  1.00  0.00     0.224 C 
HETATM   17  N   UNL     1       7.668  26.210  53.710  1.00  0.00    -0.327 N 
HETATM   18  H   UNL     1       8.573  26.664  53.800  1.00  0.00     0.169 HD
HETATM   19  O   UNL     1       6.982  28.290  53.246  1.00  0.00    -0.273 OA
BRANCH  17  20
HETATM   20  C   UNL     1       7.702  24.805  53.818  1.00  0.00     0.034 A 
HETATM   21  C   UNL     1       7.870  23.911  52.758  1.00  0.00     0.031 A 
HETATM   22  C   UNL     1       7.925  22.529  52.993  1.00  0.00     0.026 A 
HETATM   23  C   UNL     1       7.819  22.032  54.288  1.00  0.00     0.034 A 
HETATM   24  C   UNL     1       7.659  22.906  55.354  1.00  0.00     0.026 A 
HETATM   25 CL   UNL     1       7.900  20.338  54.564  1.00  0.00    -0.084 Cl
HETATM   26  C   UNL     1       7.606  24.284  55.118  1.00  0.00     0.031 A 
ENDBRANCH  17  20
ENDBRANCH  15  16
ENDBRANCH   1  15
TORSDOF 3
ENDMDL
MODEL 10
REMARK VINA RESULT:      -8.0      5.826      7.364
REMARK  3 active torsions:
REMARK  status: ('A' for Active; 'I' for Inactive)
REMARK    1  A    between atoms: C_2  and  N_3 
REMARK       I    between atoms: N_3  and  C_4 
REMARK    2  A    between atoms: C_4  and  C_5 
REMARK    3  A    between atoms: C_5  and  C_6 
ROOT
HETATM    1  C   UNL     1       4.712  27.317  53.343  1.00  0.00     0.286 C 
HETATM    2  N   UNL     1       4.283  25.882  53.052  1.00  0.00    -0.056 N 
HETATM    3  H   UNL     1       3.459  25.717  53.669  1.00  0.00     0.278 HD
HETATM    4  H   UNL     1       3.941  25.781  52.088  1.00  0.00     0.278 HD
HETATM    5  C   UNL     1       5.312  24.838  53.380  1.00  0.00     0.209 C 
HETATM    6  C   UNL     1       5.769  25.016  54.849  1.00  0.00     0.115 C 
HETATM    7  N   UNL     1       6.130  26.397  55.169  1.00  0.00    -0.353 N 
HETATM    8  C   UNL     1       5.421  27.481  54.703  1.00  0.00     0.249 C 
HETATM    9  O   UNL     1       5.455  28.547  55.308  1.00  0.00    -0.271 OA
HETATM   10  C   UNL     1       6.465  24.900  52.376  1.00  0.00     0.035 C 
HETATM   11  C   UNL     1       7.564  23.907  52.744  1.00  0.00     0.002 C 
HETATM   12  C   UNL     1       8.058  24.126  54.172  1.00  0.00     0.002 C 
HETATM   13  C   UNL     1       6.915  24.055  55.184  1.00  0.00     0.027 C 
HETATM   14  H   UNL     1       6.536  26.575  56.086  1.00  0.00     0.163 HD
ENDROOT
BRANCH   1  15
HETATM   15  C   UNL     1       3.526  28.283  53.201  1.00  0.00     0.146 C 
BRANCH  15  16
HETATM   16  C   UNL     1       3.907  29.477  52.364  1.00  0.00     0.224 C 
HETATM   17  N   UNL     1       4.100  29.400  51.023  1.00  0.00    -0.327 N 
HETATM   18  H   UNL     1       4.465  30.272  50.649  1.00  0.00     0.169 HD
HETATM   19  O   UNL     1       4.004  30.579  52.924  1.00  0.00    -0.273 OA
BRANCH  17  20
HETATM   20  C   UNL     1       3.887  28.391  50.062  1.00  0.00     0.034 A 
HETATM   21  C   UNL     1       4.782  27.366  49.747  1.00  0.00     0.031 A 
HETATM   22  C   UNL     1       4.444  26.392  48.796  1.00  0.00     0.026 A 
HETATM   23  C   UNL     1       3.209  26.432  48.158  1.00  0.00     0.034 A 
HETATM   24  C   UNL     1       2.304  27.439  48.464  1.00  0.00     0.026 A 
HETATM   25 CL   UNL     1       2.802  25.227  47.003  1.00  0.00    -0.084 Cl
HETATM   26  C   UNL     1       2.642  28.409  49.414  1.00  0.00     0.031 A 
ENDBRANCH  17  20
ENDBRANCH  15  16
ENDBRANCH   1  15
TORSDOF 3
ENDMDL
