MODEL 1
REMARK VINA RESULT:      -9.4      0.000      0.000
REMARK  6 active torsions:
REMARK  status: ('A' for Active; 'I' for Inactive)
REMARK    1  A    between atoms: C_2  and  C_3 
REMARK    2  A    between atoms: C_3  and  N_4 
REMARK       I    between atoms: N_4  and  C_5 
REMARK    3  A    between atoms: C_5  and  C_6 
REMARK    4  A    between atoms: C_11  and  C_12 
REMARK    5  A    between atoms: C_15  and  O_16 
REMARK    6  A    between atoms: C_21  and  C_22 
ROOT
HETATM    1  C   UNL     1       8.204  29.939  58.276  1.00  0.00     0.170 A 
HETATM    2  N   UNL     1       6.892  29.589  58.252  1.00  0.00    -0.163 NA
HETATM    3  N   UNL     1       6.824  28.690  57.258  1.00  0.00    -0.238 N 
HETATM    4  C   UNL     1       8.026  28.399  56.676  1.00  0.00     0.145 A 
HETATM    5  N   UNL     1       8.123  27.455  55.706  1.00  0.00    -0.365 N 
HETATM    6  C   UNL     1       6.930  26.865  55.105  1.00  0.00     0.118 C 
HETATM    7  C   UNL     1       5.830  26.730  56.174  1.00  0.00     0.066 C 
HETATM    8  C   UNL     1       5.566  28.073  56.877  1.00  0.00     0.221 C 
HETATM    9  C   UNL     1       8.945  29.211  57.302  1.00  0.00     0.115 A 
HETATM   10 CL   UNL     1      10.608  29.295  56.977  1.00  0.00    -0.077 Cl
HETATM   11  H   UNL     1       8.978  27.378  55.153  1.00  0.00     0.162 HD
ENDROOT
BRANCH   6  12
HETATM   12  C   UNL     1       7.246  25.511  54.498  1.00  0.00    -0.035 A 
HETATM   13  C   UNL     1       7.088  24.320  55.220  1.00  0.00     0.012 A 
HETATM   14  C   UNL     1       7.345  23.085  54.618  1.00  0.00     0.037 A 
HETATM   15  C   UNL     1       7.752  23.011  53.286  1.00  0.00     0.068 A 
HETATM   16  C   UNL     1       7.912  24.189  52.558  1.00  0.00     0.037 A 
HETATM   17  C   UNL     1       7.659  25.428  53.159  1.00  0.00     0.012 A 
BRANCH  15  18
HETATM   18  O   UNL     1       7.957  21.742  52.819  1.00  0.00    -0.356 OA
HETATM   19  C   UNL     1       7.891  20.688  53.771  1.00  0.00     0.210 C 
ENDBRANCH  15  18
ENDBRANCH   6  12
BRANCH   8  20
HETATM   20  C   UNL     1       4.768  29.025  56.014  1.00  0.00     0.409 C 
HETATM   21  F   UNL     1       5.545  29.834  55.262  1.00  0.00    -0.169 F 
HETATM   22  F   UNL     1       3.989  28.323  55.150  1.00  0.00    -0.169 F 
HETATM   23  F   UNL     1       3.934  29.806  56.733  1.00  0.00    -0.169 F 
ENDBRANCH   8  20
BRANCH   1  24
HETATM   24  C   UNL     1       8.693  30.950  59.227  1.00  0.00     0.273 C 
HETATM   25  N   UNL     1       8.781  30.475  60.519  1.00  0.00    -0.356 N 
HETATM   26  H   UNL     1       8.447  29.524  60.659  1.00  0.00     0.162 HD
HETATM   27  O   UNL     1       8.983  32.101  58.915  1.00  0.00    -0.266 OA
BRANCH  25  28
HETATM   28  C   UNL     1       9.142  31.302  61.644  1.00  0.00     0.122 C 
BRANCH  28  29
HETATM   29  C   UNL     1       8.036  31.334  62.695  1.00  0.00     0.015 C 
HETATM   30  C   UNL     1       8.034  32.646  63.463  1.00  0.00     0.006 C 
ENDBRANCH  28  29
ENDBRANCH  25  28
ENDBRANCH   1  24
TORSDOF 6
ENDMDL
MODEL 2
REMARK VINA RESULT:      -9.0      1.151      1.465
REMARK  6 active torsions:
REMARK  status: ('A' for Active; 'I' for Inactive)
REMARK    1  A    between atoms: C_2  and  C_3 
REMARK    2  A    between atoms: C_3  and  N_4 
REMARK       I    between atoms: N_4  and  C_5 
REMARK    3  A    between atoms: C_5  and  C_6 
REMARK    4  A    between atoms: C_11  and  C_12 
REMARK    5  A    between atoms: C_15  and  O_16 
REMARK    6  A    between atoms: C_21  and  C_22 
ROOT
HETATM    1  C   UNL     1       6.847  30.130  57.914  1.00  0.00     0.170 A 
HETATM    2  N   UNL     1       5.634  29.650  57.536  1.00  0.00    -0.163 NA
HETATM    3  N   UNL     1       5.938  28.689  56.650  1.00  0.00    -0.238 N 
HETATM    4  C   UNL     1       7.278  28.484  56.477  1.00  0.00     0.145 A 
HETATM    5  N   UNL     1       7.735  27.495  55.666  1.00  0.00    -0.365 N 
HETATM    6  C   UNL     1       6.828  26.753  54.795  1.00  0.00     0.118 C 
HETATM    7  C   UNL     1       5.470  26.576  55.501  1.00  0.00     0.066 C 
HETATM    8  C   UNL     1       4.904  27.927  55.972  1.00  0.00     0.221 C 
HETATM    9  C   UNL     1       7.901  29.421  57.270  1.00  0.00     0.115 A 
HETATM   10 CL   UNL     1       9.572  29.650  57.444  1.00  0.00    -0.077 Cl
HETATM   11  H   UNL     1       8.721  27.470  55.399  1.00  0.00     0.162 HD
ENDROOT
BRANCH   6  12
HETATM   12  C   UNL     1       7.415  25.403  54.432  1.00  0.00    -0.035 A 
HETATM   13  C   UNL     1       7.811  24.479  55.410  1.00  0.00     0.012 A 
HETATM   14  C   UNL     1       8.307  23.225  55.042  1.00  0.00     0.037 A 
HETATM   15  C   UNL     1       8.407  22.862  53.699  1.00  0.00     0.068 A 
HETATM   16  C   UNL     1       8.016  23.773  52.719  1.00  0.00     0.037 A 
HETATM   17  C   UNL     1       7.522  25.031  53.083  1.00  0.00     0.012 A 
BRANCH  15  18
HETATM   18  O   UNL     1       8.896  21.603  53.480  1.00  0.00    -0.356 OA
HETATM   19  C   UNL     1       7.953  20.600  53.124  1.00  0.00     0.210 C 
ENDBRANCH  15  18
ENDBRANCH   6  12
BRANCH   8  20
HETATM   20  C   UNL     1       4.333  28.739  54.830  1.00  0.00     0.409 C 
HETATM   21  F   UNL     1       3.707  27.981  53.905  1.00  0.00    -0.169 F 
HETATM   22  F   UNL     1       3.411  29.617  55.303  1.00  0.00    -0.169 F 
HETATM   23  F   UNL     1       5.270  29.474  54.194  1.00  0.00    -0.169 F 
ENDBRANCH   8  20
BRANCH   1  24
HETATM   24  C   UNL     1       6.947  31.243  58.872  1.00  0.00     0.273 C 
HETATM   25  N   UNL     1       7.304  30.830  60.139  1.00  0.00    -0.356 N 
HETATM   26  H   UNL     1       7.392  29.824  60.263  1.00  0.00     0.162 HD
HETATM   27  O   UNL     1       6.728  32.416  58.587  1.00  0.00    -0.266 OA
BRANCH  25  28
HETATM   28  C   UNL     1       7.374  31.721  61.272  1.00  0.00     0.122 C 
BRANCH  28  29
HETATM   29  C   UNL     1       8.670  31.532  62.054  1.00  0.00     0.015 C 
HETATM   30  C   UNL     1       9.884  31.916  61.223  1.00  0.00     0.006 C 
ENDBRANCH  28  29
ENDBRANCH  25  28
ENDBRANCH   1  24
TORSDOF 6
ENDMDL
MODEL 3
REMARK VINA RESULT:      -8.6      1.746      2.195
REMARK  6 active torsions:
REMARK  status: ('A' for Active; 'I' for Inactive)
REMARK    1  A    between atoms: C_2  and  C_3 
REMARK    2  A    between atoms: C_3  and  N_4 
REMARK       I    between atoms: N_4  and  C_5 
REMARK    3  A    between atoms: C_5  and  C_6 
REMARK    4  A    between atoms: C_11  and  C_12 
REMARK    5  A    between atoms: C_15  and  O_16 
REMARK    6  A    between atoms: C_21  and  C_22 
ROOT
HETATM    1  C   UNL     1       7.083  30.009  57.798  1.00  0.00     0.170 A 
HETATM    2  N   UNL     1       5.848  29.548  57.470  1.00  0.00    -0.163 NA
HETATM    3  N   UNL     1       6.104  28.539  56.622  1.00  0.00    -0.238 N 
HETATM    4  C   UNL     1       7.434  28.288  56.428  1.00  0.00     0.145 A 
HETATM    5  N   UNL     1       7.843  27.251  55.654  1.00  0.00    -0.365 N 
HETATM    6  C   UNL     1       6.895  26.497  54.838  1.00  0.00     0.118 C 
HETATM    7  C   UNL     1       5.551  26.391  55.581  1.00  0.00     0.066 C 
HETATM    8  C   UNL     1       5.034  27.778  56.004  1.00  0.00     0.221 C 
HETATM    9  C   UNL     1       8.101  29.241  57.164  1.00  0.00     0.115 A 
HETATM   10 CL   UNL     1       9.782  29.429  57.289  1.00  0.00    -0.077 Cl
HETATM   11  H   UNL     1       8.821  27.186  55.366  1.00  0.00     0.162 HD
ENDROOT
BRANCH   6  12
HETATM   12  C   UNL     1       7.435  25.115  54.524  1.00  0.00    -0.035 A 
HETATM   13  C   UNL     1       7.425  24.593  53.222  1.00  0.00     0.012 A 
HETATM   14  C   UNL     1       7.971  23.334  52.958  1.00  0.00     0.037 A 
HETATM   15  C   UNL     1       8.547  22.577  53.978  1.00  0.00     0.068 A 
HETATM   16  C   UNL     1       8.563  23.086  55.276  1.00  0.00     0.037 A 
HETATM   17  C   UNL     1       8.014  24.345  55.545  1.00  0.00     0.012 A 
BRANCH  15  18
HETATM   18  O   UNL     1       9.054  21.370  53.580  1.00  0.00    -0.356 OA
HETATM   19  C   UNL     1       8.159  20.483  52.921  1.00  0.00     0.210 C 
ENDBRANCH  15  18
ENDBRANCH   6  12
BRANCH   8  20
HETATM   20  C   UNL     1       4.459  28.554  54.839  1.00  0.00     0.409 C 
HETATM   21  F   UNL     1       3.512  29.441  55.212  1.00  0.00    -0.169 F 
HETATM   22  F   UNL     1       5.441  29.268  54.229  1.00  0.00    -0.169 F 
HETATM   23  F   UNL     1       3.924  27.753  53.892  1.00  0.00    -0.169 F 
ENDBRANCH   8  20
BRANCH   1  24
HETATM   24  C   UNL     1       7.237  31.160  58.702  1.00  0.00     0.273 C 
HETATM   25  N   UNL     1       6.115  31.393  59.471  1.00  0.00    -0.356 N 
HETATM   26  H   UNL     1       5.319  30.790  59.277  1.00  0.00     0.162 HD
HETATM   27  O   UNL     1       8.248  31.852  58.765  1.00  0.00    -0.266 OA
BRANCH  25  28
HETATM   28  C   UNL     1       5.986  32.520  60.363  1.00  0.00     0.122 C 
BRANCH  28  29
HETATM   29  C   UNL     1       4.525  32.805  60.698  1.00  0.00     0.015 C 
HETATM   30  C   UNL     1       3.585  31.979  59.836  1.00  0.00     0.006 C 
ENDBRANCH  28  29
ENDBRANCH  25  28
ENDBRANCH   1  24
TORSDOF 6
ENDMDL
MODEL 4
REMARK VINA RESULT:      -8.5      4.999      9.318
REMARK  6 active torsions:
REMARK  status: ('A' for Active; 'I' for Inactive)
REMARK    1  A    between atoms: C_2  and  C_3 
REMARK    2  A    between atoms: C_3  and  N_4 
REMARK       I    between atoms: N_4  and  C_5 
REMARK    3  A    between atoms: C_5  and  C_6 
REMARK    4  A    between atoms: C_11  and  C_12 
REMARK    5  A    between atoms: C_15  and  O_16 
REMARK    6  A    between atoms: C_21  and  C_22 
ROOT
HETATM    1  C   UNL     1       5.091  26.828  50.289  1.00  0.00     0.170 A 
HETATM    2  N   UNL     1       5.286  25.742  51.081  1.00  0.00    -0.163 NA
HETATM    3  N   UNL     1       5.913  26.244  52.157  1.00  0.00    -0.238 N 
HETATM    4  C   UNL     1       6.084  27.600  52.128  1.00  0.00     0.145 A 
HETATM    5  N   UNL     1       6.638  28.257  53.178  1.00  0.00    -0.365 N 
HETATM    6  C   UNL     1       7.255  27.529  54.283  1.00  0.00     0.118 C 
HETATM    7  C   UNL     1       6.472  26.229  54.542  1.00  0.00     0.066 C 
HETATM    8  C   UNL     1       6.333  25.395  53.256  1.00  0.00     0.221 C 
HETATM    9  C   UNL     1       5.579  28.010  50.914  1.00  0.00     0.115 A 
HETATM   10 CL   UNL     1       5.538  29.599  50.320  1.00  0.00    -0.077 Cl
HETATM   11  H   UNL     1       6.931  29.230  53.073  1.00  0.00     0.162 HD
ENDROOT
BRANCH   6  12
HETATM   12  C   UNL     1       7.291  28.383  55.537  1.00  0.00    -0.035 A 
HETATM   13  C   UNL     1       6.361  29.408  55.763  1.00  0.00     0.012 A 
HETATM   14  C   UNL     1       6.393  30.147  56.948  1.00  0.00     0.037 A 
HETATM   15  C   UNL     1       7.341  29.873  57.935  1.00  0.00     0.068 A 
HETATM   16  C   UNL     1       8.270  28.856  57.721  1.00  0.00     0.037 A 
HETATM   17  C   UNL     1       8.243  28.116  56.533  1.00  0.00     0.012 A 
BRANCH  15  18
HETATM   18  O   UNL     1       7.253  30.662  59.049  1.00  0.00    -0.356 OA
HETATM   19  C   UNL     1       8.362  30.645  59.939  1.00  0.00     0.210 C 
ENDBRANCH  15  18
ENDBRANCH   6  12
BRANCH   8  20
HETATM   20  C   UNL     1       7.618  24.683  52.893  1.00  0.00     0.409 C 
HETATM   21  F   UNL     1       8.407  24.441  53.961  1.00  0.00    -0.169 F 
HETATM   22  F   UNL     1       7.336  23.476  52.336  1.00  0.00    -0.169 F 
HETATM   23  F   UNL     1       8.351  25.362  51.984  1.00  0.00    -0.169 F 
ENDBRANCH   8  20
BRANCH   1  24
HETATM   24  C   UNL     1       4.449  26.689  48.972  1.00  0.00     0.273 C 
HETATM   25  N   UNL     1       3.072  26.713  49.041  1.00  0.00    -0.356 N 
HETATM   26  H   UNL     1       2.681  26.762  49.979  1.00  0.00     0.162 HD
HETATM   27  O   UNL     1       5.065  26.555  47.919  1.00  0.00    -0.266 OA
BRANCH  25  28
HETATM   28  C   UNL     1       2.218  26.500  47.897  1.00  0.00     0.122 C 
BRANCH  28  29
HETATM   29  C   UNL     1       0.945  27.337  47.985  1.00  0.00     0.015 C 
HETATM   30  C   UNL     1       0.367  27.618  46.607  1.00  0.00     0.006 C 
ENDBRANCH  28  29
ENDBRANCH  25  28
ENDBRANCH   1  24
TORSDOF 6
ENDMDL
MODEL 5
REMARK VINA RESULT:      -8.4      3.034      9.124
REMARK  6 active torsions:
REMARK  status: ('A' for Active; 'I' for Inactive)
REMARK    1  A    between atoms: C_2  and  C_3 
REMARK    2  A    between atoms: C_3  and  N_4 
REMARK       I    between atoms: N_4  and  C_5 
REMARK    3  A    between atoms: C_5  and  C_6 
REMARK    4  A    between atoms: C_11  and  C_12 
REMARK    5  A    between atoms: C_15  and  O_16 
REMARK    6  A    between atoms: C_21  and  C_22 
ROOT
HETATM    1  C   UNL     1       7.255  27.969  56.478  1.00  0.00     0.170 A 
HETATM    2  N   UNL     1       8.536  28.104  56.908  1.00  0.00    -0.163 NA
HETATM    3  N   UNL     1       8.481  29.159  57.737  1.00  0.00    -0.238 N 
HETATM    4  C   UNL     1       7.228  29.677  57.909  1.00  0.00     0.145 A 
HETATM    5  N   UNL     1       7.007  30.699  58.774  1.00  0.00    -0.365 N 
HETATM    6  C   UNL     1       8.117  31.416  59.394  1.00  0.00     0.118 C 
HETATM    7  C   UNL     1       9.270  30.434  59.674  1.00  0.00     0.066 C 
HETATM    8  C   UNL     1       9.668  29.662  58.404  1.00  0.00     0.221 C 
HETATM    9  C   UNL     1       6.407  28.938  57.087  1.00  0.00     0.115 A 
HETATM   10 CL   UNL     1       4.737  29.145  56.875  1.00  0.00    -0.077 Cl
HETATM   11  H   UNL     1       6.116  31.197  58.757  1.00  0.00     0.162 HD
ENDROOT
BRANCH   6  12
HETATM   12  C   UNL     1       7.673  32.089  60.679  1.00  0.00    -0.035 A 
HETATM   13  C   UNL     1       6.467  32.799  60.766  1.00  0.00     0.012 A 
HETATM   14  C   UNL     1       6.065  33.370  61.976  1.00  0.00     0.037 A 
HETATM   15  C   UNL     1       6.847  33.236  63.124  1.00  0.00     0.068 A 
HETATM   16  C   UNL     1       8.048  32.533  63.049  1.00  0.00     0.037 A 
HETATM   17  C   UNL     1       8.456  31.963  61.838  1.00  0.00     0.012 A 
BRANCH  15  18
HETATM   18  O   UNL     1       6.331  33.832  64.242  1.00  0.00    -0.356 OA
HETATM   19  C   UNL     1       7.093  33.724  65.438  1.00  0.00     0.210 C 
ENDBRANCH  15  18
ENDBRANCH   6  12
BRANCH   8  20
HETATM   20  C   UNL     1      10.474  30.512  57.446  1.00  0.00     0.409 C 
HETATM   21  F   UNL     1      10.498  31.817  57.791  1.00  0.00    -0.169 F 
HETATM   22  F   UNL     1      11.765  30.091  57.427  1.00  0.00    -0.169 F 
HETATM   23  F   UNL     1      10.026  30.431  56.174  1.00  0.00    -0.169 F 
ENDBRANCH   8  20
BRANCH   1  24
HETATM   24  C   UNL     1       6.896  26.923  55.507  1.00  0.00     0.273 C 
HETATM   25  N   UNL     1       7.055  25.648  56.009  1.00  0.00    -0.356 N 
HETATM   26  H   UNL     1       7.448  25.592  56.946  1.00  0.00     0.162 HD
HETATM   27  O   UNL     1       6.507  27.151  54.366  1.00  0.00    -0.266 OA
BRANCH  25  28
HETATM   28  C   UNL     1       6.859  24.456  55.219  1.00  0.00     0.122 C 
BRANCH  28  29
HETATM   29  C   UNL     1       8.138  24.049  54.494  1.00  0.00     0.015 C 
HETATM   30  C   UNL     1       7.842  23.497  53.109  1.00  0.00     0.006 C 
ENDBRANCH  28  29
ENDBRANCH  25  28
ENDBRANCH   1  24
TORSDOF 6
ENDMDL
MODEL 6
REMARK VINA RESULT:      -8.4      5.301      7.786
REMARK  6 active torsions:
REMARK  status: ('A' for Active; 'I' for Inactive)
REMARK    1  A    between atoms: C_2  and  C_3 
REMARK    2  A    between atoms: C_3  and  N_4 
REMARK       I    between atoms: N_4  and  C_5 
REMARK    3  A    between atoms: C_5  and  C_6 
REMARK    4  A    between atoms: C_11  and  C_12 
REMARK    5  A    between atoms: C_15  and  O_16 
REMARK    6  A    between atoms: C_21  and  C_22 
ROOT
HETATM    1  C   UNL     1       5.004  28.451  50.401  1.00  0.00     0.170 A 
HETATM    2  N   UNL     1       5.596  28.958  51.513  1.00  0.00    -0.163 NA
HETATM    3  N   UNL     1       5.837  27.871  52.265  1.00  0.00    -0.238 N 
HETATM    4  C   UNL     1       5.485  26.689  51.677  1.00  0.00     0.145 A 
HETATM    5  N   UNL     1       5.736  25.503  52.287  1.00  0.00    -0.365 N 
HETATM    6  C   UNL     1       6.198  25.449  53.671  1.00  0.00     0.118 C 
HETATM    7  C   UNL     1       7.127  26.646  53.948  1.00  0.00     0.066 C 
HETATM    8  C   UNL     1       6.452  27.977  53.576  1.00  0.00     0.221 C 
HETATM    9  C   UNL     1       4.919  27.031  50.469  1.00  0.00     0.115 A 
HETATM   10 CL   UNL     1       4.281  25.966  49.313  1.00  0.00    -0.077 Cl
HETATM   11  H   UNL     1       5.306  24.647  51.933  1.00  0.00     0.162 HD
ENDROOT
BRANCH   6  12
HETATM   12  C   UNL     1       6.921  24.144  53.947  1.00  0.00    -0.035 A 
HETATM   13  C   UNL     1       7.113  23.665  55.251  1.00  0.00     0.012 A 
HETATM   14  C   UNL     1       7.744  22.437  55.470  1.00  0.00     0.037 A 
HETATM   15  C   UNL     1       8.183  21.658  54.399  1.00  0.00     0.068 A 
HETATM   16  C   UNL     1       7.997  22.125  53.099  1.00  0.00     0.037 A 
HETATM   17  C   UNL     1       7.369  23.356  52.876  1.00  0.00     0.012 A 
BRANCH  15  18
HETATM   18  O   UNL     1       8.771  20.475  54.753  1.00  0.00    -0.356 OA
HETATM   19  C   UNL     1       9.126  20.318  56.121  1.00  0.00     0.210 C 
ENDBRANCH  15  18
ENDBRANCH   6  12
BRANCH   8  20
HETATM   20  C   UNL     1       5.416  28.399  54.595  1.00  0.00     0.409 C 
HETATM   21  F   UNL     1       4.180  27.932  54.317  1.00  0.00    -0.169 F 
HETATM   22  F   UNL     1       5.748  27.913  55.820  1.00  0.00    -0.169 F 
HETATM   23  F   UNL     1       5.331  29.740  54.726  1.00  0.00    -0.169 F 
ENDBRANCH   8  20
BRANCH   1  24
HETATM   24  C   UNL     1       4.546  29.343  49.324  1.00  0.00     0.273 C 
HETATM   25  N   UNL     1       3.184  29.274  49.112  1.00  0.00    -0.356 N 
HETATM   26  H   UNL     1       2.688  28.586  49.675  1.00  0.00     0.162 HD
HETATM   27  O   UNL     1       5.290  30.067  48.670  1.00  0.00    -0.266 OA
BRANCH  25  28
HETATM   28  C   UNL     1       2.511  29.981  48.050  1.00  0.00     0.122 C 
BRANCH  28  29
HETATM   29  C   UNL     1       2.084  29.036  46.931  1.00  0.00     0.015 C 
HETATM   30  C   UNL     1       1.572  27.715  47.482  1.00  0.00     0.006 C 
ENDBRANCH  28  29
ENDBRANCH  25  28
ENDBRANCH   1  24
TORSDOF 6
ENDMDL
MODEL 7
REMARK VINA RESULT:      -8.2      4.432     10.811
REMARK  6 active torsions:
REMARK  status: ('A' for Active; 'I' for Inactive)
REMARK    1  A    between atoms: C_2  and  C_3 
REMARK    2  A    between atoms: C_3  and  N_4 
REMARK       I    between atoms: N_4  and  C_5 
REMARK    3  A    between atoms: C_5  and  C_6 
REMARK    4  A    between atoms: C_11  and  C_12 
REMARK    5  A    between atoms: C_15  and  O_16 
REMARK    6  A    between atoms: C_21  and  C_22 
ROOT
HETATM    1  C   UNL     1       7.887  31.908  59.989  1.00  0.00     0.170 A 
HETATM    2  N   UNL     1       6.857  32.768  59.781  1.00  0.00    -0.163 NA
HETATM    3  N   UNL     1       6.339  32.943  61.007  1.00  0.00    -0.238 N 
HETATM    4  C   UNL     1       7.010  32.288  62.002  1.00  0.00     0.145 A 
HETATM    5  N   UNL     1       6.645  32.429  63.301  1.00  0.00    -0.365 N 
HETATM    6  C   UNL     1       5.408  33.112  63.668  1.00  0.00     0.118 C 
HETATM    7  C   UNL     1       5.153  34.273  62.688  1.00  0.00     0.066 C 
HETATM    8  C   UNL     1       5.180  33.788  61.228  1.00  0.00     0.221 C 
HETATM    9  C   UNL     1       8.013  31.587  61.371  1.00  0.00     0.115 A 
HETATM   10 CL   UNL     1       9.158  30.575  62.108  1.00  0.00    -0.077 Cl
HETATM   11  H   UNL     1       7.026  31.799  64.009  1.00  0.00     0.162 HD
ENDROOT
BRANCH   6  12
HETATM   12  C   UNL     1       5.480  33.630  65.092  1.00  0.00    -0.035 A 
HETATM   13  C   UNL     1       4.327  33.930  65.831  1.00  0.00     0.012 A 
HETATM   14  C   UNL     1       4.425  34.362  67.156  1.00  0.00     0.037 A 
HETATM   15  C   UNL     1       5.669  34.493  67.774  1.00  0.00     0.068 A 
HETATM   16  C   UNL     1       6.822  34.197  67.049  1.00  0.00     0.037 A 
HETATM   17  C   UNL     1       6.727  33.767  65.720  1.00  0.00     0.012 A 
BRANCH  15  18
HETATM   18  O   UNL     1       5.622  34.913  69.075  1.00  0.00    -0.356 OA
HETATM   19  C   UNL     1       6.781  34.686  69.867  1.00  0.00     0.210 C 
ENDBRANCH  15  18
ENDBRANCH   6  12
BRANCH   8  20
HETATM   20  C   UNL     1       3.920  33.041  60.849  1.00  0.00     0.409 C 
HETATM   21  F   UNL     1       3.986  31.721  61.123  1.00  0.00    -0.169 F 
HETATM   22  F   UNL     1       2.864  33.530  61.550  1.00  0.00    -0.169 F 
HETATM   23  F   UNL     1       3.607  33.176  59.542  1.00  0.00    -0.169 F 
ENDBRANCH   8  20
BRANCH   1  24
HETATM   24  C   UNL     1       8.705  31.432  58.862  1.00  0.00     0.273 C 
HETATM   25  N   UNL     1       8.143  30.354  58.209  1.00  0.00    -0.356 N 
HETATM   26  H   UNL     1       7.283  29.995  58.617  1.00  0.00     0.162 HD
HETATM   27  O   UNL     1       9.779  31.927  58.537  1.00  0.00    -0.266 OA
BRANCH  25  28
HETATM   28  C   UNL     1       8.799  29.650  57.134  1.00  0.00     0.122 C 
BRANCH  28  29
HETATM   29  C   UNL     1       8.661  28.139  57.287  1.00  0.00     0.015 C 
HETATM   30  C   UNL     1       7.205  27.723  57.424  1.00  0.00     0.006 C 
ENDBRANCH  28  29
ENDBRANCH  25  28
ENDBRANCH   1  24
TORSDOF 6
ENDMDL
MODEL 8
REMARK VINA RESULT:      -8.2      3.162      3.805
REMARK  6 active torsions:
REMARK  status: ('A' for Active; 'I' for Inactive)
REMARK    1  A    between atoms: C_2  and  C_3 
REMARK    2  A    between atoms: C_3  and  N_4 
REMARK       I    between atoms: N_4  and  C_5 
REMARK    3  A    between atoms: C_5  and  C_6 
REMARK    4  A    between atoms: C_11  and  C_12 
REMARK    5  A    between atoms: C_15  and  O_16 
REMARK    6  A    between atoms: C_21  and  C_22 
ROOT
HETATM    1  C   UNL     1       7.721  29.812  58.001  1.00  0.00     0.170 A 
HETATM    2  N   UNL     1       8.298  28.590  57.870  1.00  0.00    -0.163 NA
HETATM    3  N   UNL     1       7.630  28.034  56.846  1.00  0.00    -0.238 N 
HETATM    4  C   UNL     1       6.694  28.850  56.274  1.00  0.00     0.145 A 
HETATM    5  N   UNL     1       5.992  28.450  55.184  1.00  0.00    -0.365 N 
HETATM    6  C   UNL     1       6.057  27.071  54.707  1.00  0.00     0.118 C 
HETATM    7  C   UNL     1       7.478  26.521  54.926  1.00  0.00     0.066 C 
HETATM    8  C   UNL     1       7.925  26.689  56.389  1.00  0.00     0.221 C 
HETATM    9  C   UNL     1       6.712  30.009  57.016  1.00  0.00     0.115 A 
HETATM   10 CL   UNL     1       5.741  31.379  56.776  1.00  0.00    -0.077 Cl
HETATM   11  H   UNL     1       5.173  28.982  54.882  1.00  0.00     0.162 HD
ENDROOT
BRANCH   6  12
HETATM   12  C   UNL     1       5.679  26.990  53.241  1.00  0.00    -0.035 A 
HETATM   13  C   UNL     1       5.688  28.119  52.409  1.00  0.00     0.012 A 
HETATM   14  C   UNL     1       5.377  28.003  51.051  1.00  0.00     0.037 A 
HETATM   15  C   UNL     1       5.064  26.763  50.493  1.00  0.00     0.068 A 
HETATM   16  C   UNL     1       5.053  25.634  51.311  1.00  0.00     0.037 A 
HETATM   17  C   UNL     1       5.360  25.747  52.672  1.00  0.00     0.012 A 
BRANCH  15  18
HETATM   18  O   UNL     1       4.793  26.790  49.153  1.00  0.00    -0.356 OA
HETATM   19  C   UNL     1       3.691  26.010  48.705  1.00  0.00     0.210 C 
ENDBRANCH  15  18
ENDBRANCH   6  12
BRANCH   8  20
HETATM   20  C   UNL     1       7.270  25.680  57.307  1.00  0.00     0.409 C 
HETATM   21  F   UNL     1       6.107  26.121  57.832  1.00  0.00    -0.169 F 
HETATM   22  F   UNL     1       6.979  24.547  56.616  1.00  0.00    -0.169 F 
HETATM   23  F   UNL     1       8.070  25.309  58.330  1.00  0.00    -0.169 F 
ENDBRANCH   8  20
BRANCH   1  24
HETATM   24  C   UNL     1       8.158  30.737  59.059  1.00  0.00     0.273 C 
HETATM   25  N   UNL     1       8.359  30.110  60.272  1.00  0.00    -0.356 N 
HETATM   26  H   UNL     1       8.127  29.119  60.296  1.00  0.00     0.162 HD
HETATM   27  O   UNL     1       8.319  31.942  58.894  1.00  0.00    -0.266 OA
BRANCH  25  28
HETATM   28  C   UNL     1       8.697  30.817  61.483  1.00  0.00     0.122 C 
BRANCH  28  29
HETATM   29  C   UNL     1       7.449  31.304  62.214  1.00  0.00     0.015 C 
HETATM   30  C   UNL     1       7.777  32.417  63.196  1.00  0.00     0.006 C 
ENDBRANCH  28  29
ENDBRANCH  25  28
ENDBRANCH   1  24
TORSDOF 6
ENDMDL
MODEL 9
REMARK VINA RESULT:      -8.1      1.200      1.289
REMARK  6 active torsions:
REMARK  status: ('A' for Active; 'I' for Inactive)
REMARK    1  A    between atoms: C_2  and  C_3 
REMARK    2  A    between atoms: C_3  and  N_4 
REMARK       I    between atoms: N_4  and  C_5 
REMARK    3  A    between atoms: C_5  and  C_6 
REMARK    4  A    between atoms: C_11  and  C_12 
REMARK    5  A    between atoms: C_15  and  O_16 
REMARK    6  A    between atoms: C_21  and  C_22 
ROOT
HETATM    1  C   UNL     1       7.396  30.855  58.591  1.00  0.00     0.170 A 
HETATM    2  N   UNL     1       6.120  30.463  58.340  1.00  0.00    -0.163 NA
HETATM    3  N   UNL     1       6.253  29.583  57.335  1.00  0.00    -0.238 N 
HETATM    4  C   UNL     1       7.546  29.343  56.961  1.00  0.00     0.145 A 
HETATM    5  N   UNL     1       7.839  28.423  56.008  1.00  0.00    -0.365 N 
HETATM    6  C   UNL     1       6.786  27.807  55.205  1.00  0.00     0.118 C 
HETATM    7  C   UNL     1       5.527  27.614  56.070  1.00  0.00     0.066 C 
HETATM    8  C   UNL     1       5.100  28.933  56.738  1.00  0.00     0.221 C 
HETATM    9  C   UNL     1       8.316  30.172  57.745  1.00  0.00     0.115 A 
HETATM   10 CL   UNL     1      10.006  30.317  57.709  1.00  0.00    -0.077 Cl
HETATM   11  H   UNL     1       8.778  28.386  55.607  1.00  0.00     0.162 HD
ENDROOT
BRANCH   6  12
HETATM   12  C   UNL     1       7.248  26.477  54.640  1.00  0.00    -0.035 A 
HETATM   13  C   UNL     1       7.251  25.305  55.411  1.00  0.00     0.012 A 
HETATM   14  C   UNL     1       7.640  24.087  54.849  1.00  0.00     0.037 A 
HETATM   15  C   UNL     1       8.023  24.008  53.509  1.00  0.00     0.068 A 
HETATM   16  C   UNL     1       8.024  25.166  52.734  1.00  0.00     0.037 A 
HETATM   17  C   UNL     1       7.638  26.389  53.295  1.00  0.00     0.012 A 
BRANCH  15  18
HETATM   18  O   UNL     1       8.368  22.754  53.084  1.00  0.00    -0.356 OA
HETATM   19  C   UNL     1       7.860  21.659  53.835  1.00  0.00     0.210 C 
ENDBRANCH  15  18
ENDBRANCH   6  12
BRANCH   8  20
HETATM   20  C   UNL     1       4.426  29.876  55.765  1.00  0.00     0.409 C 
HETATM   21  F   UNL     1       5.297  30.496  54.941  1.00  0.00    -0.169 F 
HETATM   22  F   UNL     1       3.566  29.185  54.972  1.00  0.00    -0.169 F 
HETATM   23  F   UNL     1       3.695  30.828  56.384  1.00  0.00    -0.169 F 
ENDBRANCH   8  20
BRANCH   1  24
HETATM   24  C   UNL     1       7.681  31.863  59.625  1.00  0.00     0.273 C 
HETATM   25  N   UNL     1       6.648  32.012  60.528  1.00  0.00    -0.356 N 
HETATM   26  H   UNL     1       5.814  31.462  60.333  1.00  0.00     0.162 HD
HETATM   27  O   UNL     1       8.719  32.514  59.681  1.00  0.00    -0.266 OA
BRANCH  25  28
HETATM   28  C   UNL     1       6.649  33.004  61.576  1.00  0.00     0.122 C 
BRANCH  28  29
HETATM   29  C   UNL     1       6.699  32.359  62.957  1.00  0.00     0.015 C 
HETATM   30  C   UNL     1       8.016  32.648  63.660  1.00  0.00     0.006 C 
ENDBRANCH  28  29
ENDBRANCH  25  28
ENDBRANCH   1  24
TORSDOF 6
ENDMDL
MODEL 10
REMARK VINA RESULT:      -8.1      3.542      4.208
REMARK  6 active torsions:
REMARK  status: ('A' for Active; 'I' for Inactive)
REMARK    1  A    between atoms: C_2  and  C_3 
REMARK    2  A    between atoms: C_3  and  N_4 
REMARK       I    between atoms: N_4  and  C_5 
REMARK    3  A    between atoms: C_5  and  C_6 
REMARK    4  A    between atoms: C_11  and  C_12 
REMARK    5  A    between atoms: C_15  and  O_16 
REMARK    6  A    between atoms: C_21  and  C_22 
ROOT
HETATM    1  C   UNL     1       4.513  29.200  55.501  1.00  0.00     0.170 A 
HETATM    2  N   UNL     1       3.993  28.713  54.345  1.00  0.00    -0.163 NA
HETATM    3  N   UNL     1       4.783  27.665  54.060  1.00  0.00    -0.238 N 
HETATM    4  C   UNL     1       5.748  27.415  54.995  1.00  0.00     0.145 A 
HETATM    5  N   UNL     1       6.574  26.345  54.878  1.00  0.00    -0.365 N 
HETATM    6  C   UNL     1       6.603  25.544  53.658  1.00  0.00     0.118 C 
HETATM    7  C   UNL     1       5.185  25.464  53.063  1.00  0.00     0.066 C 
HETATM    8  C   UNL     1       4.581  26.865  52.866  1.00  0.00     0.221 C 
HETATM    9  C   UNL     1       5.614  28.409  55.938  1.00  0.00     0.115 A 
HETATM   10 CL   UNL     1       6.561  28.617  57.330  1.00  0.00    -0.077 Cl
HETATM   11  H   UNL     1       7.402  26.273  55.472  1.00  0.00     0.162 HD
ENDROOT
BRANCH   6  12
HETATM   12  C   UNL     1       7.137  24.152  53.940  1.00  0.00    -0.035 A 
HETATM   13  C   UNL     1       7.178  23.623  55.238  1.00  0.00     0.012 A 
HETATM   14  C   UNL     1       7.634  22.321  55.459  1.00  0.00     0.037 A 
HETATM   15  C   UNL     1       8.046  21.517  54.395  1.00  0.00     0.068 A 
HETATM   16  C   UNL     1       8.009  22.033  53.101  1.00  0.00     0.037 A 
HETATM   17  C   UNL     1       7.556  23.338  52.876  1.00  0.00     0.012 A 
BRANCH  15  18
HETATM   18  O   UNL     1       8.457  20.261  54.750  1.00  0.00    -0.356 OA
HETATM   19  C   UNL     1       9.028  20.114  56.044  1.00  0.00     0.210 C 
ENDBRANCH  15  18
ENDBRANCH   6  12
BRANCH   8  20
HETATM   20  C   UNL     1       5.167  27.578  51.666  1.00  0.00     0.409 C 
HETATM   21  F   UNL     1       6.180  28.410  51.989  1.00  0.00    -0.169 F 
HETATM   22  F   UNL     1       5.674  26.670  50.792  1.00  0.00    -0.169 F 
HETATM   23  F   UNL     1       4.248  28.294  50.984  1.00  0.00    -0.169 F 
ENDBRANCH   8  20
BRANCH   1  24
HETATM   24  C   UNL     1       3.938  30.396  56.136  1.00  0.00     0.273 C 
HETATM   25  N   UNL     1       4.740  31.511  56.008  1.00  0.00    -0.356 N 
HETATM   26  H   UNL     1       5.637  31.355  55.553  1.00  0.00     0.162 HD
HETATM   27  O   UNL     1       2.864  30.408  56.729  1.00  0.00    -0.266 OA
BRANCH  25  28
HETATM   28  C   UNL     1       4.439  32.779  56.628  1.00  0.00     0.122 C 
BRANCH  28  29
HETATM   29  C   UNL     1       5.137  32.924  57.976  1.00  0.00     0.015 C 
HETATM   30  C   UNL     1       4.168  32.723  59.130  1.00  0.00     0.006 C 
ENDBRANCH  28  29
ENDBRANCH  25  28
ENDBRANCH   1  24
TORSDOF 6
ENDMDL
