MODEL 1
REMARK VINA RESULT:     -10.5      0.000      0.000
REMARK  6 active torsions:
REMARK  status: ('A' for Active; 'I' for Inactive)
REMARK    1  A    between atoms: C_4  and  C_5 
REMARK    2  A    between atoms: C_7  and  S_8 
REMARK    3  A    between atoms: S_8  and  C_9 
REMARK    4  A    between atoms: C_9  and  C_10 
REMARK       I    between atoms: C_10  and  N_11 
REMARK    5  A    between atoms: N_11  and  C_12 
REMARK    6  A    between atoms: C_26  and  C_27 
ROOT
HETATM    1  C   UNL     1       7.475  24.863  55.952  1.00  0.00     0.076 A 
HETATM    2  N   UNL     1       7.405  24.895  54.599  1.00  0.00    -0.239 NA
HETATM    3  C   UNL     1       7.601  23.759  53.891  1.00  0.00     0.116 A 
HETATM    4  C   UNL     1       7.863  22.533  54.504  1.00  0.00     0.095 A 
HETATM    5  C   UNL     1       8.098  21.351  53.728  1.00  0.00     0.103 C 
HETATM    6  N   UNL     1       8.303  20.381  53.126  1.00  0.00    -0.191 NA
HETATM    7  C   UNL     1       7.920  22.492  55.907  1.00  0.00     0.073 A 
HETATM    8  C   UNL     1       7.723  23.679  56.631  1.00  0.00     0.050 A 
ENDROOT
BRANCH   3   9
HETATM    9  S   UNL     1       7.644  23.955  52.107  1.00  0.00    -0.100 SA
BRANCH   9  10
HETATM   10  C   UNL     1       6.930  25.623  51.881  1.00  0.00     0.184 C 
BRANCH  10  11
HETATM   11  C   UNL     1       5.576  25.679  51.177  1.00  0.00     0.231 C 
HETATM   12  N   UNL     1       5.513  26.492  50.062  1.00  0.00    -0.326 N 
HETATM   13  H   UNL     1       6.382  26.953  49.822  1.00  0.00     0.169 HD
HETATM   14  O   UNL     1       4.640  25.015  51.623  1.00  0.00    -0.272 OA
BRANCH  12  15
HETATM   15  C   UNL     1       4.365  26.923  49.370  1.00  0.00     0.037 A 
HETATM   16  C   UNL     1       3.846  26.269  48.247  1.00  0.00     0.061 A 
HETATM   17  C   UNL     1       2.678  26.769  47.717  1.00  0.00     0.065 A 
HETATM   18  C   UNL     1       2.024  27.873  48.256  1.00  0.00     0.063 A 
HETATM   19  N   UNL     1       1.937  26.323  46.628  1.00  0.00    -0.306 N 
HETATM   20  N   UNL     1       0.879  28.106  47.503  1.00  0.00    -0.307 N 
HETATM   21  C   UNL     1       2.509  28.547  49.347  1.00  0.00     0.034 A 
HETATM   22  C   UNL     1       0.811  27.145  46.483  1.00  0.00     0.325 A 
HETATM   23  H   UNL     1       0.191  28.827  47.638  1.00  0.00     0.170 HD
HETATM   24  O   UNL     1      -0.061  27.046  45.637  1.00  0.00    -0.247 OA
HETATM   25  C   UNL     1       3.700  28.061  49.903  1.00  0.00     0.032 A 
HETATM   26  H   UNL     1       2.148  25.543  46.028  1.00  0.00     0.170 HD
ENDBRANCH  12  15
ENDBRANCH  10  11
ENDBRANCH   9  10
ENDBRANCH   3   9
BRANCH   7  27
HETATM   27  C   UNL     1       8.232  21.210  56.635  1.00  0.00     0.419 C 
HETATM   28  F   UNL     1       8.265  21.371  57.982  1.00  0.00    -0.166 F 
HETATM   29  F   UNL     1       7.314  20.242  56.378  1.00  0.00    -0.166 F 
HETATM   30  F   UNL     1       9.437  20.680  56.293  1.00  0.00    -0.166 F 
ENDBRANCH   7  27
BRANCH   1  31
HETATM   31  C   UNL     1       7.312  26.179  56.597  1.00  0.00     0.033 A 
HETATM   32  S   UNL     1       5.843  27.071  56.483  1.00  0.00    -0.100 SA
HETATM   33  C   UNL     1       6.434  28.338  57.461  1.00  0.00     0.050 A 
HETATM   34  C   UNL     1       7.724  28.109  57.875  1.00  0.00     0.008 A 
HETATM   35  C   UNL     1       8.229  26.874  57.374  1.00  0.00     0.021 A 
ENDBRANCH   1  31
TORSDOF 6
ENDMDL
MODEL 2
REMARK VINA RESULT:      -9.9      5.706      8.231
REMARK  6 active torsions:
REMARK  status: ('A' for Active; 'I' for Inactive)
REMARK    1  A    between atoms: C_4  and  C_5 
REMARK    2  A    between atoms: C_7  and  S_8 
REMARK    3  A    between atoms: S_8  and  C_9 
REMARK    4  A    between atoms: C_9  and  C_10 
REMARK       I    between atoms: C_10  and  N_11 
REMARK    5  A    between atoms: N_11  and  C_12 
REMARK    6  A    between atoms: C_26  and  C_27 
ROOT
HETATM    1  C   UNL     1       8.063  30.809  59.298  1.00  0.00     0.076 A 
HETATM    2  N   UNL     1       6.913  30.410  58.703  1.00  0.00    -0.239 NA
HETATM    3  C   UNL     1       6.960  29.803  57.494  1.00  0.00     0.116 A 
HETATM    4  C   UNL     1       8.162  29.552  56.831  1.00  0.00     0.095 A 
HETATM    5  C   UNL     1       8.180  28.935  55.537  1.00  0.00     0.103 C 
HETATM    6  N   UNL     1       8.225  28.447  54.486  1.00  0.00    -0.191 NA
HETATM    7  C   UNL     1       9.358  29.948  57.453  1.00  0.00     0.073 A 
HETATM    8  C   UNL     1       9.296  30.585  58.703  1.00  0.00     0.050 A 
ENDROOT
BRANCH   3   9
HETATM    9  S   UNL     1       5.370  29.467  56.733  1.00  0.00    -0.100 SA
BRANCH   9  10
HETATM   10  C   UNL     1       5.125  27.694  57.109  1.00  0.00     0.184 C 
BRANCH  10  11
HETATM   11  C   UNL     1       5.386  26.725  55.958  1.00  0.00     0.231 C 
HETATM   12  N   UNL     1       6.074  25.574  56.288  1.00  0.00    -0.326 N 
HETATM   13  H   UNL     1       6.319  25.490  57.267  1.00  0.00     0.169 HD
HETATM   14  O   UNL     1       4.979  27.009  54.832  1.00  0.00    -0.272 OA
BRANCH  12  15
HETATM   15  C   UNL     1       6.659  24.636  55.415  1.00  0.00     0.037 A 
HETATM   16  C   UNL     1       7.062  23.356  55.811  1.00  0.00     0.061 A 
HETATM   17  C   UNL     1       7.555  22.525  54.830  1.00  0.00     0.065 A 
HETATM   18  C   UNL     1       7.659  22.918  53.499  1.00  0.00     0.063 A 
HETATM   19  N   UNL     1       8.012  21.215  54.926  1.00  0.00    -0.306 N 
HETATM   20  N   UNL     1       8.175  21.851  52.774  1.00  0.00    -0.307 N 
HETATM   21  C   UNL     1       7.287  24.168  53.076  1.00  0.00     0.034 A 
HETATM   22  C   UNL     1       8.401  20.780  53.651  1.00  0.00     0.325 A 
HETATM   23  H   UNL     1       8.365  21.813  51.787  1.00  0.00     0.170 HD
HETATM   24  O   UNL     1       8.846  19.684  53.360  1.00  0.00    -0.247 OA
HETATM   25  C   UNL     1       6.785  25.035  54.056  1.00  0.00     0.032 A 
HETATM   26  H   UNL     1       8.065  20.649  55.756  1.00  0.00     0.170 HD
ENDBRANCH  12  15
ENDBRANCH  10  11
ENDBRANCH   9  10
ENDBRANCH   3   9
BRANCH   7  27
HETATM   27  C   UNL     1      10.690  29.739  56.780  1.00  0.00     0.419 C 
HETATM   28  F   UNL     1      11.053  28.432  56.737  1.00  0.00    -0.166 F 
HETATM   29  F   UNL     1      10.689  30.189  55.498  1.00  0.00    -0.166 F 
HETATM   30  F   UNL     1      11.711  30.389  57.401  1.00  0.00    -0.166 F 
ENDBRANCH   7  27
BRANCH   1  31
HETATM   31  C   UNL     1       7.868  31.519  60.575  1.00  0.00     0.033 A 
HETATM   32  S   UNL     1       6.406  32.354  60.936  1.00  0.00    -0.100 SA
HETATM   33  C   UNL     1       6.947  32.812  62.488  1.00  0.00     0.050 A 
HETATM   34  C   UNL     1       8.216  32.352  62.746  1.00  0.00     0.008 A 
HETATM   35  C   UNL     1       8.745  31.616  61.646  1.00  0.00     0.021 A 
ENDBRANCH   1  31
TORSDOF 6
ENDMDL
MODEL 3
REMARK VINA RESULT:      -9.7      4.921      9.428
REMARK  6 active torsions:
REMARK  status: ('A' for Active; 'I' for Inactive)
REMARK    1  A    between atoms: C_4  and  C_5 
REMARK    2  A    between atoms: C_7  and  S_8 
REMARK    3  A    between atoms: S_8  and  C_9 
REMARK    4  A    between atoms: C_9  and  C_10 
REMARK       I    between atoms: C_10  and  N_11 
REMARK    5  A    between atoms: N_11  and  C_12 
REMARK    6  A    between atoms: C_26  and  C_27 
ROOT
HETATM    1  C   UNL     1       6.641  25.439  53.269  1.00  0.00     0.076 A 
HETATM    2  N   UNL     1       6.681  25.954  54.522  1.00  0.00    -0.239 NA
HETATM    3  C   UNL     1       7.167  25.205  55.538  1.00  0.00     0.116 A 
HETATM    4  C   UNL     1       7.651  23.910  55.347  1.00  0.00     0.095 A 
HETATM    5  C   UNL     1       8.132  23.127  56.447  1.00  0.00     0.103 C 
HETATM    6  N   UNL     1       8.517  22.467  57.320  1.00  0.00    -0.191 NA
HETATM    7  C   UNL     1       7.628  23.379  54.046  1.00  0.00     0.073 A 
HETATM    8  C   UNL     1       7.113  24.163  53.000  1.00  0.00     0.050 A 
ENDROOT
BRANCH   3   9
HETATM    9  S   UNL     1       7.021  25.929  57.175  1.00  0.00    -0.100 SA
BRANCH   9  10
HETATM   10  C   UNL     1       7.945  27.495  56.991  1.00  0.00     0.184 C 
BRANCH  10  11
HETATM   11  C   UNL     1       7.371  28.700  57.733  1.00  0.00     0.231 C 
HETATM   12  N   UNL     1       8.286  29.475  58.419  1.00  0.00    -0.326 N 
HETATM   13  H   UNL     1       9.247  29.165  58.342  1.00  0.00     0.169 HD
HETATM   14  O   UNL     1       6.160  28.915  57.680  1.00  0.00    -0.272 OA
BRANCH  12  15
HETATM   15  C   UNL     1       8.027  30.480  59.370  1.00  0.00     0.037 A 
HETATM   16  C   UNL     1       6.922  31.337  59.310  1.00  0.00     0.061 A 
HETATM   17  C   UNL     1       6.763  32.226  60.349  1.00  0.00     0.065 A 
HETATM   18  C   UNL     1       7.649  32.290  61.421  1.00  0.00     0.063 A 
HETATM   19  N   UNL     1       5.768  33.174  60.561  1.00  0.00    -0.306 N 
HETATM   20  N   UNL     1       7.198  33.272  62.294  1.00  0.00    -0.307 N 
HETATM   21  C   UNL     1       8.749  31.476  61.507  1.00  0.00     0.034 A 
HETATM   22  C   UNL     1       6.024  33.833  61.771  1.00  0.00     0.325 A 
HETATM   23  H   UNL     1       7.614  33.558  63.165  1.00  0.00     0.170 HD
HETATM   24  O   UNL     1       5.356  34.720  62.273  1.00  0.00    -0.247 OA
HETATM   25  C   UNL     1       8.936  30.564  60.459  1.00  0.00     0.032 A 
HETATM   26  H   UNL     1       4.983  33.374  59.964  1.00  0.00     0.170 HD
ENDBRANCH  12  15
ENDBRANCH  10  11
ENDBRANCH   9  10
ENDBRANCH   3   9
BRANCH   7  27
HETATM   27  C   UNL     1       8.103  21.976  53.771  1.00  0.00     0.419 C 
HETATM   28  F   UNL     1       7.912  21.605  52.479  1.00  0.00    -0.166 F 
HETATM   29  F   UNL     1       9.428  21.826  54.031  1.00  0.00    -0.166 F 
HETATM   30  F   UNL     1       7.468  21.038  54.525  1.00  0.00    -0.166 F 
ENDBRANCH   7  27
BRANCH   1  31
HETATM   31  C   UNL     1       6.025  26.330  52.269  1.00  0.00     0.033 A 
HETATM   32  S   UNL     1       5.888  28.028  52.527  1.00  0.00    -0.100 SA
HETATM   33  C   UNL     1       5.166  28.289  51.003  1.00  0.00     0.050 A 
HETATM   34  C   UNL     1       5.020  27.121  50.296  1.00  0.00     0.008 A 
HETATM   35  C   UNL     1       5.506  25.997  51.026  1.00  0.00     0.021 A 
ENDBRANCH   1  31
TORSDOF 6
ENDMDL
MODEL 4
REMARK VINA RESULT:      -9.6      2.616      4.574
REMARK  6 active torsions:
REMARK  status: ('A' for Active; 'I' for Inactive)
REMARK    1  A    between atoms: C_4  and  C_5 
REMARK    2  A    between atoms: C_7  and  S_8 
REMARK    3  A    between atoms: S_8  and  C_9 
REMARK    4  A    between atoms: C_9  and  C_10 
REMARK       I    between atoms: C_10  and  N_11 
REMARK    5  A    between atoms: N_11  and  C_12 
REMARK    6  A    between atoms: C_26  and  C_27 
ROOT
HETATM    1  C   UNL     1       7.445  23.768  54.465  1.00  0.00     0.076 A 
HETATM    2  N   UNL     1       6.604  24.220  53.504  1.00  0.00    -0.239 NA
HETATM    3  C   UNL     1       6.075  25.461  53.607  1.00  0.00     0.116 A 
HETATM    4  C   UNL     1       6.375  26.315  54.669  1.00  0.00     0.095 A 
HETATM    5  C   UNL     1       5.776  27.614  54.769  1.00  0.00     0.103 C 
HETATM    6  N   UNL     1       5.298  28.664  54.882  1.00  0.00    -0.191 NA
HETATM    7  C   UNL     1       7.260  25.857  55.658  1.00  0.00     0.073 A 
HETATM    8  C   UNL     1       7.797  24.563  55.545  1.00  0.00     0.050 A 
ENDROOT
BRANCH   3   9
HETATM    9  S   UNL     1       4.852  25.889  52.364  1.00  0.00    -0.100 SA
BRANCH   9  10
HETATM   10  C   UNL     1       5.840  26.848  51.160  1.00  0.00     0.184 C 
BRANCH  10  11
HETATM   11  C   UNL     1       5.046  27.609  50.101  1.00  0.00     0.231 C 
HETATM   12  N   UNL     1       3.685  27.372  50.085  1.00  0.00    -0.326 N 
HETATM   13  H   UNL     1       3.358  26.725  50.793  1.00  0.00     0.169 HD
HETATM   14  O   UNL     1       5.640  28.374  49.342  1.00  0.00    -0.272 OA
BRANCH  12  15
HETATM   15  C   UNL     1       2.756  27.732  49.091  1.00  0.00     0.037 A 
HETATM   16  C   UNL     1       2.327  26.863  48.081  1.00  0.00     0.061 A 
HETATM   17  C   UNL     1       1.362  27.334  47.219  1.00  0.00     0.065 A 
HETATM   18  C   UNL     1       0.823  28.613  47.326  1.00  0.00     0.063 A 
HETATM   19  N   UNL     1       0.747  26.700  46.145  1.00  0.00    -0.306 N 
HETATM   20  N   UNL     1      -0.126  28.766  46.324  1.00  0.00    -0.307 N 
HETATM   21  C   UNL     1       1.228  29.496  48.294  1.00  0.00     0.034 A 
HETATM   22  C   UNL     1      -0.186  27.579  45.578  1.00  0.00     0.325 A 
HETATM   23  H   UNL     1      -0.696  29.573  46.135  1.00  0.00     0.170 HD
HETATM   24  O   UNL     1      -0.910  27.357  44.623  1.00  0.00    -0.247 OA
HETATM   25  C   UNL     1       2.213  29.042  49.182  1.00  0.00     0.032 A 
HETATM   26  H   UNL     1       0.921  25.767  45.810  1.00  0.00     0.170 HD
ENDBRANCH  12  15
ENDBRANCH  10  11
ENDBRANCH   9  10
ENDBRANCH   3   9
BRANCH   7  27
HETATM   27  C   UNL     1       7.603  26.711  56.851  1.00  0.00     0.419 C 
HETATM   28  F   UNL     1       8.344  26.046  57.773  1.00  0.00    -0.166 F 
HETATM   29  F   UNL     1       8.312  27.816  56.500  1.00  0.00    -0.166 F 
HETATM   30  F   UNL     1       6.506  27.169  57.514  1.00  0.00    -0.166 F 
ENDBRANCH   7  27
BRANCH   1  31
HETATM   31  C   UNL     1       7.894  22.378  54.269  1.00  0.00     0.033 A 
HETATM   32  S   UNL     1       8.345  21.373  55.594  1.00  0.00    -0.100 SA
HETATM   33  C   UNL     1       8.661  20.034  54.585  1.00  0.00     0.050 A 
HETATM   34  C   UNL     1       8.437  20.324  53.261  1.00  0.00     0.008 A 
HETATM   35  C   UNL     1       8.005  21.670  53.081  1.00  0.00     0.021 A 
ENDBRANCH   1  31
TORSDOF 6
ENDMDL
MODEL 5
REMARK VINA RESULT:      -9.5      6.706      9.889
REMARK  6 active torsions:
REMARK  status: ('A' for Active; 'I' for Inactive)
REMARK    1  A    between atoms: C_4  and  C_5 
REMARK    2  A    between atoms: C_7  and  S_8 
REMARK    3  A    between atoms: S_8  and  C_9 
REMARK    4  A    between atoms: C_9  and  C_10 
REMARK       I    between atoms: C_10  and  N_11 
REMARK    5  A    between atoms: N_11  and  C_12 
REMARK    6  A    between atoms: C_26  and  C_27 
ROOT
HETATM    1  C   UNL     1       5.452  32.652  60.776  1.00  0.00     0.076 A 
HETATM    2  N   UNL     1       5.225  32.136  59.543  1.00  0.00    -0.239 NA
HETATM    3  C   UNL     1       6.223  31.498  58.890  1.00  0.00     0.116 A 
HETATM    4  C   UNL     1       7.493  31.333  59.445  1.00  0.00     0.095 A 
HETATM    5  C   UNL     1       8.541  30.679  58.717  1.00  0.00     0.103 C 
HETATM    6  N   UNL     1       9.411  30.165  58.148  1.00  0.00    -0.191 NA
HETATM    7  C   UNL     1       7.727  31.850  60.729  1.00  0.00     0.073 A 
HETATM    8  C   UNL     1       6.686  32.518  61.395  1.00  0.00     0.050 A 
ENDROOT
BRANCH   3   9
HETATM    9  S   UNL     1       5.854  31.001  57.205  1.00  0.00    -0.100 SA
BRANCH   9  10
HETATM   10  C   UNL     1       5.409  29.239  57.407  1.00  0.00     0.184 C 
BRANCH  10  11
HETATM   11  C   UNL     1       6.276  28.241  56.644  1.00  0.00     0.231 C 
HETATM   12  N   UNL     1       6.002  26.907  56.877  1.00  0.00    -0.326 N 
HETATM   13  H   UNL     1       5.241  26.736  57.523  1.00  0.00     0.169 HD
HETATM   14  O   UNL     1       7.145  28.662  55.880  1.00  0.00    -0.272 OA
BRANCH  12  15
HETATM   15  C   UNL     1       6.777  25.789  56.515  1.00  0.00     0.037 A 
HETATM   16  C   UNL     1       6.519  25.000  55.388  1.00  0.00     0.061 A 
HETATM   17  C   UNL     1       7.404  23.980  55.123  1.00  0.00     0.065 A 
HETATM   18  C   UNL     1       8.513  23.723  55.926  1.00  0.00     0.063 A 
HETATM   19  N   UNL     1       7.408  23.057  54.082  1.00  0.00    -0.306 N 
HETATM   20  N   UNL     1       9.201  22.648  55.378  1.00  0.00    -0.307 N 
HETATM   21  C   UNL     1       8.790  24.466  57.045  1.00  0.00     0.034 A 
HETATM   22  C   UNL     1       8.524  22.221  54.226  1.00  0.00     0.325 A 
HETATM   23  H   UNL     1      10.046  22.222  55.719  1.00  0.00     0.170 HD
HETATM   24  O   UNL     1       8.845  21.302  53.493  1.00  0.00    -0.247 OA
HETATM   25  C   UNL     1       7.901  25.508  57.339  1.00  0.00     0.032 A 
HETATM   26  H   UNL     1       6.737  22.981  53.336  1.00  0.00     0.170 HD
ENDBRANCH  12  15
ENDBRANCH  10  11
ENDBRANCH   9  10
ENDBRANCH   3   9
BRANCH   7  27
HETATM   27  C   UNL     1       9.083  31.737  61.377  1.00  0.00     0.419 C 
HETATM   28  F   UNL     1      10.061  32.326  60.643  1.00  0.00    -0.166 F 
HETATM   29  F   UNL     1       9.111  32.317  62.606  1.00  0.00    -0.166 F 
HETATM   30  F   UNL     1       9.482  30.450  61.564  1.00  0.00    -0.166 F 
ENDBRANCH   7  27
BRANCH   1  31
HETATM   31  C   UNL     1       4.305  33.381  61.347  1.00  0.00     0.033 A 
HETATM   32  S   UNL     1       3.272  34.355  60.372  1.00  0.00    -0.100 SA
HETATM   33  C   UNL     1       2.268  34.764  61.691  1.00  0.00     0.050 A 
HETATM   34  C   UNL     1       2.695  34.183  62.860  1.00  0.00     0.008 A 
HETATM   35  C   UNL     1       3.867  33.396  62.663  1.00  0.00     0.021 A 
ENDBRANCH   1  31
TORSDOF 6
ENDMDL
MODEL 6
REMARK VINA RESULT:      -9.5      6.868      9.887
REMARK  6 active torsions:
REMARK  status: ('A' for Active; 'I' for Inactive)
REMARK    1  A    between atoms: C_4  and  C_5 
REMARK    2  A    between atoms: C_7  and  S_8 
REMARK    3  A    between atoms: S_8  and  C_9 
REMARK    4  A    between atoms: C_9  and  C_10 
REMARK       I    between atoms: C_10  and  N_11 
REMARK    5  A    between atoms: N_11  and  C_12 
REMARK    6  A    between atoms: C_26  and  C_27 
ROOT
HETATM    1  C   UNL     1       7.977  31.494  59.239  1.00  0.00     0.076 A 
HETATM    2  N   UNL     1       6.860  31.906  58.592  1.00  0.00    -0.239 NA
HETATM    3  C   UNL     1       5.902  32.578  59.272  1.00  0.00     0.116 A 
HETATM    4  C   UNL     1       6.022  32.882  60.628  1.00  0.00     0.095 A 
HETATM    5  C   UNL     1       4.977  33.568  61.331  1.00  0.00     0.103 C 
HETATM    6  N   UNL     1       4.144  34.111  61.927  1.00  0.00    -0.191 NA
HETATM    7  C   UNL     1       7.187  32.472  61.298  1.00  0.00     0.073 A 
HETATM    8  C   UNL     1       8.171  31.768  60.585  1.00  0.00     0.050 A 
ENDROOT
BRANCH   3   9
HETATM    9  S   UNL     1       4.400  32.929  58.352  1.00  0.00    -0.100 SA
BRANCH   9  10
HETATM   10  C   UNL     1       3.475  31.359  58.502  1.00  0.00     0.184 C 
BRANCH  10  11
HETATM   11  C   UNL     1       3.732  30.326  57.408  1.00  0.00     0.231 C 
HETATM   12  N   UNL     1       4.715  29.394  57.681  1.00  0.00    -0.326 N 
HETATM   13  H   UNL     1       5.151  29.490  58.590  1.00  0.00     0.169 HD
HETATM   14  O   UNL     1       3.068  30.372  56.372  1.00  0.00    -0.272 OA
BRANCH  12  15
HETATM   15  C   UNL     1       5.326  28.495  56.786  1.00  0.00     0.037 A 
HETATM   16  C   UNL     1       5.261  27.103  56.922  1.00  0.00     0.061 A 
HETATM   17  C   UNL     1       5.849  26.350  55.931  1.00  0.00     0.065 A 
HETATM   18  C   UNL     1       6.488  26.924  54.835  1.00  0.00     0.063 A 
HETATM   19  N   UNL     1       5.930  24.969  55.797  1.00  0.00    -0.306 N 
HETATM   20  N   UNL     1       6.955  25.897  54.024  1.00  0.00    -0.307 N 
HETATM   21  C   UNL     1       6.582  28.283  54.675  1.00  0.00     0.034 A 
HETATM   22  C   UNL     1       6.614  24.670  54.611  1.00  0.00     0.325 A 
HETATM   23  H   UNL     1       7.455  25.981  53.154  1.00  0.00     0.170 HD
HETATM   24  O   UNL     1       6.864  23.561  54.173  1.00  0.00    -0.247 OA
HETATM   25  C   UNL     1       5.994  29.072  55.672  1.00  0.00     0.032 A 
HETATM   26  H   UNL     1       5.564  24.275  56.429  1.00  0.00     0.170 HD
ENDBRANCH  12  15
ENDBRANCH  10  11
ENDBRANCH   9  10
ENDBRANCH   3   9
BRANCH   7  27
HETATM   27  C   UNL     1       7.370  32.737  62.770  1.00  0.00     0.419 C 
HETATM   28  F   UNL     1       6.520  32.010  63.540  1.00  0.00    -0.166 F 
HETATM   29  F   UNL     1       8.629  32.442  63.188  1.00  0.00    -0.166 F 
HETATM   30  F   UNL     1       7.161  34.038  63.111  1.00  0.00    -0.166 F 
ENDBRANCH   7  27
BRANCH   1  31
HETATM   31  C   UNL     1       8.907  30.715  58.402  1.00  0.00     0.033 A 
HETATM   32  S   UNL     1      10.480  31.296  58.008  1.00  0.00    -0.100 SA
HETATM   33  C   UNL     1      10.875  29.889  57.128  1.00  0.00     0.050 A 
HETATM   34  C   UNL     1       9.843  28.982  57.118  1.00  0.00     0.008 A 
HETATM   35  C   UNL     1       8.713  29.460  57.843  1.00  0.00     0.021 A 
ENDBRANCH   1  31
TORSDOF 6
ENDMDL
MODEL 7
REMARK VINA RESULT:      -9.2      4.509      7.447
REMARK  6 active torsions:
REMARK  status: ('A' for Active; 'I' for Inactive)
REMARK    1  A    between atoms: C_4  and  C_5 
REMARK    2  A    between atoms: C_7  and  S_8 
REMARK    3  A    between atoms: S_8  and  C_9 
REMARK    4  A    between atoms: C_9  and  C_10 
REMARK       I    between atoms: C_10  and  N_11 
REMARK    5  A    between atoms: N_11  and  C_12 
REMARK    6  A    between atoms: C_26  and  C_27 
ROOT
HETATM    1  C   UNL     1       6.503  25.063  53.272  1.00  0.00     0.076 A 
HETATM    2  N   UNL     1       6.467  25.493  54.556  1.00  0.00    -0.239 NA
HETATM    3  C   UNL     1       6.943  24.699  55.542  1.00  0.00     0.116 A 
HETATM    4  C   UNL     1       7.492  23.441  55.288  1.00  0.00     0.095 A 
HETATM    5  C   UNL     1       7.962  22.607  56.356  1.00  0.00     0.103 C 
HETATM    6  N   UNL     1       8.338  21.907  57.200  1.00  0.00    -0.191 NA
HETATM    7  C   UNL     1       7.549  22.999  53.956  1.00  0.00     0.073 A 
HETATM    8  C   UNL     1       7.043  23.829  52.942  1.00  0.00     0.050 A 
ENDROOT
BRANCH   3   9
HETATM    9  S   UNL     1       6.695  25.304  57.214  1.00  0.00    -0.100 SA
BRANCH   9  10
HETATM   10  C   UNL     1       8.041  26.529  57.388  1.00  0.00     0.184 C 
BRANCH  10  11
HETATM   11  C   UNL     1       7.603  27.975  57.606  1.00  0.00     0.231 C 
HETATM   12  N   UNL     1       6.371  28.315  57.082  1.00  0.00    -0.326 N 
HETATM   13  H   UNL     1       5.882  27.557  56.620  1.00  0.00     0.169 HD
HETATM   14  O   UNL     1       8.346  28.740  58.221  1.00  0.00    -0.272 OA
BRANCH  12  15
HETATM   15  C   UNL     1       5.827  29.602  56.916  1.00  0.00     0.037 A 
HETATM   16  C   UNL     1       5.879  30.598  57.899  1.00  0.00     0.061 A 
HETATM   17  C   UNL     1       5.364  31.831  57.568  1.00  0.00     0.065 A 
HETATM   18  C   UNL     1       4.810  32.100  56.319  1.00  0.00     0.063 A 
HETATM   19  N   UNL     1       5.292  32.994  58.327  1.00  0.00    -0.306 N 
HETATM   20  N   UNL     1       4.402  33.428  56.307  1.00  0.00    -0.307 N 
HETATM   21  C   UNL     1       4.730  31.147  55.337  1.00  0.00     0.034 A 
HETATM   22  C   UNL     1       4.697  34.000  57.553  1.00  0.00     0.325 A 
HETATM   23  H   UNL     1       3.969  33.930  55.550  1.00  0.00     0.170 HD
HETATM   24  O   UNL     1       4.479  35.149  57.894  1.00  0.00    -0.247 OA
HETATM   25  C   UNL     1       5.243  29.881  55.650  1.00  0.00     0.032 A 
HETATM   26  H   UNL     1       5.608  33.122  59.273  1.00  0.00     0.170 HD
ENDBRANCH  12  15
ENDBRANCH  10  11
ENDBRANCH   9  10
ENDBRANCH   3   9
BRANCH   7  27
HETATM   27  C   UNL     1       8.098  21.639  53.612  1.00  0.00     0.419 C 
HETATM   28  F   UNL     1       7.991  21.354  52.289  1.00  0.00    -0.166 F 
HETATM   29  F   UNL     1       9.413  21.523  53.933  1.00  0.00    -0.166 F 
HETATM   30  F   UNL     1       7.465  20.625  54.263  1.00  0.00    -0.166 F 
ENDBRANCH   7  27
BRANCH   1  31
HETATM   31  C   UNL     1       5.890  25.992  52.305  1.00  0.00     0.033 A 
HETATM   32  S   UNL     1       5.912  27.698  52.546  1.00  0.00    -0.100 SA
HETATM   33  C   UNL     1       5.104  28.004  51.074  1.00  0.00     0.050 A 
HETATM   34  C   UNL     1       4.811  26.845  50.398  1.00  0.00     0.008 A 
HETATM   35  C   UNL     1       5.256  25.691  51.108  1.00  0.00     0.021 A 
ENDBRANCH   1  31
TORSDOF 6
ENDMDL
MODEL 8
REMARK VINA RESULT:      -9.2      5.232     10.166
REMARK  6 active torsions:
REMARK  status: ('A' for Active; 'I' for Inactive)
REMARK    1  A    between atoms: C_4  and  C_5 
REMARK    2  A    between atoms: C_7  and  S_8 
REMARK    3  A    between atoms: S_8  and  C_9 
REMARK    4  A    between atoms: C_9  and  C_10 
REMARK       I    between atoms: C_10  and  N_11 
REMARK    5  A    between atoms: N_11  and  C_12 
REMARK    6  A    between atoms: C_26  and  C_27 
ROOT
HETATM    1  C   UNL     1       5.860  26.483  51.900  1.00  0.00     0.076 A 
HETATM    2  N   UNL     1       5.633  27.302  52.956  1.00  0.00    -0.239 NA
HETATM    3  C   UNL     1       6.049  26.933  54.189  1.00  0.00     0.116 A 
HETATM    4  C   UNL     1       6.725  25.735  54.423  1.00  0.00     0.095 A 
HETATM    5  C   UNL     1       7.127  25.356  55.746  1.00  0.00     0.103 C 
HETATM    6  N   UNL     1       7.454  25.018  56.806  1.00  0.00    -0.191 NA
HETATM    7  C   UNL     1       6.978  24.892  53.328  1.00  0.00     0.073 A 
HETATM    8  C   UNL     1       6.534  25.281  52.053  1.00  0.00     0.050 A 
ENDROOT
BRANCH   3   9
HETATM    9  S   UNL     1       5.552  28.018  55.531  1.00  0.00    -0.100 SA
BRANCH   9  10
HETATM   10  C   UNL     1       7.136  28.796  56.009  1.00  0.00     0.184 C 
BRANCH  10  11
HETATM   11  C   UNL     1       7.341  29.026  57.505  1.00  0.00     0.231 C 
HETATM   12  N   UNL     1       7.157  30.322  57.944  1.00  0.00    -0.326 N 
HETATM   13  H   UNL     1       6.889  30.981  57.223  1.00  0.00     0.169 HD
HETATM   14  O   UNL     1       7.648  28.073  58.221  1.00  0.00    -0.272 OA
BRANCH  12  15
HETATM   15  C   UNL     1       7.507  30.871  59.193  1.00  0.00     0.037 A 
HETATM   16  C   UNL     1       6.685  31.746  59.912  1.00  0.00     0.061 A 
HETATM   17  C   UNL     1       7.132  32.146  61.151  1.00  0.00     0.065 A 
HETATM   18  C   UNL     1       8.343  31.715  61.686  1.00  0.00     0.063 A 
HETATM   19  N   UNL     1       6.531  32.988  62.081  1.00  0.00    -0.306 N 
HETATM   20  N   UNL     1       8.486  32.286  62.944  1.00  0.00    -0.307 N 
HETATM   21  C   UNL     1       9.180  30.868  61.005  1.00  0.00     0.034 A 
HETATM   22  C   UNL     1       7.362  33.083  63.205  1.00  0.00     0.325 A 
HETATM   23  H   UNL     1       9.250  32.168  63.589  1.00  0.00     0.170 HD
HETATM   24  O   UNL     1       7.150  33.731  64.215  1.00  0.00    -0.247 OA
HETATM   25  C   UNL     1       8.750  30.449  59.738  1.00  0.00     0.032 A 
HETATM   26  H   UNL     1       5.648  33.461  61.990  1.00  0.00     0.170 HD
ENDBRANCH  12  15
ENDBRANCH  10  11
ENDBRANCH   9  10
ENDBRANCH   3   9
BRANCH   7  27
HETATM   27  C   UNL     1       7.672  23.568  53.511  1.00  0.00     0.419 C 
HETATM   28  F   UNL     1       8.894  23.696  54.090  1.00  0.00    -0.166 F 
HETATM   29  F   UNL     1       6.954  22.720  54.293  1.00  0.00    -0.166 F 
HETATM   30  F   UNL     1       7.882  22.907  52.341  1.00  0.00    -0.166 F 
ENDBRANCH   7  27
BRANCH   1  31
HETATM   31  C   UNL     1       5.296  26.968  50.627  1.00  0.00     0.033 A 
HETATM   32  S   UNL     1       5.416  28.619  50.150  1.00  0.00    -0.100 SA
HETATM   33  C   UNL     1       4.619  28.341  48.668  1.00  0.00     0.050 A 
HETATM   34  C   UNL     1       4.256  27.024  48.519  1.00  0.00     0.008 A 
HETATM   35  C   UNL     1       4.638  26.240  49.646  1.00  0.00     0.021 A 
ENDBRANCH   1  31
TORSDOF 6
ENDMDL
MODEL 9
REMARK VINA RESULT:      -9.1      3.061      4.775
REMARK  6 active torsions:
REMARK  status: ('A' for Active; 'I' for Inactive)
REMARK    1  A    between atoms: C_4  and  C_5 
REMARK    2  A    between atoms: C_7  and  S_8 
REMARK    3  A    between atoms: S_8  and  C_9 
REMARK    4  A    between atoms: C_9  and  C_10 
REMARK       I    between atoms: C_10  and  N_11 
REMARK    5  A    between atoms: N_11  and  C_12 
REMARK    6  A    between atoms: C_26  and  C_27 
ROOT
HETATM    1  C   UNL     1       7.491  23.644  55.033  1.00  0.00     0.076 A 
HETATM    2  N   UNL     1       6.559  23.825  54.067  1.00  0.00    -0.239 NA
HETATM    3  C   UNL     1       5.973  25.036  53.921  1.00  0.00     0.116 A 
HETATM    4  C   UNL     1       6.303  26.127  54.725  1.00  0.00     0.095 A 
HETATM    5  C   UNL     1       5.643  27.391  54.569  1.00  0.00     0.103 C 
HETATM    6  N   UNL     1       5.119  28.421  54.472  1.00  0.00    -0.191 NA
HETATM    7  C   UNL     1       7.282  25.949  55.716  1.00  0.00     0.073 A 
HETATM    8  C   UNL     1       7.878  24.685  55.864  1.00  0.00     0.050 A 
ENDROOT
BRANCH   3   9
HETATM    9  S   UNL     1       4.640  25.113  52.720  1.00  0.00    -0.100 SA
BRANCH   9  10
HETATM   10  C   UNL     1       5.481  25.802  51.250  1.00  0.00     0.184 C 
BRANCH  10  11
HETATM   11  C   UNL     1       4.835  27.040  50.631  1.00  0.00     0.231 C 
HETATM   12  N   UNL     1       3.982  26.805  49.570  1.00  0.00    -0.326 N 
HETATM   13  H   UNL     1       3.866  25.829  49.327  1.00  0.00     0.169 HD
HETATM   14  O   UNL     1       5.096  28.149  51.097  1.00  0.00    -0.272 OA
BRANCH  12  15
HETATM   15  C   UNL     1       3.447  27.742  48.667  1.00  0.00     0.037 A 
HETATM   16  C   UNL     1       4.204  28.749  48.056  1.00  0.00     0.061 A 
HETATM   17  C   UNL     1       3.558  29.549  47.141  1.00  0.00     0.065 A 
HETATM   18  C   UNL     1       2.213  29.386  46.822  1.00  0.00     0.063 A 
HETATM   19  N   UNL     1       4.052  30.604  46.382  1.00  0.00    -0.306 N 
HETATM   20  N   UNL     1       1.879  30.335  45.864  1.00  0.00    -0.307 N 
HETATM   21  C   UNL     1       1.436  28.420  47.410  1.00  0.00     0.034 A 
HETATM   22  C   UNL     1       3.018  31.104  45.578  1.00  0.00     0.325 A 
HETATM   23  H   UNL     1       0.986  30.476  45.424  1.00  0.00     0.170 HD
HETATM   24  O   UNL     1       3.091  32.025  44.784  1.00  0.00    -0.247 OA
HETATM   25  C   UNL     1       2.070  27.594  48.348  1.00  0.00     0.032 A 
HETATM   26  H   UNL     1       4.990  30.968  46.386  1.00  0.00     0.170 HD
ENDBRANCH  12  15
ENDBRANCH  10  11
ENDBRANCH   9  10
ENDBRANCH   3   9
BRANCH   7  27
HETATM   27  C   UNL     1       7.665  27.074  56.642  1.00  0.00     0.419 C 
HETATM   28  F   UNL     1       6.625  27.497  57.405  1.00  0.00    -0.166 F 
HETATM   29  F   UNL     1       8.658  26.714  57.497  1.00  0.00    -0.166 F 
HETATM   30  F   UNL     1       8.119  28.176  55.987  1.00  0.00    -0.166 F 
ENDBRANCH   7  27
BRANCH   1  31
HETATM   31  C   UNL     1       7.999  22.264  55.131  1.00  0.00     0.033 A 
HETATM   32  S   UNL     1       8.224  21.277  53.737  1.00  0.00    -0.100 SA
HETATM   33  C   UNL     1       8.830  19.970  54.652  1.00  0.00     0.050 A 
HETATM   34  C   UNL     1       8.865  20.256  55.995  1.00  0.00     0.008 A 
HETATM   35  C   UNL     1       8.383  21.568  56.269  1.00  0.00     0.021 A 
ENDBRANCH   1  31
TORSDOF 6
ENDMDL
MODEL 10
REMARK VINA RESULT:      -9.0      1.771      2.151
REMARK  6 active torsions:
REMARK  status: ('A' for Active; 'I' for Inactive)
REMARK    1  A    between atoms: C_4  and  C_5 
REMARK    2  A    between atoms: C_7  and  S_8 
REMARK    3  A    between atoms: S_8  and  C_9 
REMARK    4  A    between atoms: C_9  and  C_10 
REMARK       I    between atoms: C_10  and  N_11 
REMARK    5  A    between atoms: N_11  and  C_12 
REMARK    6  A    between atoms: C_26  and  C_27 
ROOT
HETATM    1  C   UNL     1       6.358  26.593  55.787  1.00  0.00     0.076 A 
HETATM    2  N   UNL     1       5.763  26.332  54.598  1.00  0.00    -0.239 NA
HETATM    3  C   UNL     1       6.075  25.198  53.929  1.00  0.00     0.116 A 
HETATM    4  C   UNL     1       6.985  24.264  54.425  1.00  0.00     0.095 A 
HETATM    5  C   UNL     1       7.320  23.085  53.681  1.00  0.00     0.103 C 
HETATM    6  N   UNL     1       7.618  22.130  53.096  1.00  0.00    -0.191 NA
HETATM    7  C   UNL     1       7.590  24.522  55.667  1.00  0.00     0.073 A 
HETATM    8  C   UNL     1       7.265  25.707  56.348  1.00  0.00     0.050 A 
ENDROOT
BRANCH   3   9
HETATM    9  S   UNL     1       5.350  25.038  52.294  1.00  0.00    -0.100 SA
BRANCH   9  10
HETATM   10  C   UNL     1       5.685  26.677  51.558  1.00  0.00     0.184 C 
BRANCH  10  11
HETATM   11  C   UNL     1       4.505  27.348  50.858  1.00  0.00     0.231 C 
HETATM   12  N   UNL     1       4.216  26.884  49.590  1.00  0.00    -0.326 N 
HETATM   13  H   UNL     1       4.813  26.133  49.266  1.00  0.00     0.169 HD
HETATM   14  O   UNL     1       3.888  28.238  51.444  1.00  0.00    -0.272 OA
BRANCH  12  15
HETATM   15  C   UNL     1       3.363  27.462  48.631  1.00  0.00     0.037 A 
HETATM   16  C   UNL     1       2.123  26.923  48.271  1.00  0.00     0.061 A 
HETATM   17  C   UNL     1       1.369  27.638  47.368  1.00  0.00     0.065 A 
HETATM   18  C   UNL     1       1.800  28.844  46.821  1.00  0.00     0.063 A 
HETATM   19  N   UNL     1       0.112  27.357  46.844  1.00  0.00    -0.306 N 
HETATM   20  N   UNL     1       0.808  29.308  45.967  1.00  0.00    -0.307 N 
HETATM   21  C   UNL     1       3.014  29.396  47.140  1.00  0.00     0.034 A 
HETATM   22  C   UNL     1      -0.253  28.390  45.970  1.00  0.00     0.325 A 
HETATM   23  H   UNL     1       0.812  30.154  45.423  1.00  0.00     0.170 HD
HETATM   24  O   UNL     1      -1.291  28.478  45.338  1.00  0.00    -0.247 OA
HETATM   25  C   UNL     1       3.803  28.685  48.055  1.00  0.00     0.032 A 
HETATM   26  H   UNL     1      -0.464  26.555  47.043  1.00  0.00     0.170 HD
ENDBRANCH  12  15
ENDBRANCH  10  11
ENDBRANCH   9  10
ENDBRANCH   3   9
BRANCH   7  27
HETATM   27  C   UNL     1       8.607  23.575  56.248  1.00  0.00     0.419 C 
HETATM   28  F   UNL     1       9.143  24.034  57.408  1.00  0.00    -0.166 F 
HETATM   29  F   UNL     1       8.072  22.356  56.518  1.00  0.00    -0.166 F 
HETATM   30  F   UNL     1       9.659  23.343  55.417  1.00  0.00    -0.166 F 
ENDBRANCH   7  27
BRANCH   1  31
HETATM   31  C   UNL     1       5.984  27.892  56.377  1.00  0.00     0.033 A 
HETATM   32  S   UNL     1       4.458  28.626  56.064  1.00  0.00    -0.100 SA
HETATM   33  C   UNL     1       4.792  29.958  57.077  1.00  0.00     0.050 A 
HETATM   34  C   UNL     1       6.037  29.868  57.650  1.00  0.00     0.008 A 
HETATM   35  C   UNL     1       6.722  28.686  57.243  1.00  0.00     0.021 A 
ENDBRANCH   1  31
TORSDOF 6
ENDMDL
