MODEL 1
REMARK VINA RESULT:      -9.5      0.000      0.000
REMARK  5 active torsions:
REMARK  status: ('A' for Active; 'I' for Inactive)
REMARK    1  A    between atoms: C_2  and  O_3 
REMARK    2  A    between atoms: O_3  and  C_4 
REMARK    3  A    between atoms: C_5  and  N_6 
REMARK       I    between atoms: N_6  and  C_7 
REMARK    4  A    between atoms: C_7  and  C_8 
REMARK    5  A    between atoms: C_9  and  C_10 
ROOT
HETATM    1  N   UNL     1       7.467  27.528  56.856  1.00  0.00    -0.321 N 
HETATM    2  C   UNL     1       8.422  28.427  57.269  1.00  0.00     0.245 C 
HETATM    3  O   UNL     1       9.529  28.611  56.782  1.00  0.00    -0.268 OA
HETATM    4  H   UNL     1       6.543  27.581  57.267  1.00  0.00     0.169 HD
ENDROOT
BRANCH   1   5
HETATM    5  C   UNL     1       7.597  26.535  55.859  1.00  0.00     0.071 A 
HETATM    6  C   UNL     1       7.326  26.924  54.523  1.00  0.00     0.096 A 
HETATM    7  C   UNL     1       7.319  26.002  53.474  1.00  0.00     0.049 A 
HETATM    8  C   UNL     1       7.651  24.695  53.771  1.00  0.00    -0.020 A 
HETATM    9  C   UNL     1       7.956  24.316  55.069  1.00  0.00     0.078 A 
HETATM   10  C   UNL     1       7.672  23.503  52.893  1.00  0.00     0.073 C 
HETATM   11  C   UNL     1       7.932  25.207  56.128  1.00  0.00     0.069 A 
HETATM   12  O   UNL     1       8.239  22.980  55.196  1.00  0.00    -0.345 OA
HETATM   13  C   UNL     1       8.405  22.527  53.826  1.00  0.00     0.129 C 
HETATM   14  C   UNL     1       7.882  21.105  53.708  1.00  0.00     0.040 C 
BRANCH   6  15
HETATM   15  O   UNL     1       7.024  28.234  54.232  1.00  0.00    -0.349 OA
BRANCH  15  16
HETATM   16  C   UNL     1       5.752  28.329  53.568  1.00  0.00     0.171 C 
HETATM   17  C   UNL     1       4.633  28.380  54.592  1.00  0.00     0.034 C 
ENDBRANCH  15  16
ENDBRANCH   6  15
ENDBRANCH   1   5
BRANCH   2  18
HETATM   18  C   UNL     1       7.934  29.255  58.401  1.00  0.00     0.077 C 
HETATM   19  C   UNL     1       8.760  30.136  58.980  1.00  0.00     0.043 C 
BRANCH  19  20
HETATM   20  C   UNL     1       8.322  30.928  60.075  1.00  0.00     0.077 A 
HETATM   21  O   UNL     1       7.241  31.782  60.022  1.00  0.00    -0.310 OA
HETATM   22  C   UNL     1       7.091  32.361  61.242  1.00  0.00     0.086 A 
HETATM   23  C   UNL     1       8.076  31.919  62.109  1.00  0.00     0.000 A 
HETATM   24  C   UNL     1       6.094  33.270  61.588  1.00  0.00     0.038 A 
HETATM   25  C   UNL     1       8.854  31.001  61.358  1.00  0.00     0.051 A 
HETATM   26  C   UNL     1       8.093  32.419  63.422  1.00  0.00     0.014 A 
HETATM   27  C   UNL     1       7.103  33.339  63.803  1.00  0.00     0.001 A 
HETATM   28  C   UNL     1       6.119  33.753  62.900  1.00  0.00     0.003 A 
ENDBRANCH  19  20
ENDBRANCH   2  18
TORSDOF 5
ENDMDL
MODEL 2
REMARK VINA RESULT:      -9.2      2.049      9.820
REMARK  5 active torsions:
REMARK  status: ('A' for Active; 'I' for Inactive)
REMARK    1  A    between atoms: C_2  and  O_3 
REMARK    2  A    between atoms: O_3  and  C_4 
REMARK    3  A    between atoms: C_5  and  N_6 
REMARK       I    between atoms: N_6  and  C_7 
REMARK    4  A    between atoms: C_7  and  C_8 
REMARK    5  A    between atoms: C_9  and  C_10 
ROOT
HETATM    1  N   UNL     1       7.196  28.498  56.905  1.00  0.00    -0.321 N 
HETATM    2  C   UNL     1       6.853  28.177  55.612  1.00  0.00     0.245 C 
HETATM    3  O   UNL     1       6.263  28.880  54.805  1.00  0.00    -0.268 OA
HETATM    4  H   UNL     1       7.805  27.868  57.414  1.00  0.00     0.169 HD
ENDROOT
BRANCH   1   5
HETATM    5  C   UNL     1       6.838  29.659  57.625  1.00  0.00     0.071 A 
HETATM    6  C   UNL     1       7.803  30.185  58.520  1.00  0.00     0.096 A 
HETATM    7  C   UNL     1       7.519  31.265  59.359  1.00  0.00     0.049 A 
HETATM    8  C   UNL     1       6.275  31.852  59.245  1.00  0.00    -0.020 A 
HETATM    9  C   UNL     1       5.341  31.368  58.343  1.00  0.00     0.078 A 
HETATM   10  C   UNL     1       5.676  32.956  60.028  1.00  0.00     0.073 C 
HETATM   11  C   UNL     1       5.589  30.275  57.529  1.00  0.00     0.069 A 
HETATM   12  O   UNL     1       4.150  32.048  58.373  1.00  0.00    -0.345 OA
HETATM   13  C   UNL     1       4.446  33.237  59.151  1.00  0.00     0.129 C 
HETATM   14  C   UNL     1       3.222  33.611  59.969  1.00  0.00     0.040 C 
BRANCH   6  15
HETATM   15  O   UNL     1       9.051  29.611  58.607  1.00  0.00    -0.349 OA
BRANCH  15  16
HETATM   16  C   UNL     1      10.040  30.446  57.980  1.00  0.00     0.171 C 
HETATM   17  C   UNL     1      10.648  29.728  56.789  1.00  0.00     0.034 C 
ENDBRANCH  15  16
ENDBRANCH   6  15
ENDBRANCH   1   5
BRANCH   2  18
HETATM   18  C   UNL     1       7.349  26.827  55.239  1.00  0.00     0.077 C 
HETATM   19  C   UNL     1       6.503  25.788  55.246  1.00  0.00     0.043 C 
BRANCH  19  20
HETATM   20  C   UNL     1       6.956  24.485  54.909  1.00  0.00     0.077 A 
HETATM   21  O   UNL     1       7.172  23.483  55.831  1.00  0.00    -0.310 OA
HETATM   22  C   UNL     1       7.578  22.369  55.168  1.00  0.00     0.086 A 
HETATM   23  C   UNL     1       7.657  22.620  53.809  1.00  0.00     0.000 A 
HETATM   24  C   UNL     1       7.875  21.141  55.756  1.00  0.00     0.038 A 
HETATM   25  C   UNL     1       7.254  23.971  53.651  1.00  0.00     0.051 A 
HETATM   26  C   UNL     1       8.074  21.584  52.954  1.00  0.00     0.014 A 
HETATM   27  C   UNL     1       8.383  20.335  53.515  1.00  0.00     0.001 A 
HETATM   28  C   UNL     1       8.280  20.119  54.892  1.00  0.00     0.003 A 
ENDBRANCH  19  20
ENDBRANCH   2  18
TORSDOF 5
ENDMDL
MODEL 3
REMARK VINA RESULT:      -8.8      1.039      1.613
REMARK  5 active torsions:
REMARK  status: ('A' for Active; 'I' for Inactive)
REMARK    1  A    between atoms: C_2  and  O_3 
REMARK    2  A    between atoms: O_3  and  C_4 
REMARK    3  A    between atoms: C_5  and  N_6 
REMARK       I    between atoms: N_6  and  C_7 
REMARK    4  A    between atoms: C_7  and  C_8 
REMARK    5  A    between atoms: C_9  and  C_10 
ROOT
HETATM    1  N   UNL     1       7.093  27.215  56.197  1.00  0.00    -0.321 N 
HETATM    2  C   UNL     1       7.942  27.768  57.126  1.00  0.00     0.245 C 
HETATM    3  O   UNL     1       9.125  27.508  57.299  1.00  0.00    -0.268 OA
HETATM    4  H   UNL     1       6.174  27.625  56.076  1.00  0.00     0.169 HD
ENDROOT
BRANCH   1   5
HETATM    5  C   UNL     1       7.363  26.142  55.318  1.00  0.00     0.071 A 
HETATM    6  C   UNL     1       7.370  26.431  53.930  1.00  0.00     0.096 A 
HETATM    7  C   UNL     1       7.519  25.429  52.969  1.00  0.00     0.049 A 
HETATM    8  C   UNL     1       7.727  24.140  53.417  1.00  0.00    -0.020 A 
HETATM    9  C   UNL     1       7.763  23.857  54.774  1.00  0.00     0.078 A 
HETATM   10  C   UNL     1       7.859  22.881  52.649  1.00  0.00     0.073 C 
HETATM   11  C   UNL     1       7.579  24.829  55.742  1.00  0.00     0.069 A 
HETATM   12  O   UNL     1       7.954  22.527  55.049  1.00  0.00    -0.345 OA
HETATM   13  C   UNL     1       8.356  21.961  53.774  1.00  0.00     0.129 C 
HETATM   14  C   UNL     1       7.799  20.552  53.660  1.00  0.00     0.040 C 
BRANCH   6  15
HETATM   15  O   UNL     1       7.190  27.723  53.492  1.00  0.00    -0.349 OA
BRANCH  15  16
HETATM   16  C   UNL     1       6.036  27.816  52.639  1.00  0.00     0.171 C 
HETATM   17  C   UNL     1       4.814  28.192  53.456  1.00  0.00     0.034 C 
ENDBRANCH  15  16
ENDBRANCH   6  15
ENDBRANCH   1   5
BRANCH   2  18
HETATM   18  C   UNL     1       7.263  28.823  57.920  1.00  0.00     0.077 C 
HETATM   19  C   UNL     1       7.980  29.840  58.417  1.00  0.00     0.043 C 
BRANCH  19  20
HETATM   20  C   UNL     1       7.357  30.854  59.192  1.00  0.00     0.077 A 
HETATM   21  O   UNL     1       7.779  31.230  60.450  1.00  0.00    -0.310 OA
HETATM   22  C   UNL     1       6.978  32.234  60.891  1.00  0.00     0.086 A 
HETATM   23  C   UNL     1       6.006  32.523  59.948  1.00  0.00     0.000 A 
HETATM   24  C   UNL     1       7.103  32.891  62.113  1.00  0.00     0.038 A 
HETATM   25  C   UNL     1       6.258  31.641  58.865  1.00  0.00     0.051 A 
HETATM   26  C   UNL     1       5.070  33.532  60.232  1.00  0.00     0.014 A 
HETATM   27  C   UNL     1       5.167  34.212  61.455  1.00  0.00     0.001 A 
HETATM   28  C   UNL     1       6.170  33.898  62.377  1.00  0.00     0.003 A 
ENDBRANCH  19  20
ENDBRANCH   2  18
TORSDOF 5
ENDMDL
MODEL 4
REMARK VINA RESULT:      -8.7      2.198     10.404
REMARK  5 active torsions:
REMARK  status: ('A' for Active; 'I' for Inactive)
REMARK    1  A    between atoms: C_2  and  O_3 
REMARK    2  A    between atoms: O_3  and  C_4 
REMARK    3  A    between atoms: C_5  and  N_6 
REMARK       I    between atoms: N_6  and  C_7 
REMARK    4  A    between atoms: C_7  and  C_8 
REMARK    5  A    between atoms: C_9  and  C_10 
ROOT
HETATM    1  N   UNL     1       6.194  31.365  59.767  1.00  0.00    -0.321 N 
HETATM    2  C   UNL     1       7.224  31.227  58.865  1.00  0.00     0.245 C 
HETATM    3  O   UNL     1       8.201  31.951  58.738  1.00  0.00    -0.268 OA
HETATM    4  H   UNL     1       5.521  30.612  59.851  1.00  0.00     0.169 HD
ENDROOT
BRANCH   1   5
HETATM    5  C   UNL     1       5.973  32.436  60.661  1.00  0.00     0.071 A 
HETATM    6  C   UNL     1       6.470  32.287  61.980  1.00  0.00     0.096 A 
HETATM    7  C   UNL     1       6.216  33.235  62.974  1.00  0.00     0.049 A 
HETATM    8  C   UNL     1       5.514  34.367  62.613  1.00  0.00    -0.020 A 
HETATM    9  C   UNL     1       5.060  34.538  61.314  1.00  0.00     0.078 A 
HETATM   10  C   UNL     1       5.051  35.499  63.448  1.00  0.00     0.073 C 
HETATM   11  C   UNL     1       5.268  33.593  60.324  1.00  0.00     0.069 A 
HETATM   12  O   UNL     1       4.360  35.703  61.129  1.00  0.00    -0.345 OA
HETATM   13  C   UNL     1       4.632  36.468  62.332  1.00  0.00     0.129 C 
HETATM   14  C   UNL     1       3.397  37.275  62.696  1.00  0.00     0.040 C 
BRANCH   6  15
HETATM   15  O   UNL     1       7.194  31.169  62.324  1.00  0.00    -0.349 OA
BRANCH  15  16
HETATM   16  C   UNL     1       8.590  31.486  62.452  1.00  0.00     0.171 C 
HETATM   17  C   UNL     1       9.429  30.436  61.747  1.00  0.00     0.034 C 
ENDBRANCH  15  16
ENDBRANCH   6  15
ENDBRANCH   1   5
BRANCH   2  18
HETATM   18  C   UNL     1       7.062  30.002  58.041  1.00  0.00     0.077 C 
HETATM   19  C   UNL     1       7.889  28.965  58.230  1.00  0.00     0.043 C 
BRANCH  19  20
HETATM   20  C   UNL     1       7.765  27.788  57.444  1.00  0.00     0.077 A 
HETATM   21  O   UNL     1       8.204  26.545  57.846  1.00  0.00    -0.310 OA
HETATM   22  C   UNL     1       7.911  25.648  56.869  1.00  0.00     0.086 A 
HETATM   23  C   UNL     1       7.296  26.283  55.803  1.00  0.00     0.000 A 
HETATM   24  C   UNL     1       8.180  24.282  56.917  1.00  0.00     0.038 A 
HETATM   25  C   UNL     1       7.203  27.647  56.179  1.00  0.00     0.051 A 
HETATM   26  C   UNL     1       6.926  25.516  54.684  1.00  0.00     0.014 A 
HETATM   27  C   UNL     1       7.186  24.137  54.700  1.00  0.00     0.001 A 
HETATM   28  C   UNL     1       7.799  23.532  55.800  1.00  0.00     0.003 A 
ENDBRANCH  19  20
ENDBRANCH   2  18
TORSDOF 5
ENDMDL
MODEL 5
REMARK VINA RESULT:      -8.5      2.801      9.887
REMARK  5 active torsions:
REMARK  status: ('A' for Active; 'I' for Inactive)
REMARK    1  A    between atoms: C_2  and  O_3 
REMARK    2  A    between atoms: O_3  and  C_4 
REMARK    3  A    between atoms: C_5  and  N_6 
REMARK       I    between atoms: N_6  and  C_7 
REMARK    4  A    between atoms: C_7  and  C_8 
REMARK    5  A    between atoms: C_9  and  C_10 
ROOT
HETATM    1  N   UNL     1       6.037  28.935  55.704  1.00  0.00    -0.321 N 
HETATM    2  C   UNL     1       5.090  27.989  55.389  1.00  0.00     0.245 C 
HETATM    3  O   UNL     1       3.875  28.096  55.481  1.00  0.00    -0.268 OA
HETATM    4  H   UNL     1       7.001  28.759  55.447  1.00  0.00     0.169 HD
ENDROOT
BRANCH   1   5
HETATM    5  C   UNL     1       5.826  30.191  56.316  1.00  0.00     0.071 A 
HETATM    6  C   UNL     1       6.367  30.375  57.613  1.00  0.00     0.096 A 
HETATM    7  C   UNL     1       6.130  31.536  58.353  1.00  0.00     0.049 A 
HETATM    8  C   UNL     1       5.396  32.538  57.751  1.00  0.00    -0.020 A 
HETATM    9  C   UNL     1       4.897  32.380  56.466  1.00  0.00     0.078 A 
HETATM   10  C   UNL     1       4.940  33.836  58.299  1.00  0.00     0.073 C 
HETATM   11  C   UNL     1       5.090  31.223  55.731  1.00  0.00     0.069 A 
HETATM   12  O   UNL     1       4.171  33.458  56.026  1.00  0.00    -0.345 OA
HETATM   13  C   UNL     1       4.468  34.498  56.995  1.00  0.00     0.129 C 
HETATM   14  C   UNL     1       3.231  35.357  57.194  1.00  0.00     0.040 C 
BRANCH   6  15
HETATM   15  O   UNL     1       7.122  29.383  58.194  1.00  0.00    -0.349 OA
BRANCH  15  16
HETATM   16  C   UNL     1       8.516  29.737  58.196  1.00  0.00     0.171 C 
HETATM   17  C   UNL     1       9.266  28.901  57.175  1.00  0.00     0.034 C 
ENDBRANCH  15  16
ENDBRANCH   6  15
ENDBRANCH   1   5
BRANCH   2  18
HETATM   18  C   UNL     1       5.715  26.761  54.834  1.00  0.00     0.077 C 
HETATM   19  C   UNL     1       5.954  25.719  55.641  1.00  0.00     0.043 C 
BRANCH  19  20
HETATM   20  C   UNL     1       6.564  24.540  55.138  1.00  0.00     0.077 A 
HETATM   21  O   UNL     1       6.917  23.461  55.922  1.00  0.00    -0.310 OA
HETATM   22  C   UNL     1       7.453  22.504  55.122  1.00  0.00     0.086 A 
HETATM   23  C   UNL     1       7.484  22.939  53.807  1.00  0.00     0.000 A 
HETATM   24  C   UNL     1       7.909  21.258  55.545  1.00  0.00     0.038 A 
HETATM   25  C   UNL     1       6.911  24.236  53.826  1.00  0.00     0.051 A 
HETATM   26  C   UNL     1       8.019  22.085  52.827  1.00  0.00     0.014 A 
HETATM   27  C   UNL     1       8.490  20.823  53.221  1.00  0.00     0.001 A 
HETATM   28  C   UNL     1       8.432  20.417  54.557  1.00  0.00     0.003 A 
ENDBRANCH  19  20
ENDBRANCH   2  18
TORSDOF 5
ENDMDL
MODEL 6
REMARK VINA RESULT:      -8.4      2.443      9.527
REMARK  5 active torsions:
REMARK  status: ('A' for Active; 'I' for Inactive)
REMARK    1  A    between atoms: C_2  and  O_3 
REMARK    2  A    between atoms: O_3  and  C_4 
REMARK    3  A    between atoms: C_5  and  N_6 
REMARK       I    between atoms: N_6  and  C_7 
REMARK    4  A    between atoms: C_7  and  C_8 
REMARK    5  A    between atoms: C_9  and  C_10 
ROOT
HETATM    1  N   UNL     1       7.265  28.731  57.596  1.00  0.00    -0.321 N 
HETATM    2  C   UNL     1       8.469  28.409  57.017  1.00  0.00     0.245 C 
HETATM    3  O   UNL     1       9.362  29.176  56.684  1.00  0.00    -0.268 OA
HETATM    4  H   UNL     1       6.679  27.981  57.945  1.00  0.00     0.169 HD
ENDROOT
BRANCH   1   5
HETATM    5  C   UNL     1       6.739  30.023  57.824  1.00  0.00     0.071 A 
HETATM    6  C   UNL     1       7.210  30.718  58.966  1.00  0.00     0.096 A 
HETATM    7  C   UNL     1       6.682  31.955  59.346  1.00  0.00     0.049 A 
HETATM    8  C   UNL     1       5.721  32.516  58.530  1.00  0.00    -0.020 A 
HETATM    9  C   UNL     1       5.285  31.860  57.389  1.00  0.00     0.078 A 
HETATM   10  C   UNL     1       4.949  33.768  58.702  1.00  0.00     0.073 C 
HETATM   11  C   UNL     1       5.768  30.617  57.016  1.00  0.00     0.069 A 
HETATM   12  O   UNL     1       4.312  32.542  56.705  1.00  0.00    -0.345 OA
HETATM   13  C   UNL     1       4.330  33.867  57.299  1.00  0.00     0.129 C 
HETATM   14  C   UNL     1       2.915  34.418  57.325  1.00  0.00     0.040 C 
BRANCH   6  15
HETATM   15  O   UNL     1       8.189  30.164  59.758  1.00  0.00    -0.349 OA
BRANCH  15  16
HETATM   16  C   UNL     1       9.234  31.117  60.018  1.00  0.00     0.171 C 
HETATM   17  C   UNL     1       9.417  31.292  61.515  1.00  0.00     0.034 C 
ENDBRANCH  15  16
ENDBRANCH   6  15
ENDBRANCH   1   5
BRANCH   2  18
HETATM   18  C   UNL     1       8.626  26.939  56.875  1.00  0.00     0.077 C 
HETATM   19  C   UNL     1       7.725  26.244  56.167  1.00  0.00     0.043 C 
BRANCH  19  20
HETATM   20  C   UNL     1       7.844  24.836  56.029  1.00  0.00     0.077 A 
HETATM   21  O   UNL     1       7.643  24.160  54.844  1.00  0.00    -0.310 OA
HETATM   22  C   UNL     1       7.857  22.836  55.062  1.00  0.00     0.086 A 
HETATM   23  C   UNL     1       8.179  22.614  56.390  1.00  0.00     0.000 A 
HETATM   24  C   UNL     1       7.772  21.833  54.099  1.00  0.00     0.038 A 
HETATM   25  C   UNL     1       8.172  23.895  56.999  1.00  0.00     0.051 A 
HETATM   26  C   UNL     1       8.425  21.296  56.813  1.00  0.00     0.014 A 
HETATM   27  C   UNL     1       8.344  20.262  55.868  1.00  0.00     0.001 A 
HETATM   28  C   UNL     1       8.027  20.529  54.534  1.00  0.00     0.003 A 
ENDBRANCH  19  20
ENDBRANCH   2  18
TORSDOF 5
ENDMDL
MODEL 7
REMARK VINA RESULT:      -8.4      2.857      4.365
REMARK  5 active torsions:
REMARK  status: ('A' for Active; 'I' for Inactive)
REMARK    1  A    between atoms: C_2  and  O_3 
REMARK    2  A    between atoms: O_3  and  C_4 
REMARK    3  A    between atoms: C_5  and  N_6 
REMARK       I    between atoms: N_6  and  C_7 
REMARK    4  A    between atoms: C_7  and  C_8 
REMARK    5  A    between atoms: C_9  and  C_10 
ROOT
HETATM    1  N   UNL     1       6.785  30.096  58.500  1.00  0.00    -0.321 N 
HETATM    2  C   UNL     1       6.630  31.450  58.680  1.00  0.00     0.245 C 
HETATM    3  O   UNL     1       6.347  32.284  57.831  1.00  0.00    -0.268 OA
HETATM    4  H   UNL     1       6.883  29.507  59.320  1.00  0.00     0.169 HD
ENDROOT
BRANCH   1   5
HETATM    5  C   UNL     1       6.773  29.384  57.280  1.00  0.00     0.071 A 
HETATM    6  C   UNL     1       8.020  28.923  56.791  1.00  0.00     0.096 A 
HETATM    7  C   UNL     1       8.140  28.303  55.545  1.00  0.00     0.049 A 
HETATM    8  C   UNL     1       6.983  28.092  54.823  1.00  0.00    -0.020 A 
HETATM    9  C   UNL     1       5.753  28.504  55.315  1.00  0.00     0.078 A 
HETATM   10  C   UNL     1       6.804  27.521  53.468  1.00  0.00     0.073 C 
HETATM   11  C   UNL     1       5.619  29.155  56.529  1.00  0.00     0.069 A 
HETATM   12  O   UNL     1       4.709  28.241  54.464  1.00  0.00    -0.345 OA
HETATM   13  C   UNL     1       5.279  27.337  53.482  1.00  0.00     0.129 C 
HETATM   14  C   UNL     1       4.648  27.614  52.128  1.00  0.00     0.040 C 
BRANCH   6  15
HETATM   15  O   UNL     1       9.166  29.112  57.530  1.00  0.00    -0.349 OA
BRANCH  15  16
HETATM   16  C   UNL     1      10.084  29.973  56.835  1.00  0.00     0.171 C 
HETATM   17  C   UNL     1      10.555  31.083  57.757  1.00  0.00     0.034 C 
ENDBRANCH  15  16
ENDBRANCH   6  15
ENDBRANCH   1   5
BRANCH   2  18
HETATM   18  C   UNL     1       6.790  31.830  60.107  1.00  0.00     0.077 C 
HETATM   19  C   UNL     1       5.794  32.470  60.736  1.00  0.00     0.043 C 
BRANCH  19  20
HETATM   20  C   UNL     1       5.929  32.857  62.096  1.00  0.00     0.077 A 
HETATM   21  O   UNL     1       4.863  33.103  62.935  1.00  0.00    -0.310 OA
HETATM   22  C   UNL     1       5.346  33.428  64.161  1.00  0.00     0.086 A 
HETATM   23  C   UNL     1       6.731  33.423  64.149  1.00  0.00     0.000 A 
HETATM   24  C   UNL     1       4.575  33.724  65.283  1.00  0.00     0.038 A 
HETATM   25  C   UNL     1       7.095  33.053  62.829  1.00  0.00     0.051 A 
HETATM   26  C   UNL     1       7.418  33.749  65.332  1.00  0.00     0.014 A 
HETATM   27  C   UNL     1       6.670  34.055  66.479  1.00  0.00     0.001 A 
HETATM   28  C   UNL     1       5.273  34.038  66.453  1.00  0.00     0.003 A 
ENDBRANCH  19  20
ENDBRANCH   2  18
TORSDOF 5
ENDMDL
MODEL 8
REMARK VINA RESULT:      -8.3      2.328      9.805
REMARK  5 active torsions:
REMARK  status: ('A' for Active; 'I' for Inactive)
REMARK    1  A    between atoms: C_2  and  O_3 
REMARK    2  A    between atoms: O_3  and  C_4 
REMARK    3  A    between atoms: C_5  and  N_6 
REMARK       I    between atoms: N_6  and  C_7 
REMARK    4  A    between atoms: C_7  and  C_8 
REMARK    5  A    between atoms: C_9  and  C_10 
ROOT
HETATM    1  N   UNL     1       6.791  31.127  59.498  1.00  0.00    -0.321 N 
HETATM    2  C   UNL     1       8.029  31.097  58.900  1.00  0.00     0.245 C 
HETATM    3  O   UNL     1       8.862  31.992  58.873  1.00  0.00    -0.268 OA
HETATM    4  H   UNL     1       6.262  30.265  59.560  1.00  0.00     0.169 HD
ENDROOT
BRANCH   1   5
HETATM    5  C   UNL     1       6.157  32.234  60.106  1.00  0.00     0.071 A 
HETATM    6  C   UNL     1       5.084  32.831  59.399  1.00  0.00     0.096 A 
HETATM    7  C   UNL     1       4.456  33.993  59.854  1.00  0.00     0.049 A 
HETATM    8  C   UNL     1       4.876  34.513  61.062  1.00  0.00    -0.020 A 
HETATM    9  C   UNL     1       5.898  33.911  61.779  1.00  0.00     0.078 A 
HETATM   10  C   UNL     1       4.447  35.747  61.760  1.00  0.00     0.073 C 
HETATM   11  C   UNL     1       6.558  32.782  61.326  1.00  0.00     0.069 A 
HETATM   12  O   UNL     1       6.209  34.567  62.943  1.00  0.00    -0.345 OA
HETATM   13  C   UNL     1       5.109  35.497  63.124  1.00  0.00     0.129 C 
HETATM   14  C   UNL     1       5.638  36.773  63.755  1.00  0.00     0.040 C 
BRANCH   6  15
HETATM   15  O   UNL     1       4.653  32.289  58.210  1.00  0.00    -0.349 OA
BRANCH  15  16
HETATM   16  C   UNL     1       3.633  31.302  58.440  1.00  0.00     0.171 C 
HETATM   17  C   UNL     1       3.305  30.581  57.145  1.00  0.00     0.034 C 
ENDBRANCH  15  16
ENDBRANCH   6  15
ENDBRANCH   1   5
BRANCH   2  18
HETATM   18  C   UNL     1       8.307  29.768  58.299  1.00  0.00     0.077 C 
HETATM   19  C   UNL     1       7.289  29.016  57.858  1.00  0.00     0.043 C 
BRANCH  19  20
HETATM   20  C   UNL     1       7.528  27.735  57.293  1.00  0.00     0.077 A 
HETATM   21  O   UNL     1       8.199  26.720  57.943  1.00  0.00    -0.310 OA
HETATM   22  C   UNL     1       8.229  25.634  57.128  1.00  0.00     0.086 A 
HETATM   23  C   UNL     1       7.602  25.916  55.926  1.00  0.00     0.000 A 
HETATM   24  C   UNL     1       8.803  24.404  57.442  1.00  0.00     0.038 A 
HETATM   25  C   UNL     1       7.154  27.257  56.041  1.00  0.00     0.051 A 
HETATM   26  C   UNL     1       7.543  24.913  54.944  1.00  0.00     0.014 A 
HETATM   27  C   UNL     1       8.114  23.662  55.227  1.00  0.00     0.001 A 
HETATM   28  C   UNL     1       8.729  23.414  56.457  1.00  0.00     0.003 A 
ENDBRANCH  19  20
ENDBRANCH   2  18
TORSDOF 5
ENDMDL
MODEL 9
REMARK VINA RESULT:      -8.2      1.784      3.125
REMARK  5 active torsions:
REMARK  status: ('A' for Active; 'I' for Inactive)
REMARK    1  A    between atoms: C_2  and  O_3 
REMARK    2  A    between atoms: O_3  and  C_4 
REMARK    3  A    between atoms: C_5  and  N_6 
REMARK       I    between atoms: N_6  and  C_7 
REMARK    4  A    between atoms: C_7  and  C_8 
REMARK    5  A    between atoms: C_9  and  C_10 
ROOT
HETATM    1  N   UNL     1       6.386  28.577  56.508  1.00  0.00    -0.321 N 
HETATM    2  C   UNL     1       7.407  29.430  56.855  1.00  0.00     0.245 C 
HETATM    3  O   UNL     1       8.390  29.721  56.187  1.00  0.00    -0.268 OA
HETATM    4  H   UNL     1       5.566  28.537  57.103  1.00  0.00     0.169 HD
ENDROOT
BRANCH   1   5
HETATM    5  C   UNL     1       6.305  27.756  55.361  1.00  0.00     0.071 A 
HETATM    6  C   UNL     1       7.169  26.633  55.310  1.00  0.00     0.096 A 
HETATM    7  C   UNL     1       7.248  25.815  54.180  1.00  0.00     0.049 A 
HETATM    8  C   UNL     1       6.404  26.099  53.126  1.00  0.00    -0.020 A 
HETATM    9  C   UNL     1       5.527  27.172  53.186  1.00  0.00     0.078 A 
HETATM   10  C   UNL     1       6.303  25.456  51.796  1.00  0.00     0.073 C 
HETATM   11  C   UNL     1       5.460  28.016  54.281  1.00  0.00     0.069 A 
HETATM   12  O   UNL     1       4.778  27.329  52.048  1.00  0.00    -0.345 OA
HETATM   13  C   UNL     1       4.989  26.092  51.318  1.00  0.00     0.129 C 
HETATM   14  C   UNL     1       4.996  26.391  49.828  1.00  0.00     0.040 C 
BRANCH   6  15
HETATM   15  O   UNL     1       7.987  26.341  56.377  1.00  0.00    -0.349 OA
BRANCH  15  16
HETATM   16  C   UNL     1       7.587  25.110  57.004  1.00  0.00     0.171 C 
HETATM   17  C   UNL     1       8.807  24.266  57.319  1.00  0.00     0.034 C 
ENDBRANCH  15  16
ENDBRANCH   6  15
ENDBRANCH   1   5
BRANCH   2  18
HETATM   18  C   UNL     1       7.165  30.055  58.180  1.00  0.00     0.077 C 
HETATM   19  C   UNL     1       7.991  31.015  58.618  1.00  0.00     0.043 C 
BRANCH  19  20
HETATM   20  C   UNL     1       7.790  31.618  59.888  1.00  0.00     0.077 A 
HETATM   21  O   UNL     1       6.843  32.589  60.138  1.00  0.00    -0.310 OA
HETATM   22  C   UNL     1       6.908  32.925  61.452  1.00  0.00     0.086 A 
HETATM   23  C   UNL     1       7.906  32.203  62.085  1.00  0.00     0.000 A 
HETATM   24  C   UNL     1       6.094  33.859  62.089  1.00  0.00     0.038 A 
HETATM   25  C   UNL     1       8.461  31.368  61.081  1.00  0.00     0.051 A 
HETATM   26  C   UNL     1       8.134  32.424  63.454  1.00  0.00     0.014 A 
HETATM   27  C   UNL     1       7.333  33.360  64.125  1.00  0.00     0.001 A 
HETATM   28  C   UNL     1       6.328  34.062  63.453  1.00  0.00     0.003 A 
ENDBRANCH  19  20
ENDBRANCH   2  18
TORSDOF 5
ENDMDL
MODEL 10
REMARK VINA RESULT:      -8.1      2.453      9.972
REMARK  5 active torsions:
REMARK  status: ('A' for Active; 'I' for Inactive)
REMARK    1  A    between atoms: C_2  and  O_3 
REMARK    2  A    between atoms: O_3  and  C_4 
REMARK    3  A    between atoms: C_5  and  N_6 
REMARK       I    between atoms: N_6  and  C_7 
REMARK    4  A    between atoms: C_7  and  C_8 
REMARK    5  A    between atoms: C_9  and  C_10 
ROOT
HETATM    1  N   UNL     1       6.514  31.046  59.042  1.00  0.00    -0.321 N 
HETATM    2  C   UNL     1       7.819  30.929  58.626  1.00  0.00     0.245 C 
HETATM    3  O   UNL     1       8.693  31.784  58.675  1.00  0.00    -0.268 OA
HETATM    4  H   UNL     1       5.938  30.212  59.068  1.00  0.00     0.169 HD
ENDROOT
BRANCH   1   5
HETATM    5  C   UNL     1       5.860  32.210  59.504  1.00  0.00     0.071 A 
HETATM    6  C   UNL     1       5.983  32.513  60.884  1.00  0.00     0.096 A 
HETATM    7  C   UNL     1       5.293  33.577  61.469  1.00  0.00     0.049 A 
HETATM    8  C   UNL     1       4.528  34.374  60.641  1.00  0.00    -0.020 A 
HETATM    9  C   UNL     1       4.437  34.108  59.283  1.00  0.00     0.078 A 
HETATM   10  C   UNL     1       3.653  35.520  60.977  1.00  0.00     0.073 C 
HETATM   11  C   UNL     1       5.082  33.035  58.691  1.00  0.00     0.069 A 
HETATM   12  O   UNL     1       3.619  34.979  58.610  1.00  0.00    -0.345 OA
HETATM   13  C   UNL     1       3.398  36.055  59.559  1.00  0.00     0.129 C 
HETATM   14  C   UNL     1       1.986  36.587  59.384  1.00  0.00     0.040 C 
BRANCH   6  15
HETATM   15  O   UNL     1       6.770  31.730  61.697  1.00  0.00    -0.349 OA
BRANCH  15  16
HETATM   16  C   UNL     1       7.935  32.454  62.128  1.00  0.00     0.171 C 
HETATM   17  C   UNL     1       7.929  32.597  63.639  1.00  0.00     0.034 C 
ENDBRANCH  15  16
ENDBRANCH   6  15
ENDBRANCH   1   5
BRANCH   2  18
HETATM   18  C   UNL     1       8.110  29.560  58.130  1.00  0.00     0.077 C 
HETATM   19  C   UNL     1       7.143  28.858  57.525  1.00  0.00     0.043 C 
BRANCH  19  20
HETATM   20  C   UNL     1       7.391  27.540  57.056  1.00  0.00     0.077 A 
HETATM   21  O   UNL     1       7.157  27.128  55.761  1.00  0.00    -0.310 OA
HETATM   22  C   UNL     1       7.522  25.825  55.651  1.00  0.00     0.086 A 
HETATM   23  C   UNL     1       7.980  25.350  56.869  1.00  0.00     0.000 A 
HETATM   24  C   UNL     1       7.455  25.060  54.489  1.00  0.00     0.038 A 
HETATM   25  C   UNL     1       7.897  26.452  57.758  1.00  0.00     0.051 A 
HETATM   26  C   UNL     1       8.394  24.009  56.958  1.00  0.00     0.014 A 
HETATM   27  C   UNL     1       8.336  23.211  55.805  1.00  0.00     0.001 A 
HETATM   28  C   UNL     1       7.878  23.731  54.592  1.00  0.00     0.003 A 
ENDBRANCH  19  20
ENDBRANCH   2  18
TORSDOF 5
ENDMDL
