MODEL 1
REMARK VINA RESULT:      -8.1      0.000      0.000
REMARK  8 active torsions:
REMARK  status: ('A' for Active; 'I' for Inactive)
REMARK    1  A    between atoms: C_2  and  N_3 
REMARK       I    between atoms: N_3  and  C_4 
REMARK    2  A    between atoms: C_4  and  C_5 
REMARK    3  A    between atoms: C_5  and  C_6 
REMARK    4  A    between atoms: C_10  and  C_11 
REMARK    5  A    between atoms: C_11  and  O_12 
REMARK    6  A    between atoms: C_14  and  O_15 
REMARK    7  A    between atoms: C_22  and  N_23 
REMARK       I    between atoms: N_23  and  C_24 
REMARK    8  A    between atoms: C_24  and  C_25 
ROOT
HETATM    1  C   UNL     1       6.195  25.834  54.820  1.00  0.00     0.056 C 
HETATM    2  C   UNL     1       6.006  26.067  56.386  1.00  0.00    -0.030 C 
HETATM    3  C   UNL     1       4.702  25.347  56.864  1.00  0.00     0.016 C 
HETATM    4  C   UNL     1       5.850  27.603  56.772  1.00  0.00     0.012 C 
HETATM    5  C   UNL     1       7.168  28.475  56.935  1.00  0.00     0.008 C 
HETATM    6  C   UNL     1       6.869  29.531  58.045  1.00  0.00     0.020 C 
HETATM    7  C   UNL     1       8.360  27.609  57.452  1.00  0.00     0.128 C 
HETATM    8  C   UNL     1       7.894  26.331  58.143  1.00  0.00     0.033 C 
HETATM    9  C   UNL     1       7.193  25.406  57.152  1.00  0.00     0.013 C 
HETATM   10  C   UNL     1       4.714  28.306  55.979  1.00  0.00     0.055 C 
HETATM   11  C   UNL     1       4.683  27.873  54.562  1.00  0.00     0.012 A 
HETATM   12  C   UNL     1       5.293  26.755  54.031  1.00  0.00     0.056 A 
HETATM   13  N   UNL     1       5.045  26.548  52.681  1.00  0.00    -0.227 NA
HETATM   14  C   UNL     1       4.316  27.534  52.225  1.00  0.00     0.174 A 
HETATM   15  S   UNL     1       3.833  28.719  53.354  1.00  0.00    -0.055 SA
ENDROOT
BRANCH  14  16
HETATM   16  N   UNL     1       3.874  27.778  50.961  1.00  0.00    -0.300 N 
HETATM   17  C   UNL     1       4.552  28.565  50.063  1.00  0.00     0.281 C 
HETATM   18  O   UNL     1       5.654  29.070  50.240  1.00  0.00    -0.265 OA
HETATM   19  H   UNL     1       2.987  27.381  50.687  1.00  0.00     0.171 HD
BRANCH  17  20
HETATM   20  C   UNL     1       3.811  28.737  48.825  1.00  0.00     0.142 A 
HETATM   21  O   UNL     1       2.936  27.758  48.421  1.00  0.00    -0.317 OA
HETATM   22  C   UNL     1       2.377  28.174  47.257  1.00  0.00     0.143 A 
HETATM   23  C   UNL     1       2.875  29.403  46.894  1.00  0.00     0.027 A 
HETATM   24  C   UNL     1       3.800  29.767  47.903  1.00  0.00     0.045 A 
ENDBRANCH  17  20
ENDBRANCH  14  16
BRANCH   1  25
HETATM   25  C   UNL     1       6.016  24.358  54.409  1.00  0.00     0.114 C 
BRANCH  25  26
HETATM   26  C   UNL     1       7.297  23.692  53.944  1.00  0.00     0.218 C 
HETATM   27  N   UNL     1       7.473  22.404  54.375  1.00  0.00    -0.357 N 
HETATM   28  H   UNL     1       6.687  21.944  54.843  1.00  0.00     0.162 HD
HETATM   29  O   UNL     1       8.120  24.313  53.272  1.00  0.00    -0.274 OA
BRANCH  27  30
HETATM   30  C   UNL     1       8.690  21.625  54.212  1.00  0.00     0.076 C 
HETATM   31  C   UNL     1       8.550  20.591  53.095  1.00  0.00     0.032 C 
HETATM   32  C   UNL     1       9.168  20.986  55.513  1.00  0.00     0.032 C 
ENDBRANCH  27  30
ENDBRANCH  25  26
ENDBRANCH   1  25
BRANCH   5  33
HETATM   33  C   UNL     1       7.578  29.303  55.689  1.00  0.00     0.176 C 
BRANCH  33  34
HETATM   34  O   UNL     1       8.873  29.863  55.794  1.00  0.00    -0.400 OA
HETATM   35  H   UNL     1       8.929  30.515  55.061  1.00  0.00     0.209 HD
ENDBRANCH  33  34
ENDBRANCH   5  33
BRANCH   7  36
HETATM   36  O   UNL     1       9.245  27.254  56.384  1.00  0.00    -0.395 OA
HETATM   37  H   UNL     1       8.739  27.318  55.552  1.00  0.00     0.210 HD
ENDBRANCH   7  36
TORSDOF 8
ENDMDL
MODEL 2
REMARK VINA RESULT:      -7.6      3.099      7.436
REMARK  8 active torsions:
REMARK  status: ('A' for Active; 'I' for Inactive)
REMARK    1  A    between atoms: C_2  and  N_3 
REMARK       I    between atoms: N_3  and  C_4 
REMARK    2  A    between atoms: C_4  and  C_5 
REMARK    3  A    between atoms: C_5  and  C_6 
REMARK    4  A    between atoms: C_10  and  C_11 
REMARK    5  A    between atoms: C_11  and  O_12 
REMARK    6  A    between atoms: C_14  and  O_15 
REMARK    7  A    between atoms: C_22  and  N_23 
REMARK       I    between atoms: N_23  and  C_24 
REMARK    8  A    between atoms: C_24  and  C_25 
ROOT
HETATM    1  C   UNL     1       6.099  26.175  55.550  1.00  0.00     0.056 C 
HETATM    2  C   UNL     1       6.443  25.810  54.037  1.00  0.00    -0.030 C 
HETATM    3  C   UNL     1       7.737  24.931  53.996  1.00  0.00     0.016 C 
HETATM    4  C   UNL     1       6.729  27.090  53.137  1.00  0.00     0.012 C 
HETATM    5  C   UNL     1       5.487  27.873  52.529  1.00  0.00     0.008 C 
HETATM    6  C   UNL     1       5.951  28.438  51.148  1.00  0.00     0.020 C 
HETATM    7  C   UNL     1       4.295  26.908  52.238  1.00  0.00     0.128 C 
HETATM    8  C   UNL     1       4.742  25.454  52.114  1.00  0.00     0.033 C 
HETATM    9  C   UNL     1       5.291  24.942  53.442  1.00  0.00     0.013 C 
HETATM   10  C   UNL     1       7.830  28.008  53.736  1.00  0.00     0.055 C 
HETATM   11  C   UNL     1       7.706  28.127  55.209  1.00  0.00     0.012 A 
HETATM   12  C   UNL     1       6.982  27.299  56.042  1.00  0.00     0.056 A 
HETATM   13  N   UNL     1       7.094  27.598  57.392  1.00  0.00    -0.227 NA
HETATM   14  C   UNL     1       7.839  28.664  57.533  1.00  0.00     0.174 A 
HETATM   15  S   UNL     1       8.495  29.337  56.108  1.00  0.00    -0.055 SA
ENDROOT
BRANCH  14  16
HETATM   16  N   UNL     1       8.180  29.347  58.661  1.00  0.00    -0.300 N 
HETATM   17  C   UNL     1       7.583  30.523  59.040  1.00  0.00     0.281 C 
HETATM   18  O   UNL     1       6.635  31.060  58.481  1.00  0.00    -0.265 OA
HETATM   19  H   UNL     1       8.930  28.977  59.226  1.00  0.00     0.171 HD
BRANCH  17  20
HETATM   20  C   UNL     1       8.203  31.087  60.228  1.00  0.00     0.142 A 
HETATM   21  O   UNL     1       7.469  31.195  61.384  1.00  0.00    -0.317 OA
HETATM   22  C   UNL     1       8.282  31.734  62.327  1.00  0.00     0.143 A 
HETATM   23  C   UNL     1       9.528  31.983  61.805  1.00  0.00     0.027 A 
HETATM   24  C   UNL     1       9.479  31.567  60.452  1.00  0.00     0.045 A 
ENDBRANCH  17  20
ENDBRANCH  14  16
BRANCH   1  25
HETATM   25  C   UNL     1       6.148  24.950  56.488  1.00  0.00     0.114 C 
BRANCH  25  26
HETATM   26  C   UNL     1       7.501  24.267  56.531  1.00  0.00     0.218 C 
HETATM   27  N   UNL     1       7.523  22.989  56.037  1.00  0.00    -0.357 N 
HETATM   28  H   UNL     1       6.687  22.647  55.555  1.00  0.00     0.162 HD
HETATM   29  O   UNL     1       8.475  24.831  57.028  1.00  0.00    -0.274 OA
BRANCH  27  30
HETATM   30  C   UNL     1       8.650  22.074  56.132  1.00  0.00     0.076 C 
HETATM   31  C   UNL     1       9.413  21.982  54.812  1.00  0.00     0.032 C 
HETATM   32  C   UNL     1       8.254  20.694  56.650  1.00  0.00     0.032 C 
ENDBRANCH  27  30
ENDBRANCH  25  26
ENDBRANCH   1  25
BRANCH   5  33
HETATM   33  C   UNL     1       5.019  29.112  53.336  1.00  0.00     0.176 C 
BRANCH  33  34
HETATM   34  O   UNL     1       3.987  29.837  52.695  1.00  0.00    -0.400 OA
HETATM   35  H   UNL     1       3.205  29.741  53.282  1.00  0.00     0.209 HD
ENDBRANCH  33  34
ENDBRANCH   5  33
BRANCH   7  36
HETATM   36  O   UNL     1       3.298  26.994  53.261  1.00  0.00    -0.395 OA
HETATM   37  H   UNL     1       2.970  26.090  53.428  1.00  0.00     0.210 HD
ENDBRANCH   7  36
TORSDOF 8
ENDMDL
MODEL 3
REMARK VINA RESULT:      -7.5      5.059      8.234
REMARK  8 active torsions:
REMARK  status: ('A' for Active; 'I' for Inactive)
REMARK    1  A    between atoms: C_2  and  N_3 
REMARK       I    between atoms: N_3  and  C_4 
REMARK    2  A    between atoms: C_4  and  C_5 
REMARK    3  A    between atoms: C_5  and  C_6 
REMARK    4  A    between atoms: C_10  and  C_11 
REMARK    5  A    between atoms: C_11  and  O_12 
REMARK    6  A    between atoms: C_14  and  O_15 
REMARK    7  A    between atoms: C_22  and  N_23 
REMARK       I    between atoms: N_23  and  C_24 
REMARK    8  A    between atoms: C_24  and  C_25 
ROOT
HETATM    1  C   UNL     1       7.538  29.470  57.710  1.00  0.00     0.056 C 
HETATM    2  C   UNL     1       8.142  28.529  56.573  1.00  0.00    -0.030 C 
HETATM    3  C   UNL     1       9.054  29.378  55.626  1.00  0.00     0.016 C 
HETATM    4  C   UNL     1       7.024  27.862  55.658  1.00  0.00     0.012 C 
HETATM    5  C   UNL     1       6.309  26.545  56.186  1.00  0.00     0.008 C 
HETATM    6  C   UNL     1       5.977  25.685  54.925  1.00  0.00     0.020 C 
HETATM    7  C   UNL     1       7.273  25.690  57.068  1.00  0.00     0.128 C 
HETATM    8  C   UNL     1       8.741  26.018  56.809  1.00  0.00     0.033 C 
HETATM    9  C   UNL     1       9.058  27.450  57.230  1.00  0.00     0.013 C 
HETATM   10  C   UNL     1       6.058  28.908  55.038  1.00  0.00     0.055 C 
HETATM   11  C   UNL     1       5.710  29.977  56.005  1.00  0.00     0.012 A 
HETATM   12  C   UNL     1       6.378  30.277  57.175  1.00  0.00     0.056 A 
HETATM   13  N   UNL     1       5.878  31.374  57.860  1.00  0.00    -0.227 NA
HETATM   14  C   UNL     1       4.825  31.827  57.231  1.00  0.00     0.174 A 
HETATM   15  S   UNL     1       4.398  31.038  55.778  1.00  0.00    -0.055 SA
ENDROOT
BRANCH  14  16
HETATM   16  N   UNL     1       3.987  32.850  57.557  1.00  0.00    -0.300 N 
HETATM   17  C   UNL     1       4.281  34.170  57.326  1.00  0.00     0.281 C 
HETATM   18  O   UNL     1       5.268  34.593  56.736  1.00  0.00    -0.265 OA
HETATM   19  H   UNL     1       3.119  32.618  58.019  1.00  0.00     0.171 HD
BRANCH  17  20
HETATM   20  C   UNL     1       3.259  35.055  57.859  1.00  0.00     0.142 A 
HETATM   21  O   UNL     1       1.947  34.650  57.854  1.00  0.00    -0.317 OA
HETATM   22  C   UNL     1       1.216  35.647  58.413  1.00  0.00     0.143 A 
HETATM   23  C   UNL     1       2.028  36.695  58.777  1.00  0.00     0.027 A 
HETATM   24  C   UNL     1       3.345  36.315  58.421  1.00  0.00     0.045 A 
ENDBRANCH  17  20
ENDBRANCH  14  16
BRANCH   1  25
HETATM   25  C   UNL     1       8.605  30.364  58.376  1.00  0.00     0.114 C 
BRANCH  25  26
HETATM   26  C   UNL     1       8.487  30.436  59.886  1.00  0.00     0.218 C 
HETATM   27  N   UNL     1       7.432  31.175  60.352  1.00  0.00    -0.357 N 
HETATM   28  H   UNL     1       6.734  31.495  59.674  1.00  0.00     0.162 HD
HETATM   29  O   UNL     1       9.326  29.900  60.609  1.00  0.00    -0.274 OA
BRANCH  27  30
HETATM   30  C   UNL     1       7.212  31.536  61.744  1.00  0.00     0.076 C 
HETATM   31  C   UNL     1       5.890  32.279  61.930  1.00  0.00     0.032 C 
HETATM   32  C   UNL     1       8.380  32.308  62.350  1.00  0.00     0.032 C 
ENDBRANCH  27  30
ENDBRANCH  25  26
ENDBRANCH   1  25
BRANCH   5  33
HETATM   33  C   UNL     1       4.948  26.764  56.896  1.00  0.00     0.176 C 
BRANCH  33  34
HETATM   34  O   UNL     1       4.353  25.561  57.342  1.00  0.00    -0.400 OA
HETATM   35  H   UNL     1       4.892  25.280  58.114  1.00  0.00     0.209 HD
ENDBRANCH  33  34
ENDBRANCH   5  33
BRANCH   7  36
HETATM   36  O   UNL     1       7.002  25.877  58.461  1.00  0.00    -0.395 OA
HETATM   37  H   UNL     1       6.110  25.521  58.636  1.00  0.00     0.210 HD
ENDBRANCH   7  36
TORSDOF 8
ENDMDL
MODEL 4
REMARK VINA RESULT:      -7.4      7.472     10.866
REMARK  8 active torsions:
REMARK  status: ('A' for Active; 'I' for Inactive)
REMARK    1  A    between atoms: C_2  and  N_3 
REMARK       I    between atoms: N_3  and  C_4 
REMARK    2  A    between atoms: C_4  and  C_5 
REMARK    3  A    between atoms: C_5  and  C_6 
REMARK    4  A    between atoms: C_10  and  C_11 
REMARK    5  A    between atoms: C_11  and  O_12 
REMARK    6  A    between atoms: C_14  and  O_15 
REMARK    7  A    between atoms: C_22  and  N_23 
REMARK       I    between atoms: N_23  and  C_24 
REMARK    8  A    between atoms: C_24  and  C_25 
ROOT
HETATM    1  C   UNL     1       5.271  34.299  62.667  1.00  0.00     0.056 C 
HETATM    2  C   UNL     1       4.384  35.376  63.440  1.00  0.00    -0.030 C 
HETATM    3  C   UNL     1       3.396  34.640  64.403  1.00  0.00     0.016 C 
HETATM    4  C   UNL     1       3.497  36.267  62.464  1.00  0.00     0.012 C 
HETATM    5  C   UNL     1       4.177  37.521  61.766  1.00  0.00     0.008 C 
HETATM    6  C   UNL     1       3.063  38.606  61.619  1.00  0.00     0.020 C 
HETATM    7  C   UNL     1       5.288  38.142  62.671  1.00  0.00     0.128 C 
HETATM    8  C   UNL     1       5.121  37.761  64.139  1.00  0.00     0.033 C 
HETATM    9  C   UNL     1       5.309  36.259  64.333  1.00  0.00     0.013 C 
HETATM   10  C   UNL     1       2.608  35.414  61.518  1.00  0.00     0.055 C 
HETATM   11  C   UNL     1       3.331  34.222  61.011  1.00  0.00     0.012 A 
HETATM   12  C   UNL     1       4.488  33.680  61.532  1.00  0.00     0.056 A 
HETATM   13  N   UNL     1       4.915  32.519  60.903  1.00  0.00    -0.227 NA
HETATM   14  C   UNL     1       4.115  32.256  59.903  1.00  0.00     0.174 A 
HETATM   15  S   UNL     1       2.791  33.311  59.679  1.00  0.00    -0.055 SA
ENDROOT
BRANCH  14  16
HETATM   16  N   UNL     1       4.170  31.254  58.982  1.00  0.00    -0.300 N 
HETATM   17  C   UNL     1       5.042  31.251  57.922  1.00  0.00     0.281 C 
HETATM   18  O   UNL     1       5.920  32.079  57.712  1.00  0.00    -0.265 OA
HETATM   19  H   UNL     1       3.513  30.493  59.074  1.00  0.00     0.171 HD
BRANCH  17  20
HETATM   20  C   UNL     1       4.823  30.115  57.043  1.00  0.00     0.142 A 
HETATM   21  O   UNL     1       5.336  28.887  57.387  1.00  0.00    -0.317 OA
HETATM   22  C   UNL     1       4.978  28.015  56.412  1.00  0.00     0.143 A 
HETATM   23  C   UNL     1       4.247  28.652  55.438  1.00  0.00     0.027 A 
HETATM   24  C   UNL     1       4.146  30.006  55.843  1.00  0.00     0.045 A 
ENDBRANCH  17  20
ENDBRANCH  14  16
BRANCH   1  25
HETATM   25  C   UNL     1       5.868  33.231  63.606  1.00  0.00     0.114 C 
BRANCH  25  26
HETATM   26  C   UNL     1       7.343  32.968  63.373  1.00  0.00     0.218 C 
HETATM   27  N   UNL     1       7.649  32.401  62.164  1.00  0.00    -0.357 N 
HETATM   28  H   UNL     1       6.904  32.330  61.466  1.00  0.00     0.162 HD
HETATM   29  O   UNL     1       8.172  33.212  64.250  1.00  0.00    -0.274 OA
BRANCH  27  30
HETATM   30  C   UNL     1       8.959  31.896  61.784  1.00  0.00     0.076 C 
HETATM   31  C   UNL     1       9.259  32.165  60.310  1.00  0.00     0.032 C 
HETATM   32  C   UNL     1       9.156  30.424  62.137  1.00  0.00     0.032 C 
ENDBRANCH  27  30
ENDBRANCH  25  26
ENDBRANCH   1  25
BRANCH   5  33
HETATM   33  C   UNL     1       4.700  37.280  60.325  1.00  0.00     0.176 C 
BRANCH  33  34
HETATM   34  O   UNL     1       5.201  38.452  59.712  1.00  0.00    -0.400 OA
HETATM   35  H   UNL     1       6.114  38.554  60.063  1.00  0.00     0.209 HD
ENDBRANCH  33  34
ENDBRANCH   5  33
BRANCH   7  36
HETATM   36  O   UNL     1       6.592  37.739  62.240  1.00  0.00    -0.395 OA
HETATM   37  H   UNL     1       6.695  38.023  61.311  1.00  0.00     0.210 HD
ENDBRANCH   7  36
TORSDOF 8
ENDMDL
MODEL 5
REMARK VINA RESULT:      -7.2      4.256      7.937
REMARK  8 active torsions:
REMARK  status: ('A' for Active; 'I' for Inactive)
REMARK    1  A    between atoms: C_2  and  N_3 
REMARK       I    between atoms: N_3  and  C_4 
REMARK    2  A    between atoms: C_4  and  C_5 
REMARK    3  A    between atoms: C_5  and  C_6 
REMARK    4  A    between atoms: C_10  and  C_11 
REMARK    5  A    between atoms: C_11  and  O_12 
REMARK    6  A    between atoms: C_14  and  O_15 
REMARK    7  A    between atoms: C_22  and  N_23 
REMARK       I    between atoms: N_23  and  C_24 
REMARK    8  A    between atoms: C_24  and  C_25 
ROOT
HETATM    1  C   UNL     1       5.540  31.184  57.500  1.00  0.00     0.056 C 
HETATM    2  C   UNL     1       4.217  31.921  57.997  1.00  0.00    -0.030 C 
HETATM    3  C   UNL     1       3.455  30.998  59.005  1.00  0.00     0.016 C 
HETATM    4  C   UNL     1       3.203  32.244  56.814  1.00  0.00     0.012 C 
HETATM    5  C   UNL     1       3.451  33.554  55.949  1.00  0.00     0.008 C 
HETATM    6  C   UNL     1       2.042  34.080  55.526  1.00  0.00     0.020 C 
HETATM    7  C   UNL     1       4.110  34.682  56.804  1.00  0.00     0.128 C 
HETATM    8  C   UNL     1       3.898  34.476  58.301  1.00  0.00     0.033 C 
HETATM    9  C   UNL     1       4.609  33.213  58.779  1.00  0.00     0.013 C 
HETATM   10  C   UNL     1       2.840  30.986  55.978  1.00  0.00     0.055 C 
HETATM   11  C   UNL     1       4.021  30.118  55.751  1.00  0.00     0.012 A 
HETATM   12  C   UNL     1       5.213  30.154  56.444  1.00  0.00     0.056 A 
HETATM   13  N   UNL     1       6.128  29.180  56.070  1.00  0.00    -0.227 NA
HETATM   14  C   UNL     1       5.631  28.485  55.079  1.00  0.00     0.174 A 
HETATM   15  S   UNL     1       4.052  28.891  54.572  1.00  0.00    -0.055 SA
ENDROOT
BRANCH  14  16
HETATM   16  N   UNL     1       6.186  27.469  54.364  1.00  0.00    -0.300 N 
HETATM   17  C   UNL     1       6.110  26.151  54.741  1.00  0.00     0.281 C 
HETATM   18  O   UNL     1       5.481  25.713  55.697  1.00  0.00    -0.265 OA
HETATM   19  H   UNL     1       6.702  27.707  53.530  1.00  0.00     0.171 HD
BRANCH  17  20
HETATM   20  C   UNL     1       6.868  25.288  53.851  1.00  0.00     0.142 A 
HETATM   21  O   UNL     1       7.347  25.793  52.667  1.00  0.00    -0.317 OA
HETATM   22  C   UNL     1       8.020  24.792  52.046  1.00  0.00     0.143 A 
HETATM   23  C   UNL     1       7.984  23.645  52.802  1.00  0.00     0.027 A 
HETATM   24  C   UNL     1       7.242  23.962  53.965  1.00  0.00     0.045 A 
ENDBRANCH  17  20
ENDBRANCH  14  16
BRANCH   1  25
HETATM   25  C   UNL     1       6.361  30.581  58.660  1.00  0.00     0.114 C 
BRANCH  25  26
HETATM   26  C   UNL     1       7.201  31.598  59.408  1.00  0.00     0.218 C 
HETATM   27  N   UNL     1       6.905  31.730  60.739  1.00  0.00    -0.357 N 
HETATM   28  H   UNL     1       6.260  31.054  61.157  1.00  0.00     0.162 HD
HETATM   29  O   UNL     1       8.044  32.272  58.818  1.00  0.00    -0.274 OA
BRANCH  27  30
HETATM   30  C   UNL     1       7.445  32.755  61.619  1.00  0.00     0.076 C 
HETATM   31  C   UNL     1       8.176  32.143  62.813  1.00  0.00     0.032 C 
HETATM   32  C   UNL     1       6.397  33.772  62.063  1.00  0.00     0.032 C 
ENDBRANCH  27  30
ENDBRANCH  25  26
ENDBRANCH   1  25
BRANCH   5  33
HETATM   33  C   UNL     1       4.218  33.339  54.619  1.00  0.00     0.176 C 
BRANCH  33  34
HETATM   34  O   UNL     1       4.397  34.532  53.880  1.00  0.00    -0.400 OA
HETATM   35  H   UNL     1       5.203  34.948  54.257  1.00  0.00     0.209 HD
ENDBRANCH  33  34
ENDBRANCH   5  33
BRANCH   7  36
HETATM   36  O   UNL     1       5.516  34.769  56.549  1.00  0.00    -0.395 OA
HETATM   37  H   UNL     1       5.687  35.640  56.142  1.00  0.00     0.210 HD
ENDBRANCH   7  36
TORSDOF 8
ENDMDL
MODEL 6
REMARK VINA RESULT:      -7.1      2.427      7.679
REMARK  8 active torsions:
REMARK  status: ('A' for Active; 'I' for Inactive)
REMARK    1  A    between atoms: C_2  and  N_3 
REMARK       I    between atoms: N_3  and  C_4 
REMARK    2  A    between atoms: C_4  and  C_5 
REMARK    3  A    between atoms: C_5  and  C_6 
REMARK    4  A    between atoms: C_10  and  C_11 
REMARK    5  A    between atoms: C_11  and  O_12 
REMARK    6  A    between atoms: C_14  and  O_15 
REMARK    7  A    between atoms: C_22  and  N_23 
REMARK       I    between atoms: N_23  and  C_24 
REMARK    8  A    between atoms: C_24  and  C_25 
ROOT
HETATM    1  C   UNL     1       4.385  29.143  52.430  1.00  0.00     0.056 C 
HETATM    2  C   UNL     1       3.437  29.787  51.321  1.00  0.00    -0.030 C 
HETATM    3  C   UNL     1       1.954  29.380  51.607  1.00  0.00     0.016 C 
HETATM    4  C   UNL     1       3.775  29.288  49.848  1.00  0.00     0.012 C 
HETATM    5  C   UNL     1       4.958  30.004  49.065  1.00  0.00     0.008 C 
HETATM    6  C   UNL     1       4.562  29.991  47.555  1.00  0.00     0.020 C 
HETATM    7  C   UNL     1       5.086  31.504  49.480  1.00  0.00     0.128 C 
HETATM    8  C   UNL     1       3.804  32.046  50.105  1.00  0.00     0.033 C 
HETATM    9  C   UNL     1       3.505  31.342  51.425  1.00  0.00     0.013 C 
HETATM   10  C   UNL     1       3.775  27.739  49.727  1.00  0.00     0.055 C 
HETATM   11  C   UNL     1       4.399  27.095  50.908  1.00  0.00     0.012 A 
HETATM   12  C   UNL     1       4.638  27.683  52.134  1.00  0.00     0.056 A 
HETATM   13  N   UNL     1       5.172  26.829  53.089  1.00  0.00    -0.227 NA
HETATM   14  C   UNL     1       5.375  25.656  52.547  1.00  0.00     0.174 A 
HETATM   15  S   UNL     1       4.900  25.469  50.918  1.00  0.00    -0.055 SA
ENDROOT
BRANCH  14  16
HETATM   16  N   UNL     1       5.924  24.532  53.083  1.00  0.00    -0.300 N 
HETATM   17  C   UNL     1       7.257  24.220  52.981  1.00  0.00     0.281 C 
HETATM   18  O   UNL     1       8.124  24.929  52.483  1.00  0.00    -0.265 OA
HETATM   19  H   UNL     1       5.308  23.884  53.553  1.00  0.00     0.171 HD
BRANCH  17  20
HETATM   20  C   UNL     1       7.556  22.919  53.556  1.00  0.00     0.142 A 
HETATM   21  O   UNL     1       7.467  22.748  54.916  1.00  0.00    -0.317 OA
HETATM   22  C   UNL     1       7.781  21.454  55.179  1.00  0.00     0.143 A 
HETATM   23  C   UNL     1       8.079  20.784  54.017  1.00  0.00     0.027 A 
HETATM   24  C   UNL     1       7.934  21.726  52.970  1.00  0.00     0.045 A 
ENDBRANCH  17  20
ENDBRANCH  14  16
BRANCH   1  25
HETATM   25  C   UNL     1       3.860  29.359  53.865  1.00  0.00     0.114 C 
BRANCH  25  26
HETATM   26  C   UNL     1       4.875  29.989  54.799  1.00  0.00     0.218 C 
HETATM   27  N   UNL     1       5.951  29.199  55.107  1.00  0.00    -0.357 N 
HETATM   28  H   UNL     1       6.067  28.324  54.588  1.00  0.00     0.162 HD
HETATM   29  O   UNL     1       4.686  31.110  55.268  1.00  0.00    -0.274 OA
BRANCH  27  30
HETATM   30  C   UNL     1       6.957  29.508  56.111  1.00  0.00     0.076 C 
HETATM   31  C   UNL     1       8.351  29.069  55.664  1.00  0.00     0.032 C 
HETATM   32  C   UNL     1       6.610  28.957  57.491  1.00  0.00     0.032 C 
ENDBRANCH  27  30
ENDBRANCH  25  26
ENDBRANCH   1  25
BRANCH   5  33
HETATM   33  C   UNL     1       6.331  29.286  49.130  1.00  0.00     0.176 C 
BRANCH  33  34
HETATM   34  O   UNL     1       6.475  28.271  48.156  1.00  0.00    -0.400 OA
HETATM   35  H   UNL     1       5.571  27.907  48.030  1.00  0.00     0.209 HD
ENDBRANCH  33  34
ENDBRANCH   5  33
BRANCH   7  36
HETATM   36  O   UNL     1       6.161  31.694  50.406  1.00  0.00    -0.395 OA
HETATM   37  H   UNL     1       6.851  32.214  49.952  1.00  0.00     0.210 HD
ENDBRANCH   7  36
TORSDOF 8
ENDMDL
MODEL 7
REMARK VINA RESULT:      -7.1      2.401      5.267
REMARK  8 active torsions:
REMARK  status: ('A' for Active; 'I' for Inactive)
REMARK    1  A    between atoms: C_2  and  N_3 
REMARK       I    between atoms: N_3  and  C_4 
REMARK    2  A    between atoms: C_4  and  C_5 
REMARK    3  A    between atoms: C_5  and  C_6 
REMARK    4  A    between atoms: C_10  and  C_11 
REMARK    5  A    between atoms: C_11  and  O_12 
REMARK    6  A    between atoms: C_14  and  O_15 
REMARK    7  A    between atoms: C_22  and  N_23 
REMARK       I    between atoms: N_23  and  C_24 
REMARK    8  A    between atoms: C_24  and  C_25 
ROOT
HETATM    1  C   UNL     1       5.911  27.963  54.618  1.00  0.00     0.056 C 
HETATM    2  C   UNL     1       7.378  27.575  55.110  1.00  0.00    -0.030 C 
HETATM    3  C   UNL     1       8.413  28.571  54.490  1.00  0.00     0.016 C 
HETATM    4  C   UNL     1       7.819  26.114  54.659  1.00  0.00     0.012 C 
HETATM    5  C   UNL     1       7.340  24.880  55.538  1.00  0.00     0.008 C 
HETATM    6  C   UNL     1       8.476  23.811  55.459  1.00  0.00     0.020 C 
HETATM    7  C   UNL     1       7.202  25.275  57.042  1.00  0.00     0.128 C 
HETATM    8  C   UNL     1       8.009  26.521  57.393  1.00  0.00     0.033 C 
HETATM    9  C   UNL     1       7.463  27.743  56.658  1.00  0.00     0.013 C 
HETATM   10  C   UNL     1       7.686  25.896  53.127  1.00  0.00     0.055 C 
HETATM   11  C   UNL     1       6.452  26.517  52.587  1.00  0.00     0.012 A 
HETATM   12  C   UNL     1       5.672  27.470  53.210  1.00  0.00     0.056 A 
HETATM   13  N   UNL     1       4.607  27.931  52.449  1.00  0.00    -0.227 NA
HETATM   14  C   UNL     1       4.577  27.278  51.316  1.00  0.00     0.174 A 
HETATM   15  S   UNL     1       5.821  26.138  51.053  1.00  0.00    -0.055 SA
ENDROOT
BRANCH  14  16
HETATM   16  N   UNL     1       3.688  27.357  50.288  1.00  0.00    -0.300 N 
HETATM   17  C   UNL     1       3.859  28.182  49.205  1.00  0.00     0.281 C 
HETATM   18  O   UNL     1       4.843  28.876  48.978  1.00  0.00    -0.265 OA
HETATM   19  H   UNL     1       2.849  26.799  50.347  1.00  0.00     0.171 HD
BRANCH  17  20
HETATM   20  C   UNL     1       2.717  28.141  48.306  1.00  0.00     0.142 A 
HETATM   21  O   UNL     1       1.848  27.079  48.369  1.00  0.00    -0.317 OA
HETATM   22  C   UNL     1       0.880  27.298  47.444  1.00  0.00     0.143 A 
HETATM   23  C   UNL     1       1.106  28.479  46.778  1.00  0.00     0.027 A 
HETATM   24  C   UNL     1       2.289  29.024  47.332  1.00  0.00     0.045 A 
ENDBRANCH  17  20
ENDBRANCH  14  16
BRANCH   1  25
HETATM   25  C   UNL     1       5.611  29.470  54.762  1.00  0.00     0.114 C 
BRANCH  25  26
HETATM   26  C   UNL     1       5.039  29.854  56.113  1.00  0.00     0.218 C 
HETATM   27  N   UNL     1       5.693  30.873  56.753  1.00  0.00    -0.357 N 
HETATM   28  H   UNL     1       6.409  31.386  56.231  1.00  0.00     0.162 HD
HETATM   29  O   UNL     1       4.086  29.239  56.589  1.00  0.00    -0.274 OA
BRANCH  27  30
HETATM   30  C   UNL     1       5.446  31.296  58.123  1.00  0.00     0.076 C 
HETATM   31  C   UNL     1       4.461  32.463  58.181  1.00  0.00     0.032 C 
HETATM   32  C   UNL     1       6.728  31.603  58.892  1.00  0.00     0.032 C 
ENDBRANCH  27  30
ENDBRANCH  25  26
ENDBRANCH   1  25
BRANCH   5  33
HETATM   33  C   UNL     1       6.066  24.155  55.030  1.00  0.00     0.176 C 
BRANCH  33  34
HETATM   34  O   UNL     1       4.908  24.967  55.074  1.00  0.00    -0.400 OA
HETATM   35  H   UNL     1       4.160  24.339  55.186  1.00  0.00     0.209 HD
ENDBRANCH  33  34
ENDBRANCH   5  33
BRANCH   7  36
HETATM   36  O   UNL     1       5.833  25.503  57.394  1.00  0.00    -0.395 OA
HETATM   37  H   UNL     1       5.291  24.862  56.895  1.00  0.00     0.210 HD
ENDBRANCH   7  36
TORSDOF 8
ENDMDL
MODEL 8
REMARK VINA RESULT:      -7.1      3.477      7.311
REMARK  8 active torsions:
REMARK  status: ('A' for Active; 'I' for Inactive)
REMARK    1  A    between atoms: C_2  and  N_3 
REMARK       I    between atoms: N_3  and  C_4 
REMARK    2  A    between atoms: C_4  and  C_5 
REMARK    3  A    between atoms: C_5  and  C_6 
REMARK    4  A    between atoms: C_10  and  C_11 
REMARK    5  A    between atoms: C_11  and  O_12 
REMARK    6  A    between atoms: C_14  and  O_15 
REMARK    7  A    between atoms: C_22  and  N_23 
REMARK       I    between atoms: N_23  and  C_24 
REMARK    8  A    between atoms: C_24  and  C_25 
ROOT
HETATM    1  C   UNL     1       6.175  27.316  55.332  1.00  0.00     0.056 C 
HETATM    2  C   UNL     1       6.731  27.395  53.840  1.00  0.00    -0.030 C 
HETATM    3  C   UNL     1       8.173  28.000  53.853  1.00  0.00     0.016 C 
HETATM    4  C   UNL     1       5.850  28.327  52.897  1.00  0.00     0.012 C 
HETATM    5  C   UNL     1       4.543  27.708  52.239  1.00  0.00     0.008 C 
HETATM    6  C   UNL     1       4.379  28.396  50.846  1.00  0.00     0.020 C 
HETATM    7  C   UNL     1       4.714  26.181  51.965  1.00  0.00     0.128 C 
HETATM    8  C   UNL     1       6.180  25.761  51.903  1.00  0.00     0.033 C 
HETATM    9  C   UNL     1       6.854  25.952  53.259  1.00  0.00     0.013 C 
HETATM   10  C   UNL     1       5.658  29.754  53.478  1.00  0.00     0.055 C 
HETATM   11  C   UNL     1       5.431  29.725  54.944  1.00  0.00     0.012 A 
HETATM   12  C   UNL     1       5.695  28.672  55.795  1.00  0.00     0.056 A 
HETATM   13  N   UNL     1       5.451  28.938  57.135  1.00  0.00    -0.227 NA
HETATM   14  C   UNL     1       4.958  30.145  57.248  1.00  0.00     0.174 A 
HETATM   15  S   UNL     1       4.810  31.052  55.809  1.00  0.00    -0.055 SA
ENDROOT
BRANCH  14  16
HETATM   16  N   UNL     1       4.527  30.810  58.355  1.00  0.00    -0.300 N 
HETATM   17  C   UNL     1       5.218  31.846  58.930  1.00  0.00     0.281 C 
HETATM   18  O   UNL     1       6.243  32.356  58.492  1.00  0.00    -0.265 OA
HETATM   19  H   UNL     1       3.668  30.500  58.785  1.00  0.00     0.171 HD
BRANCH  17  20
HETATM   20  C   UNL     1       4.584  32.310  60.152  1.00  0.00     0.142 A 
HETATM   21  O   UNL     1       5.293  32.291  61.328  1.00  0.00    -0.317 OA
HETATM   22  C   UNL     1       4.479  32.783  62.296  1.00  0.00     0.143 A 
HETATM   23  C   UNL     1       3.252  33.116  61.772  1.00  0.00     0.027 A 
HETATM   24  C   UNL     1       3.318  32.812  60.391  1.00  0.00     0.045 A 
ENDBRANCH  17  20
ENDBRANCH  14  16
BRANCH   1  25
HETATM   25  C   UNL     1       7.190  26.695  56.316  1.00  0.00     0.114 C 
BRANCH  25  26
HETATM   26  C   UNL     1       6.933  25.231  56.617  1.00  0.00     0.218 C 
HETATM   27  N   UNL     1       7.725  24.349  55.930  1.00  0.00    -0.357 N 
HETATM   28  H   UNL     1       8.507  24.728  55.389  1.00  0.00     0.162 HD
HETATM   29  O   UNL     1       6.036  24.896  57.390  1.00  0.00    -0.274 OA
BRANCH  27  30
HETATM   30  C   UNL     1       7.550  22.905  55.914  1.00  0.00     0.076 C 
HETATM   31  C   UNL     1       8.439  22.220  56.950  1.00  0.00     0.032 C 
HETATM   32  C   UNL     1       7.734  22.298  54.526  1.00  0.00     0.032 C 
ENDBRANCH  27  30
ENDBRANCH  25  26
ENDBRANCH   1  25
BRANCH   5  33
HETATM   33  C   UNL     1       3.217  27.997  52.991  1.00  0.00     0.176 C 
BRANCH  33  34
HETATM   34  O   UNL     1       2.213  28.544  52.159  1.00  0.00    -0.400 OA
HETATM   35  H   UNL     1       2.137  27.919  51.404  1.00  0.00     0.209 HD
ENDBRANCH  33  34
ENDBRANCH   5  33
BRANCH   7  36
HETATM   36  O   UNL     1       4.056  25.398  52.967  1.00  0.00    -0.395 OA
HETATM   37  H   UNL     1       4.286  24.463  52.808  1.00  0.00     0.210 HD
ENDBRANCH   7  36
TORSDOF 8
ENDMDL
MODEL 9
REMARK VINA RESULT:      -7.0      7.966     12.158
REMARK  8 active torsions:
REMARK  status: ('A' for Active; 'I' for Inactive)
REMARK    1  A    between atoms: C_2  and  N_3 
REMARK       I    between atoms: N_3  and  C_4 
REMARK    2  A    between atoms: C_4  and  C_5 
REMARK    3  A    between atoms: C_5  and  C_6 
REMARK    4  A    between atoms: C_10  and  C_11 
REMARK    5  A    between atoms: C_11  and  O_12 
REMARK    6  A    between atoms: C_14  and  O_15 
REMARK    7  A    between atoms: C_22  and  N_23 
REMARK       I    between atoms: N_23  and  C_24 
REMARK    8  A    between atoms: C_24  and  C_25 
ROOT
HETATM    1  C   UNL     1       5.149  34.147  62.230  1.00  0.00     0.056 C 
HETATM    2  C   UNL     1       3.693  34.797  62.252  1.00  0.00    -0.030 C 
HETATM    3  C   UNL     1       2.631  33.683  62.532  1.00  0.00     0.016 C 
HETATM    4  C   UNL     1       3.294  35.475  60.869  1.00  0.00     0.012 C 
HETATM    5  C   UNL     1       3.806  36.951  60.580  1.00  0.00     0.008 C 
HETATM    6  C   UNL     1       2.700  37.646  59.723  1.00  0.00     0.020 C 
HETATM    7  C   UNL     1       3.931  37.777  61.900  1.00  0.00     0.128 C 
HETATM    8  C   UNL     1       3.088  37.194  63.032  1.00  0.00     0.033 C 
HETATM    9  C   UNL     1       3.601  35.814  63.432  1.00  0.00     0.013 C 
HETATM   10  C   UNL     1       3.435  34.504  59.665  1.00  0.00     0.055 C 
HETATM   11  C   UNL     1       4.652  33.664  59.775  1.00  0.00     0.012 A 
HETATM   12  C   UNL     1       5.403  33.452  60.912  1.00  0.00     0.056 A 
HETATM   13  N   UNL     1       6.456  32.563  60.751  1.00  0.00    -0.227 NA
HETATM   14  C   UNL     1       6.506  32.182  59.500  1.00  0.00     0.174 A 
HETATM   15  S   UNL     1       5.295  32.792  58.462  1.00  0.00    -0.055 SA
ENDROOT
BRANCH  14  16
HETATM   16  N   UNL     1       7.393  31.362  58.873  1.00  0.00    -0.300 N 
HETATM   17  C   UNL     1       8.745  31.596  58.842  1.00  0.00     0.281 C 
HETATM   18  O   UNL     1       9.332  32.499  59.427  1.00  0.00    -0.265 OA
HETATM   19  H   UNL     1       7.028  30.559  58.384  1.00  0.00     0.171 HD
BRANCH  17  20
HETATM   20  C   UNL     1       9.447  30.620  58.025  1.00  0.00     0.142 A 
HETATM   21  O   UNL     1       8.809  29.456  57.671  1.00  0.00    -0.317 OA
HETATM   22  C   UNL     1       9.675  28.741  56.908  1.00  0.00     0.143 A 
HETATM   23  C   UNL     1      10.864  29.416  56.765  1.00  0.00     0.027 A 
HETATM   24  C   UNL     1      10.719  30.627  57.485  1.00  0.00     0.045 A 
ENDBRANCH  17  20
ENDBRANCH  14  16
BRANCH   1  25
HETATM   25  C   UNL     1       5.406  33.216  63.433  1.00  0.00     0.114 C 
BRANCH  25  26
HETATM   26  C   UNL     1       5.928  33.934  64.662  1.00  0.00     0.218 C 
HETATM   27  N   UNL     1       5.094  33.908  65.749  1.00  0.00    -0.357 N 
HETATM   28  H   UNL     1       4.271  33.301  65.707  1.00  0.00     0.162 HD
HETATM   29  O   UNL     1       7.004  34.531  64.633  1.00  0.00    -0.274 OA
BRANCH  27  30
HETATM   30  C   UNL     1       5.291  34.668  66.974  1.00  0.00     0.076 C 
HETATM   31  C   UNL     1       4.851  33.875  68.204  1.00  0.00     0.032 C 
HETATM   32  C   UNL     1       4.638  36.046  66.930  1.00  0.00     0.032 C 
ENDBRANCH  27  30
ENDBRANCH  25  26
ENDBRANCH   1  25
BRANCH   5  33
HETATM   33  C   UNL     1       5.100  37.054  59.732  1.00  0.00     0.176 C 
BRANCH  33  34
HETATM   34  O   UNL     1       5.425  38.383  59.371  1.00  0.00    -0.400 OA
HETATM   35  H   UNL     1       5.618  38.346  58.408  1.00  0.00     0.209 HD
ENDBRANCH  33  34
ENDBRANCH   5  33
BRANCH   7  36
HETATM   36  O   UNL     1       5.292  37.852  62.336  1.00  0.00    -0.395 OA
HETATM   37  H   UNL     1       5.859  37.721  61.552  1.00  0.00     0.210 HD
ENDBRANCH   7  36
TORSDOF 8
ENDMDL
MODEL 10
REMARK VINA RESULT:      -6.9      3.921      7.256
REMARK  8 active torsions:
REMARK  status: ('A' for Active; 'I' for Inactive)
REMARK    1  A    between atoms: C_2  and  N_3 
REMARK       I    between atoms: N_3  and  C_4 
REMARK    2  A    between atoms: C_4  and  C_5 
REMARK    3  A    between atoms: C_5  and  C_6 
REMARK    4  A    between atoms: C_10  and  C_11 
REMARK    5  A    between atoms: C_11  and  O_12 
REMARK    6  A    between atoms: C_14  and  O_15 
REMARK    7  A    between atoms: C_22  and  N_23 
REMARK       I    between atoms: N_23  and  C_24 
REMARK    8  A    between atoms: C_24  and  C_25 
ROOT
HETATM    1  C   UNL     1       5.567  31.209  57.226  1.00  0.00     0.056 C 
HETATM    2  C   UNL     1       4.256  32.025  57.621  1.00  0.00    -0.030 C 
HETATM    3  C   UNL     1       3.447  31.221  58.693  1.00  0.00     0.016 C 
HETATM    4  C   UNL     1       3.276  32.262  56.390  1.00  0.00     0.012 C 
HETATM    5  C   UNL     1       3.579  33.478  55.413  1.00  0.00     0.008 C 
HETATM    6  C   UNL     1       2.195  34.000  54.911  1.00  0.00     0.020 C 
HETATM    7  C   UNL     1       4.253  34.663  56.174  1.00  0.00     0.128 C 
HETATM    8  C   UNL     1       4.005  34.604  57.679  1.00  0.00     0.033 C 
HETATM    9  C   UNL     1       4.669  33.373  58.288  1.00  0.00     0.013 C 
HETATM   10  C   UNL     1       2.894  30.942  55.667  1.00  0.00     0.055 C 
HETATM   11  C   UNL     1       4.053  30.025  55.549  1.00  0.00     0.012 A 
HETATM   12  C   UNL     1       5.232  30.094  56.262  1.00  0.00     0.056 A 
HETATM   13  N   UNL     1       6.126  29.064  56.003  1.00  0.00    -0.227 NA
HETATM   14  C   UNL     1       5.629  28.294  55.069  1.00  0.00     0.174 A 
HETATM   15  S   UNL     1       4.073  28.692  54.490  1.00  0.00    -0.055 SA
ENDROOT
BRANCH  14  16
HETATM   16  N   UNL     1       6.168  27.200  54.464  1.00  0.00    -0.300 N 
HETATM   17  C   UNL     1       6.039  25.925  54.955  1.00  0.00     0.281 C 
HETATM   18  O   UNL     1       5.370  25.594  55.927  1.00  0.00    -0.265 OA
HETATM   19  H   UNL     1       6.715  27.346  53.628  1.00  0.00     0.171 HD
BRANCH  17  20
HETATM   20  C   UNL     1       6.792  24.961  54.170  1.00  0.00     0.142 A 
HETATM   21  O   UNL     1       7.011  23.703  54.677  1.00  0.00    -0.317 OA
HETATM   22  C   UNL     1       7.718  23.014  53.746  1.00  0.00     0.143 A 
HETATM   23  C   UNL     1       7.966  23.800  52.647  1.00  0.00     0.027 A 
HETATM   24  C   UNL     1       7.370  25.056  52.918  1.00  0.00     0.045 A 
ENDBRANCH  17  20
ENDBRANCH  14  16
BRANCH   1  25
HETATM   25  C   UNL     1       6.346  30.695  58.455  1.00  0.00     0.114 C 
BRANCH  25  26
HETATM   26  C   UNL     1       7.824  31.033  58.428  1.00  0.00     0.218 C 
HETATM   27  N   UNL     1       8.617  30.121  57.783  1.00  0.00    -0.357 N 
HETATM   28  H   UNL     1       8.157  29.375  57.254  1.00  0.00     0.162 HD
HETATM   29  O   UNL     1       8.250  32.036  58.999  1.00  0.00    -0.274 OA
BRANCH  27  30
HETATM   30  C   UNL     1      10.072  30.133  57.777  1.00  0.00     0.076 C 
HETATM   31  C   UNL     1      10.624  31.534  58.036  1.00  0.00     0.032 C 
HETATM   32  C   UNL     1      10.667  29.519  56.513  1.00  0.00     0.032 C 
ENDBRANCH  27  30
ENDBRANCH  25  26
ENDBRANCH   1  25
BRANCH   5  33
HETATM   33  C   UNL     1       4.367  33.119  54.126  1.00  0.00     0.176 C 
BRANCH  33  34
HETATM   34  O   UNL     1       3.552  33.067  52.971  1.00  0.00    -0.400 OA
HETATM   35  H   UNL     1       3.291  33.998  52.800  1.00  0.00     0.209 HD
ENDBRANCH  33  34
ENDBRANCH   5  33
BRANCH   7  36
HETATM   36  O   UNL     1       5.666  34.689  55.945  1.00  0.00    -0.395 OA
HETATM   37  H   UNL     1       5.844  34.151  55.150  1.00  0.00     0.210 HD
ENDBRANCH   7  36
TORSDOF 8
ENDMDL
