MODEL 1
REMARK VINA RESULT:      -9.3      0.000      0.000
REMARK  4 active torsions:
REMARK  status: ('A' for Active; 'I' for Inactive)
REMARK    1  A    between atoms: C_5  and  N_6 
REMARK       I    between atoms: N_6  and  C_7 
REMARK    2  A    between atoms: C_7  and  C_8 
REMARK    3  A    between atoms: N_10  and  C_11 
REMARK    4  A    between atoms: C_21  and  O_22 
ROOT
HETATM    1  N   UNL     1       5.434  26.491  50.453  1.00  0.00    -0.346 N 
HETATM    2  C   UNL     1       5.319  26.232  51.796  1.00  0.00     0.255 C 
HETATM    3  O   UNL     1       4.461  26.757  52.497  1.00  0.00    -0.268 OA
HETATM    4  H   UNL     1       6.073  25.960  49.879  1.00  0.00     0.163 HD
ENDROOT
BRANCH   2   5
HETATM    5  C   UNL     1       6.252  25.256  52.326  1.00  0.00     0.068 A 
HETATM    6  C   UNL     1       6.106  24.368  53.376  1.00  0.00     0.137 A 
HETATM    7  N   UNL     1       7.302  23.695  53.546  1.00  0.00    -0.243 N 
HETATM    8  N   UNL     1       8.181  24.066  52.571  1.00  0.00    -0.179 NA
HETATM    9  C   UNL     1       7.556  25.009  51.869  1.00  0.00     0.157 A 
BRANCH   7  10
HETATM   10  C   UNL     1       7.714  22.736  54.530  1.00  0.00     0.079 A 
HETATM   11  C   UNL     1       7.957  21.372  54.297  1.00  0.00     0.062 A 
HETATM   12 CL   UNL     1       7.781  20.537  52.795  1.00  0.00    -0.082 Cl
HETATM   13  C   UNL     1       8.351  20.539  55.364  1.00  0.00     0.026 A 
HETATM   14  C   UNL     1       8.502  21.037  56.656  1.00  0.00     0.002 A 
HETATM   15  C   UNL     1       8.259  22.378  56.901  1.00  0.00     0.002 A 
HETATM   16  C   UNL     1       7.871  23.217  55.853  1.00  0.00     0.033 A 
ENDBRANCH   7  10
ENDBRANCH   2   5
BRANCH   1  17
HETATM   17  C   UNL     1       4.456  27.300  49.757  1.00  0.00     0.147 C 
HETATM   18  C   UNL     1       4.893  28.731  49.621  1.00  0.00    -0.027 A 
HETATM   19  C   UNL     1       4.640  29.212  48.332  1.00  0.00    -0.047 A 
HETATM   20  C   UNL     1       5.417  29.565  50.599  1.00  0.00     0.010 A 
HETATM   21  C   UNL     1       4.921  30.525  47.990  1.00  0.00     0.008 A 
HETATM   22  C   UNL     1       4.000  28.162  47.471  1.00  0.00     0.073 C 
HETATM   23  C   UNL     1       5.467  31.363  48.965  1.00  0.00     0.001 A 
HETATM   24  C   UNL     1       5.710  30.887  50.262  1.00  0.00     0.001 A 
HETATM   25  C   UNL     1       4.284  26.875  48.267  1.00  0.00     0.149 C 
BRANCH  25  26
HETATM   26  O   UNL     1       5.483  26.268  47.747  1.00  0.00    -0.393 OA
HETATM   27  H   UNL     1       6.208  26.881  47.956  1.00  0.00     0.210 HD
ENDBRANCH  25  26
ENDBRANCH   1  17
TORSDOF 4
ENDMDL
MODEL 2
REMARK VINA RESULT:      -9.2      7.862      9.593
REMARK  4 active torsions:
REMARK  status: ('A' for Active; 'I' for Inactive)
REMARK    1  A    between atoms: C_5  and  N_6 
REMARK       I    between atoms: N_6  and  C_7 
REMARK    2  A    between atoms: C_7  and  C_8 
REMARK    3  A    between atoms: N_10  and  C_11 
REMARK    4  A    between atoms: C_21  and  O_22 
ROOT
HETATM    1  N   UNL     1       7.621  30.431  59.179  1.00  0.00    -0.346 N 
HETATM    2  C   UNL     1       8.230  29.908  58.066  1.00  0.00     0.255 C 
HETATM    3  O   UNL     1       9.234  30.406  57.569  1.00  0.00    -0.268 OA
HETATM    4  H   UNL     1       6.866  29.937  59.634  1.00  0.00     0.163 HD
ENDROOT
BRANCH   2   5
HETATM    5  C   UNL     1       7.634  28.695  57.540  1.00  0.00     0.068 A 
HETATM    6  C   UNL     1       8.236  27.576  56.993  1.00  0.00     0.137 A 
HETATM    7  N   UNL     1       7.244  26.713  56.567  1.00  0.00    -0.243 N 
HETATM    8  N   UNL     1       6.021  27.212  56.911  1.00  0.00    -0.179 NA
HETATM    9  C   UNL     1       6.264  28.397  57.465  1.00  0.00     0.157 A 
BRANCH   7  10
HETATM   10  C   UNL     1       7.315  25.464  55.866  1.00  0.00     0.079 A 
HETATM   11  C   UNL     1       8.025  24.325  56.286  1.00  0.00     0.062 A 
HETATM   12 CL   UNL     1       8.992  24.182  57.710  1.00  0.00    -0.082 Cl
HETATM   13  C   UNL     1       8.015  23.162  55.490  1.00  0.00     0.026 A 
HETATM   14  C   UNL     1       7.319  23.112  54.285  1.00  0.00     0.002 A 
HETATM   15  C   UNL     1       6.622  24.230  53.855  1.00  0.00     0.002 A 
HETATM   16  C   UNL     1       6.619  25.389  54.635  1.00  0.00     0.033 A 
ENDBRANCH   7  10
ENDBRANCH   2   5
BRANCH   1  17
HETATM   17  C   UNL     1       8.213  31.528  59.915  1.00  0.00     0.147 C 
HETATM   18  C   UNL     1       7.198  32.286  60.723  1.00  0.00    -0.027 A 
HETATM   19  C   UNL     1       7.684  32.561  62.006  1.00  0.00    -0.047 A 
HETATM   20  C   UNL     1       5.955  32.753  60.320  1.00  0.00     0.010 A 
HETATM   21  C   UNL     1       6.935  33.293  62.914  1.00  0.00     0.008 A 
HETATM   22  C   UNL     1       9.076  32.029  62.190  1.00  0.00     0.073 C 
HETATM   23  C   UNL     1       5.675  33.749  62.520  1.00  0.00     0.001 A 
HETATM   24  C   UNL     1       5.190  33.484  61.230  1.00  0.00     0.001 A 
HETATM   25  C   UNL     1       9.202  31.041  61.017  1.00  0.00     0.149 C 
BRANCH  25  26
HETATM   26  O   UNL     1       8.863  29.723  61.488  1.00  0.00    -0.393 OA
HETATM   27  H   UNL     1       7.956  29.551  61.181  1.00  0.00     0.210 HD
ENDBRANCH  25  26
ENDBRANCH   1  17
TORSDOF 4
ENDMDL
MODEL 3
REMARK VINA RESULT:      -9.2      6.269      9.011
REMARK  4 active torsions:
REMARK  status: ('A' for Active; 'I' for Inactive)
REMARK    1  A    between atoms: C_5  and  N_6 
REMARK       I    between atoms: N_6  and  C_7 
REMARK    2  A    between atoms: C_7  and  C_8 
REMARK    3  A    between atoms: N_10  and  C_11 
REMARK    4  A    between atoms: C_21  and  O_22 
ROOT
HETATM    1  N   UNL     1       7.214  25.672  56.641  1.00  0.00    -0.346 N 
HETATM    2  C   UNL     1       6.114  26.461  56.863  1.00  0.00     0.255 C 
HETATM    3  O   UNL     1       4.968  26.031  56.792  1.00  0.00    -0.268 OA
HETATM    4  H   UNL     1       8.145  26.022  56.818  1.00  0.00     0.163 HD
ENDROOT
BRANCH   2   5
HETATM    5  C   UNL     1       6.396  27.834  57.237  1.00  0.00     0.068 A 
HETATM    6  C   UNL     1       7.415  28.350  58.017  1.00  0.00     0.137 A 
HETATM    7  N   UNL     1       7.217  29.713  58.145  1.00  0.00    -0.243 N 
HETATM    8  N   UNL     1       6.146  30.095  57.390  1.00  0.00    -0.179 NA
HETATM    9  C   UNL     1       5.654  28.970  56.876  1.00  0.00     0.157 A 
BRANCH   7  10
HETATM   10  C   UNL     1       7.925  30.702  58.904  1.00  0.00     0.079 A 
HETATM   11  C   UNL     1       9.286  31.023  58.770  1.00  0.00     0.062 A 
HETATM   12 CL   UNL     1      10.417  30.281  57.695  1.00  0.00    -0.082 Cl
HETATM   13  C   UNL     1       9.856  32.017  59.591  1.00  0.00     0.026 A 
HETATM   14  C   UNL     1       9.099  32.691  60.546  1.00  0.00     0.002 A 
HETATM   15  C   UNL     1       7.757  32.380  60.694  1.00  0.00     0.002 A 
HETATM   16  C   UNL     1       7.178  31.400  59.885  1.00  0.00     0.033 A 
ENDBRANCH   7  10
ENDBRANCH   2   5
BRANCH   1  17
HETATM   17  C   UNL     1       7.086  24.243  56.442  1.00  0.00     0.147 C 
HETATM   18  C   UNL     1       7.358  23.839  55.020  1.00  0.00    -0.027 A 
HETATM   19  C   UNL     1       8.170  22.700  54.970  1.00  0.00    -0.047 A 
HETATM   20  C   UNL     1       6.863  24.409  53.856  1.00  0.00     0.010 A 
HETATM   21  C   UNL     1       8.513  22.119  53.759  1.00  0.00     0.008 A 
HETATM   22  C   UNL     1       8.518  22.214  56.347  1.00  0.00     0.073 C 
HETATM   23  C   UNL     1       8.033  22.701  52.584  1.00  0.00     0.001 A 
HETATM   24  C   UNL     1       7.211  23.836  52.632  1.00  0.00     0.001 A 
HETATM   25  C   UNL     1       8.171  23.435  57.218  1.00  0.00     0.149 C 
BRANCH  25  26
HETATM   26  O   UNL     1       9.368  24.211  57.419  1.00  0.00    -0.393 OA
HETATM   27  H   UNL     1      10.112  23.605  57.263  1.00  0.00     0.210 HD
ENDBRANCH  25  26
ENDBRANCH   1  17
TORSDOF 4
ENDMDL
MODEL 4
REMARK VINA RESULT:      -9.1      8.975     10.654
REMARK  4 active torsions:
REMARK  status: ('A' for Active; 'I' for Inactive)
REMARK    1  A    between atoms: C_5  and  N_6 
REMARK       I    between atoms: N_6  and  C_7 
REMARK    2  A    between atoms: C_7  and  C_8 
REMARK    3  A    between atoms: N_10  and  C_11 
REMARK    4  A    between atoms: C_21  and  O_22 
ROOT
HETATM    1  N   UNL     1       7.848  31.380  60.196  1.00  0.00    -0.346 N 
HETATM    2  C   UNL     1       8.752  31.373  59.164  1.00  0.00     0.255 C 
HETATM    3  O   UNL     1       9.553  32.285  58.982  1.00  0.00    -0.268 OA
HETATM    4  H   UNL     1       7.281  30.568  60.390  1.00  0.00     0.163 HD
ENDROOT
BRANCH   2   5
HETATM    5  C   UNL     1       8.733  30.191  58.325  1.00  0.00     0.068 A 
HETATM    6  C   UNL     1       7.753  29.227  58.171  1.00  0.00     0.137 A 
HETATM    7  N   UNL     1       8.230  28.255  57.312  1.00  0.00    -0.243 N 
HETATM    8  N   UNL     1       9.457  28.620  56.839  1.00  0.00    -0.179 NA
HETATM    9  C   UNL     1       9.755  29.756  57.465  1.00  0.00     0.157 A 
BRANCH   7  10
HETATM   10  C   UNL     1       7.658  27.012  56.882  1.00  0.00     0.079 A 
HETATM   11  C   UNL     1       6.506  26.866  56.090  1.00  0.00     0.062 A 
HETATM   12 CL   UNL     1       5.504  28.138  55.489  1.00  0.00    -0.082 Cl
HETATM   13  C   UNL     1       6.050  25.577  55.748  1.00  0.00     0.026 A 
HETATM   14  C   UNL     1       6.714  24.433  56.183  1.00  0.00     0.002 A 
HETATM   15  C   UNL     1       7.847  24.561  56.970  1.00  0.00     0.002 A 
HETATM   16  C   UNL     1       8.313  25.833  57.314  1.00  0.00     0.033 A 
ENDBRANCH   7  10
ENDBRANCH   2   5
BRANCH   1  17
HETATM   17  C   UNL     1       7.880  32.407  61.216  1.00  0.00     0.147 C 
HETATM   18  C   UNL     1       6.505  32.766  61.706  1.00  0.00    -0.027 A 
HETATM   19  C   UNL     1       6.484  32.874  63.101  1.00  0.00    -0.047 A 
HETATM   20  C   UNL     1       5.371  33.041  60.955  1.00  0.00     0.010 A 
HETATM   21  C   UNL     1       5.328  33.243  63.773  1.00  0.00     0.008 A 
HETATM   22  C   UNL     1       7.838  32.610  63.692  1.00  0.00     0.073 C 
HETATM   23  C   UNL     1       4.179  33.501  63.023  1.00  0.00     0.001 A 
HETATM   24  C   UNL     1       4.201  33.405  61.624  1.00  0.00     0.001 A 
HETATM   25  C   UNL     1       8.571  31.922  62.527  1.00  0.00     0.149 C 
BRANCH  25  26
HETATM   26  O   UNL     1       8.456  30.496  62.691  1.00  0.00    -0.393 OA
HETATM   27  H   UNL     1       7.564  30.260  62.383  1.00  0.00     0.210 HD
ENDBRANCH  25  26
ENDBRANCH   1  17
TORSDOF 4
ENDMDL
MODEL 5
REMARK VINA RESULT:      -9.1      8.298     10.138
REMARK  4 active torsions:
REMARK  status: ('A' for Active; 'I' for Inactive)
REMARK    1  A    between atoms: C_5  and  N_6 
REMARK       I    between atoms: N_6  and  C_7 
REMARK    2  A    between atoms: C_7  and  C_8 
REMARK    3  A    between atoms: N_10  and  C_11 
REMARK    4  A    between atoms: C_21  and  O_22 
ROOT
HETATM    1  N   UNL     1       8.006  28.999  56.857  1.00  0.00    -0.346 N 
HETATM    2  C   UNL     1       9.193  29.436  57.391  1.00  0.00     0.255 C 
HETATM    3  O   UNL     1      10.282  29.041  56.988  1.00  0.00    -0.268 OA
HETATM    4  H   UNL     1       7.131  29.424  57.129  1.00  0.00     0.163 HD
ENDROOT
BRANCH   2   5
HETATM    5  C   UNL     1       9.077  30.434  58.437  1.00  0.00     0.068 A 
HETATM    6  C   UNL     1       8.225  30.486  59.524  1.00  0.00     0.137 A 
HETATM    7  N   UNL     1       8.446  31.674  60.195  1.00  0.00    -0.243 N 
HETATM    8  N   UNL     1       9.485  32.343  59.614  1.00  0.00    -0.179 NA
HETATM    9  C   UNL     1       9.834  31.611  58.559  1.00  0.00     0.157 A 
BRANCH   7  10
HETATM   10  C   UNL     1       7.787  32.257  61.327  1.00  0.00     0.079 A 
HETATM   11  C   UNL     1       6.529  32.883  61.314  1.00  0.00     0.062 A 
HETATM   12 CL   UNL     1       5.514  33.123  59.937  1.00  0.00    -0.082 Cl
HETATM   13  C   UNL     1       6.002  33.422  62.505  1.00  0.00     0.026 A 
HETATM   14  C   UNL     1       6.706  33.356  63.704  1.00  0.00     0.002 A 
HETATM   15  C   UNL     1       7.950  32.748  63.731  1.00  0.00     0.002 A 
HETATM   16  C   UNL     1       8.483  32.206  62.559  1.00  0.00     0.033 A 
ENDBRANCH   7  10
ENDBRANCH   2   5
BRANCH   1  17
HETATM   17  C   UNL     1       7.977  28.146  55.688  1.00  0.00     0.147 C 
HETATM   18  C   UNL     1       7.708  26.709  56.037  1.00  0.00    -0.027 A 
HETATM   19  C   UNL     1       6.774  26.147  55.160  1.00  0.00    -0.047 A 
HETATM   20  C   UNL     1       8.304  25.941  57.028  1.00  0.00     0.010 A 
HETATM   21  C   UNL     1       6.407  24.814  55.264  1.00  0.00     0.008 A 
HETATM   22  C   UNL     1       6.327  27.139  54.126  1.00  0.00     0.073 C 
HETATM   23  C   UNL     1       6.989  24.042  56.271  1.00  0.00     0.001 A 
HETATM   24  C   UNL     1       7.934  24.600  57.145  1.00  0.00     0.001 A 
HETATM   25  C   UNL     1       6.782  28.474  54.741  1.00  0.00     0.149 C 
BRANCH  25  26
HETATM   26  O   UNL     1       5.676  29.048  55.464  1.00  0.00    -0.393 OA
HETATM   27  H   UNL     1       4.943  29.115  54.828  1.00  0.00     0.210 HD
ENDBRANCH  25  26
ENDBRANCH   1  17
TORSDOF 4
ENDMDL
MODEL 6
REMARK VINA RESULT:      -9.1      7.698      9.873
REMARK  4 active torsions:
REMARK  status: ('A' for Active; 'I' for Inactive)
REMARK    1  A    between atoms: C_5  and  N_6 
REMARK       I    between atoms: N_6  and  C_7 
REMARK    2  A    between atoms: C_7  and  C_8 
REMARK    3  A    between atoms: N_10  and  C_11 
REMARK    4  A    between atoms: C_21  and  O_22 
ROOT
HETATM    1  N   UNL     1       6.948  28.037  56.660  1.00  0.00    -0.346 N 
HETATM    2  C   UNL     1       7.802  29.094  56.844  1.00  0.00     0.255 C 
HETATM    3  O   UNL     1       8.824  29.240  56.181  1.00  0.00    -0.268 OA
HETATM    4  H   UNL     1       6.059  28.003  57.138  1.00  0.00     0.163 HD
ENDROOT
BRANCH   2   5
HETATM    5  C   UNL     1       7.394  30.060  57.846  1.00  0.00     0.068 A 
HETATM    6  C   UNL     1       7.988  30.397  59.049  1.00  0.00     0.137 A 
HETATM    7  N   UNL     1       7.183  31.321  59.688  1.00  0.00    -0.243 N 
HETATM    8  N   UNL     1       6.133  31.653  58.881  1.00  0.00    -0.179 NA
HETATM    9  C   UNL     1       6.256  30.881  57.804  1.00  0.00     0.157 A 
BRANCH   7  10
HETATM   10  C   UNL     1       7.289  31.931  60.982  1.00  0.00     0.079 A 
HETATM   11  C   UNL     1       8.187  31.557  61.996  1.00  0.00     0.062 A 
HETATM   12 CL   UNL     1       9.335  30.268  61.930  1.00  0.00    -0.082 Cl
HETATM   13  C   UNL     1       8.176  32.242  63.228  1.00  0.00     0.026 A 
HETATM   14  C   UNL     1       7.285  33.284  63.471  1.00  0.00     0.002 A 
HETATM   15  C   UNL     1       6.389  33.658  62.483  1.00  0.00     0.002 A 
HETATM   16  C   UNL     1       6.391  32.991  61.255  1.00  0.00     0.033 A 
ENDBRANCH   7  10
ENDBRANCH   2   5
BRANCH   1  17
HETATM   17  C   UNL     1       7.135  27.099  55.572  1.00  0.00     0.147 C 
HETATM   18  C   UNL     1       7.575  25.746  56.055  1.00  0.00    -0.027 A 
HETATM   19  C   UNL     1       6.871  24.728  55.401  1.00  0.00    -0.047 A 
HETATM   20  C   UNL     1       8.578  25.444  56.966  1.00  0.00     0.010 A 
HETATM   21  C   UNL     1       7.144  23.393  55.654  1.00  0.00     0.008 A 
HETATM   22  C   UNL     1       5.896  25.288  54.406  1.00  0.00     0.073 C 
HETATM   23  C   UNL     1       8.138  23.084  56.584  1.00  0.00     0.001 A 
HETATM   24  C   UNL     1       8.853  24.102  57.233  1.00  0.00     0.001 A 
HETATM   25  C   UNL     1       5.799  26.761  54.842  1.00  0.00     0.149 C 
BRANCH  25  26
HETATM   26  O   UNL     1       4.665  26.907  55.718  1.00  0.00    -0.393 OA
HETATM   27  H   UNL     1       4.584  27.860  55.899  1.00  0.00     0.210 HD
ENDBRANCH  25  26
ENDBRANCH   1  17
TORSDOF 4
ENDMDL
MODEL 7
REMARK VINA RESULT:      -9.1      2.263      3.366
REMARK  4 active torsions:
REMARK  status: ('A' for Active; 'I' for Inactive)
REMARK    1  A    between atoms: C_5  and  N_6 
REMARK       I    between atoms: N_6  and  C_7 
REMARK    2  A    between atoms: C_7  and  C_8 
REMARK    3  A    between atoms: N_10  and  C_11 
REMARK    4  A    between atoms: C_21  and  O_22 
ROOT
HETATM    1  N   UNL     1       4.604  27.103  51.228  1.00  0.00    -0.346 N 
HETATM    2  C   UNL     1       5.618  27.340  52.121  1.00  0.00     0.255 C 
HETATM    3  O   UNL     1       6.180  28.427  52.208  1.00  0.00    -0.268 OA
HETATM    4  H   UNL     1       4.084  26.238  51.256  1.00  0.00     0.163 HD
ENDROOT
BRANCH   2   5
HETATM    5  C   UNL     1       5.953  26.232  52.994  1.00  0.00     0.068 A 
HETATM    6  C   UNL     1       6.860  25.203  52.815  1.00  0.00     0.137 A 
HETATM    7  N   UNL     1       6.768  24.348  53.897  1.00  0.00    -0.243 N 
HETATM    8  N   UNL     1       5.887  24.853  54.809  1.00  0.00    -0.179 NA
HETATM    9  C   UNL     1       5.392  25.956  54.252  1.00  0.00     0.157 A 
BRANCH   7  10
HETATM   10  C   UNL     1       7.418  23.099  54.172  1.00  0.00     0.079 A 
HETATM   11  C   UNL     1       7.957  22.708  55.409  1.00  0.00     0.062 A 
HETATM   12 CL   UNL     1       7.993  23.646  56.859  1.00  0.00    -0.082 Cl
HETATM   13  C   UNL     1       8.578  21.449  55.535  1.00  0.00     0.026 A 
HETATM   14  C   UNL     1       8.677  20.577  54.454  1.00  0.00     0.002 A 
HETATM   15  C   UNL     1       8.156  20.952  53.226  1.00  0.00     0.002 A 
HETATM   16  C   UNL     1       7.535  22.196  53.087  1.00  0.00     0.033 A 
ENDBRANCH   7  10
ENDBRANCH   2   5
BRANCH   1  17
HETATM   17  C   UNL     1       4.044  28.171  50.425  1.00  0.00     0.147 C 
HETATM   18  C   UNL     1       3.234  27.652  49.272  1.00  0.00    -0.027 A 
HETATM   19  C   UNL     1       2.035  28.362  49.142  1.00  0.00    -0.047 A 
HETATM   20  C   UNL     1       3.572  26.659  48.363  1.00  0.00     0.010 A 
HETATM   21  C   UNL     1       1.147  28.086  48.114  1.00  0.00     0.008 A 
HETATM   22  C   UNL     1       1.920  29.436  50.184  1.00  0.00     0.073 C 
HETATM   23  C   UNL     1       1.474  27.075  47.208  1.00  0.00     0.001 A 
HETATM   24  C   UNL     1       2.680  26.368  47.330  1.00  0.00     0.001 A 
HETATM   25  C   UNL     1       2.989  29.012  51.207  1.00  0.00     0.149 C 
BRANCH  25  26
HETATM   26  O   UNL     1       2.353  28.235  52.240  1.00  0.00    -0.393 OA
HETATM   27  H   UNL     1       2.712  28.561  53.083  1.00  0.00     0.210 HD
ENDBRANCH  25  26
ENDBRANCH   1  17
TORSDOF 4
ENDMDL
MODEL 8
REMARK VINA RESULT:      -8.7      5.661      7.097
REMARK  4 active torsions:
REMARK  status: ('A' for Active; 'I' for Inactive)
REMARK    1  A    between atoms: C_5  and  N_6 
REMARK       I    between atoms: N_6  and  C_7 
REMARK    2  A    between atoms: C_7  and  C_8 
REMARK    3  A    between atoms: N_10  and  C_11 
REMARK    4  A    between atoms: C_21  and  O_22 
ROOT
HETATM    1  N   UNL     1       6.806  28.724  56.990  1.00  0.00    -0.346 N 
HETATM    2  C   UNL     1       7.240  28.116  55.839  1.00  0.00     0.255 C 
HETATM    3  O   UNL     1       7.794  28.733  54.935  1.00  0.00    -0.268 OA
HETATM    4  H   UNL     1       6.459  28.176  57.764  1.00  0.00     0.163 HD
ENDROOT
BRANCH   2   5
HETATM    5  C   UNL     1       7.044  26.680  55.780  1.00  0.00     0.068 A 
HETATM    6  C   UNL     1       7.810  25.704  55.167  1.00  0.00     0.137 A 
HETATM    7  N   UNL     1       7.174  24.488  55.327  1.00  0.00    -0.243 N 
HETATM    8  N   UNL     1       6.065  24.647  56.107  1.00  0.00    -0.179 NA
HETATM    9  C   UNL     1       5.985  25.954  56.348  1.00  0.00     0.157 A 
BRANCH   7  10
HETATM   10  C   UNL     1       7.492  23.182  54.826  1.00  0.00     0.079 A 
HETATM   11  C   UNL     1       7.768  22.861  53.486  1.00  0.00     0.062 A 
HETATM   12 CL   UNL     1       7.753  23.947  52.143  1.00  0.00    -0.082 Cl
HETATM   13  C   UNL     1       8.058  21.528  53.131  1.00  0.00     0.026 A 
HETATM   14  C   UNL     1       8.073  20.511  54.082  1.00  0.00     0.002 A 
HETATM   15  C   UNL     1       7.795  20.812  55.405  1.00  0.00     0.002 A 
HETATM   16  C   UNL     1       7.509  22.129  55.772  1.00  0.00     0.033 A 
ENDBRANCH   7  10
ENDBRANCH   2   5
BRANCH   1  17
HETATM   17  C   UNL     1       7.101  30.115  57.262  1.00  0.00     0.147 C 
HETATM   18  C   UNL     1       5.919  30.848  57.831  1.00  0.00    -0.027 A 
HETATM   19  C   UNL     1       6.303  31.659  58.905  1.00  0.00    -0.047 A 
HETATM   20  C   UNL     1       4.607  30.842  57.380  1.00  0.00     0.010 A 
HETATM   21  C   UNL     1       5.382  32.465  59.558  1.00  0.00     0.008 A 
HETATM   22  C   UNL     1       7.778  31.565  59.163  1.00  0.00     0.073 C 
HETATM   23  C   UNL     1       4.057  32.447  59.120  1.00  0.00     0.001 A 
HETATM   24  C   UNL     1       3.672  31.643  58.036  1.00  0.00     0.001 A 
HETATM   25  C   UNL     1       8.161  30.289  58.393  1.00  0.00     0.149 C 
BRANCH  25  26
HETATM   26  O   UNL     1       8.144  29.177  59.309  1.00  0.00    -0.393 OA
HETATM   27  H   UNL     1       9.066  29.044  59.589  1.00  0.00     0.210 HD
ENDBRANCH  25  26
ENDBRANCH   1  17
TORSDOF 4
ENDMDL
MODEL 9
REMARK VINA RESULT:      -8.7      6.665      8.965
REMARK  4 active torsions:
REMARK  status: ('A' for Active; 'I' for Inactive)
REMARK    1  A    between atoms: C_5  and  N_6 
REMARK       I    between atoms: N_6  and  C_7 
REMARK    2  A    between atoms: C_7  and  C_8 
REMARK    3  A    between atoms: N_10  and  C_11 
REMARK    4  A    between atoms: C_21  and  O_22 
ROOT
HETATM    1  N   UNL     1       7.394  26.950  55.510  1.00  0.00    -0.346 N 
HETATM    2  C   UNL     1       7.835  28.245  55.411  1.00  0.00     0.255 C 
HETATM    3  O   UNL     1       8.439  28.663  54.429  1.00  0.00    -0.268 OA
HETATM    4  H   UNL     1       6.801  26.664  56.276  1.00  0.00     0.163 HD
ENDROOT
BRANCH   2   5
HETATM    5  C   UNL     1       7.497  29.107  56.528  1.00  0.00     0.068 A 
HETATM    6  C   UNL     1       8.298  29.602  57.540  1.00  0.00     0.137 A 
HETATM    7  N   UNL     1       7.501  30.320  58.413  1.00  0.00    -0.243 N 
HETATM    8  N   UNL     1       6.224  30.372  57.934  1.00  0.00    -0.179 NA
HETATM    9  C   UNL     1       6.229  29.629  56.830  1.00  0.00     0.157 A 
BRANCH   7  10
HETATM   10  C   UNL     1       7.807  30.966  59.657  1.00  0.00     0.079 A 
HETATM   11  C   UNL     1       7.095  32.037  60.224  1.00  0.00     0.062 A 
HETATM   12 CL   UNL     1       5.723  32.835  59.543  1.00  0.00    -0.082 Cl
HETATM   13  C   UNL     1       7.514  32.583  61.454  1.00  0.00     0.026 A 
HETATM   14  C   UNL     1       8.629  32.088  62.125  1.00  0.00     0.002 A 
HETATM   15  C   UNL     1       9.345  31.038  61.574  1.00  0.00     0.002 A 
HETATM   16  C   UNL     1       8.939  30.484  60.357  1.00  0.00     0.033 A 
ENDBRANCH   7  10
ENDBRANCH   2   5
BRANCH   1  17
HETATM   17  C   UNL     1       7.499  26.032  54.394  1.00  0.00     0.147 C 
HETATM   18  C   UNL     1       7.826  24.634  54.835  1.00  0.00    -0.027 A 
HETATM   19  C   UNL     1       7.039  23.697  54.156  1.00  0.00    -0.047 A 
HETATM   20  C   UNL     1       8.804  24.223  55.731  1.00  0.00     0.010 A 
HETATM   21  C   UNL     1       7.201  22.337  54.369  1.00  0.00     0.008 A 
HETATM   22  C   UNL     1       6.111  24.365  53.184  1.00  0.00     0.073 C 
HETATM   23  C   UNL     1       8.169  21.919  55.284  1.00  0.00     0.001 A 
HETATM   24  C   UNL     1       8.968  22.856  55.958  1.00  0.00     0.001 A 
HETATM   25  C   UNL     1       6.137  25.827  53.662  1.00  0.00     0.149 C 
BRANCH  25  26
HETATM   26  O   UNL     1       5.022  26.041  54.548  1.00  0.00    -0.393 OA
HETATM   27  H   UNL     1       4.440  26.679  54.101  1.00  0.00     0.210 HD
ENDBRANCH  25  26
ENDBRANCH   1  17
TORSDOF 4
ENDMDL
MODEL 10
REMARK VINA RESULT:      -8.5     15.797     18.591
REMARK  4 active torsions:
REMARK  status: ('A' for Active; 'I' for Inactive)
REMARK    1  A    between atoms: C_5  and  N_6 
REMARK       I    between atoms: N_6  and  C_7 
REMARK    2  A    between atoms: C_7  and  C_8 
REMARK    3  A    between atoms: N_10  and  C_11 
REMARK    4  A    between atoms: C_21  and  O_22 
ROOT
HETATM    1  N   UNL     1       6.080  33.720  68.420  1.00  0.00    -0.346 N 
HETATM    2  C   UNL     1       5.473  34.459  67.436  1.00  0.00     0.255 C 
HETATM    3  O   UNL     1       4.912  35.526  67.664  1.00  0.00    -0.268 OA
HETATM    4  H   UNL     1       6.631  32.906  68.187  1.00  0.00     0.163 HD
ENDROOT
BRANCH   2   5
HETATM    5  C   UNL     1       5.577  33.919  66.094  1.00  0.00     0.068 A 
HETATM    6  C   UNL     1       6.698  33.661  65.326  1.00  0.00     0.137 A 
HETATM    7  N   UNL     1       6.282  33.218  64.084  1.00  0.00    -0.243 N 
HETATM    8  N   UNL     1       4.923  33.098  64.070  1.00  0.00    -0.179 NA
HETATM    9  C   UNL     1       4.515  33.540  65.258  1.00  0.00     0.157 A 
BRANCH   7  10
HETATM   10  C   UNL     1       7.024  32.892  62.901  1.00  0.00     0.079 A 
HETATM   11  C   UNL     1       6.624  33.160  61.580  1.00  0.00     0.062 A 
HETATM   12 CL   UNL     1       5.146  33.903  61.083  1.00  0.00    -0.082 Cl
HETATM   13  C   UNL     1       7.452  32.775  60.506  1.00  0.00     0.026 A 
HETATM   14  C   UNL     1       8.664  32.125  60.721  1.00  0.00     0.002 A 
HETATM   15  C   UNL     1       9.068  31.848  62.017  1.00  0.00     0.002 A 
HETATM   16  C   UNL     1       8.259  32.227  63.092  1.00  0.00     0.033 A 
ENDBRANCH   7  10
ENDBRANCH   2   5
BRANCH   1  17
HETATM   17  C   UNL     1       6.212  34.228  69.769  1.00  0.00     0.147 C 
HETATM   18  C   UNL     1       6.777  33.203  70.711  1.00  0.00    -0.027 A 
HETATM   19  C   UNL     1       7.753  33.769  71.539  1.00  0.00    -0.047 A 
HETATM   20  C   UNL     1       6.399  31.876  70.863  1.00  0.00     0.010 A 
HETATM   21  C   UNL     1       8.380  33.018  72.522  1.00  0.00     0.008 A 
HETATM   22  C   UNL     1       7.939  35.229  71.249  1.00  0.00     0.073 C 
HETATM   23  C   UNL     1       8.018  31.677  72.665  1.00  0.00     0.001 A 
HETATM   24  C   UNL     1       7.031  31.111  71.844  1.00  0.00     0.001 A 
HETATM   25  C   UNL     1       7.265  35.374  69.872  1.00  0.00     0.149 C 
BRANCH  25  26
HETATM   26  O   UNL     1       8.275  35.259  68.852  1.00  0.00    -0.393 OA
HETATM   27  H   UNL     1       8.911  35.977  69.018  1.00  0.00     0.210 HD
ENDBRANCH  25  26
ENDBRANCH   1  17
TORSDOF 4
ENDMDL
