MODEL 1
REMARK VINA RESULT:      -9.7      0.000      0.000
REMARK  8 active torsions:
REMARK  status: ('A' for Active; 'I' for Inactive)
REMARK    1  A    between atoms: C_3  and  C_27 
REMARK       I    between atoms: N_12  and  C_13 
REMARK    2  A    between atoms: C_13  and  C_14 
REMARK    3  A    between atoms: C_14  and  O_15 
REMARK    4  A    between atoms: C_18  and  C_36 
REMARK    5  A    between atoms: O_19  and  C_36 
REMARK    6  A    between atoms: C_20  and  O_21 
REMARK    7  A    between atoms: C_27  and  C_28 
REMARK       I    between atoms: C_28  and  N_29 
REMARK    8  A    between atoms: N_29  and  C_30 
ROOT
HETATM    1  C           1       5.874  24.115  55.937  0.00  0.00     0.016 C 
HETATM    2  C           1       7.236  24.380  55.241  0.00  0.00    -0.030 C 
HETATM    3  C           1       7.277  25.889  54.833  0.00  0.00     0.056 C 
HETATM    4  C           1       6.479  26.058  53.576  0.00  0.00     0.056 A 
HETATM    5  C           1       6.621  25.239  52.536  0.00  0.00     0.012 A 
HETATM    6  S           1       5.715  25.633  51.454  0.00  0.00    -0.055 SA
HETATM    7  C           1       5.160  26.771  52.197  0.00  0.00     0.174 A 
HETATM    8  N           1       4.213  27.526  51.609  0.00  0.00    -0.304 N 
HETATM    9  C           1       3.528  28.600  52.097  0.00  0.00     0.247 C 
HETATM   10  O           1       3.679  29.043  53.208  0.00  0.00    -0.271 OA
HETATM   11  N           1       5.615  26.948  53.365  0.00  0.00    -0.227 NA
HETATM   12  C           1       8.327  22.166  54.181  0.00  0.00     0.008 C 
HETATM   13  C           1       8.280  21.628  55.623  0.00  0.00     0.128 C 
HETATM   14  C           1       8.355  24.122  56.269  0.00  0.00     0.013 C 
HETATM   15  H           1       4.016  27.223  50.666  0.00  0.00     0.171 HD
HETATM   16  C           1       9.802  22.462  53.811  0.00  0.00     0.020 C 
HETATM   17  C           1       7.585  24.100  52.639  0.00  0.00     0.055 C 
HETATM   18  C           1       7.390  23.407  54.011  0.00  0.00     0.012 C 
HETATM   19  C           1       8.450  22.665  56.734  0.00  0.00     0.033 C 
ENDROOT
BRANCH   3  20
HETATM   20  C           1       6.871  26.938  55.890  0.00  0.00     0.114 C 
BRANCH  20  21
HETATM   21  C           1       7.825  28.129  55.926  0.00  0.00     0.222 C 
HETATM   22  O           1       8.287  28.583  54.911  0.00  0.00    -0.273 OA
HETATM   23  N           1       8.074  28.608  57.178  0.00  0.00    -0.327 N 
HETATM   24  H           1       7.611  28.151  57.951  0.00  0.00     0.169 HD
BRANCH  23  25
HETATM   25  C           1       8.824  29.627  57.647  0.00  0.00     0.034 A 
HETATM   26  C           1       8.223  30.423  58.552  0.00  0.00     0.029 A 
HETATM   27  C           1       8.856  31.475  59.092  0.00  0.00     0.002 A 
HETATM   28  C           1      10.117  31.750  58.732  0.00  0.00     0.000 A 
HETATM   29  C           1      10.733  30.966  57.836  0.00  0.00     0.002 A 
HETATM   30  C           1      10.091  29.914  57.301  0.00  0.00     0.029 A 
ENDBRANCH  23  25
ENDBRANCH  20  21
ENDBRANCH   3  20
BRANCH  12  31
HETATM   31  C           1       7.859  21.049  53.212  0.00  0.00     0.176 C 
BRANCH  31  32
HETATM   32  O           1       8.634  19.877  53.375  0.00  0.00    -0.400 OA
HETATM   33  H           1       9.265  20.003  54.086  0.00  0.00     0.209 HD
ENDBRANCH  31  32
ENDBRANCH  12  31
BRANCH  13  34
HETATM   34  O           1       7.078  20.916  55.809  0.00  0.00    -0.395 OA
HETATM   35  H           1       6.350  21.513  55.611  0.00  0.00     0.210 HD
ENDBRANCH  13  34
BRANCH   9  36
HETATM   36  C           1       2.537  29.200  51.110  0.00  0.00     0.270 C 
BRANCH  36  37
HETATM   37  O           1       2.809  28.759  49.792  0.00  0.00    -0.387 OA
HETATM   38  C           1       1.642  28.341  49.118  0.00  0.00     0.202 C 
ENDBRANCH  36  37
ENDBRANCH   9  36
TORSDOF 8
ENDMDL
MODEL 2
REMARK VINA RESULT:      -9.0      2.855      6.763
REMARK  8 active torsions:
REMARK  status: ('A' for Active; 'I' for Inactive)
REMARK    1  A    between atoms: C_3  and  C_27 
REMARK       I    between atoms: N_12  and  C_13 
REMARK    2  A    between atoms: C_13  and  C_14 
REMARK    3  A    between atoms: C_14  and  O_15 
REMARK    4  A    between atoms: C_18  and  C_36 
REMARK    5  A    between atoms: O_19  and  C_36 
REMARK    6  A    between atoms: C_20  and  O_21 
REMARK    7  A    between atoms: C_27  and  C_28 
REMARK       I    between atoms: C_28  and  N_29 
REMARK    8  A    between atoms: N_29  and  C_30 
ROOT
HETATM    1  C           1       8.221  28.281  54.006  0.00  0.00     0.016 C 
HETATM    2  C           1       6.868  27.778  54.575  0.00  0.00    -0.030 C 
HETATM    3  C           1       6.068  27.130  53.398  0.00  0.00     0.056 C 
HETATM    4  C           1       5.445  28.229  52.591  0.00  0.00     0.056 A 
HETATM    5  C           1       4.792  29.239  53.163  0.00  0.00     0.012 A 
HETATM    6  S           1       4.297  30.165  52.142  0.00  0.00    -0.055 SA
HETATM    7  C           1       4.837  29.380  51.025  0.00  0.00     0.174 A 
HETATM    8  N           1       4.646  29.827  49.769  0.00  0.00    -0.304 N 
HETATM    9  C           1       5.072  29.303  48.584  0.00  0.00     0.247 C 
HETATM   10  O           1       5.738  28.303  48.494  0.00  0.00    -0.271 OA
HETATM   11  N           1       5.467  28.327  51.338  0.00  0.00    -0.227 NA
HETATM   12  C           1       6.117  29.069  56.808  0.00  0.00     0.008 C 
HETATM   13  C           1       7.447  28.547  57.382  0.00  0.00     0.128 C 
HETATM   14  C           1       7.167  26.686  55.621  0.00  0.00     0.013 C 
HETATM   15  H           1       4.095  30.673  49.747  0.00  0.00     0.171 HD
HETATM   16  C           1       4.953  28.291  57.469  0.00  0.00     0.020 C 
HETATM   17  C           1       4.706  29.291  54.656  0.00  0.00     0.055 C 
HETATM   18  C           1       6.105  28.983  55.245  0.00  0.00     0.012 C 
HETATM   19  C           1       7.924  27.194  56.852  0.00  0.00     0.033 C 
ENDROOT
BRANCH   3  20
HETATM   20  C           1       6.805  26.126  52.486  0.00  0.00     0.114 C 
BRANCH  20  21
HETATM   21  C           1       6.513  24.675  52.861  0.00  0.00     0.222 C 
HETATM   22  O           1       5.410  24.211  52.726  0.00  0.00    -0.273 OA
HETATM   23  N           1       7.594  23.991  53.332  0.00  0.00    -0.327 N 
HETATM   24  H           1       8.472  24.488  53.381  0.00  0.00     0.169 HD
BRANCH  23  25
HETATM   25  C           1       7.776  22.721  53.749  0.00  0.00     0.034 A 
HETATM   26  C           1       7.637  22.519  55.073  0.00  0.00     0.029 A 
HETATM   27  C           1       7.798  21.303  55.618  0.00  0.00     0.002 A 
HETATM   28  C           1       8.101  20.257  54.837  0.00  0.00     0.000 A 
HETATM   29  C           1       8.238  20.439  53.516  0.00  0.00     0.002 A 
HETATM   30  C           1       8.075  21.660  52.978  0.00  0.00     0.029 A 
ENDBRANCH  23  25
ENDBRANCH  20  21
ENDBRANCH   3  20
BRANCH  12  31
HETATM   31  C           1       5.935  30.551  57.228  0.00  0.00     0.176 C 
BRANCH  31  32
HETATM   32  O           1       6.124  30.711  58.620  0.00  0.00    -0.400 OA
HETATM   33  H           1       6.664  29.994  58.958  0.00  0.00     0.209 HD
ENDBRANCH  31  32
ENDBRANCH  12  31
BRANCH  13  34
HETATM   34  O           1       8.447  29.521  57.185  0.00  0.00    -0.395 OA
HETATM   35  H           1       8.553  29.645  56.237  0.00  0.00     0.210 HD
ENDBRANCH  13  34
BRANCH   9  36
HETATM   36  C           1       4.635  30.102  47.365  0.00  0.00     0.270 C 
BRANCH  36  37
HETATM   37  O           1       3.269  30.462  47.461  0.00  0.00    -0.387 OA
HETATM   38  C           1       2.425  29.537  46.811  0.00  0.00     0.202 C 
ENDBRANCH  36  37
ENDBRANCH   9  36
TORSDOF 8
ENDMDL
MODEL 3
REMARK VINA RESULT:      -8.2      6.955     11.769
REMARK  8 active torsions:
REMARK  status: ('A' for Active; 'I' for Inactive)
REMARK    1  A    between atoms: C_3  and  C_27 
REMARK       I    between atoms: N_12  and  C_13 
REMARK    2  A    between atoms: C_13  and  C_14 
REMARK    3  A    between atoms: C_14  and  O_15 
REMARK    4  A    between atoms: C_18  and  C_36 
REMARK    5  A    between atoms: O_19  and  C_36 
REMARK    6  A    between atoms: C_20  and  O_21 
REMARK    7  A    between atoms: C_27  and  C_28 
REMARK       I    between atoms: C_28  and  N_29 
REMARK    8  A    between atoms: N_29  and  C_30 
ROOT
HETATM    1  C           1       3.569  31.951  59.288  0.00  0.00     0.016 C 
HETATM    2  C           1       4.501  33.121  58.875  0.00  0.00    -0.030 C 
HETATM    3  C           1       5.501  33.372  60.051  0.00  0.00     0.056 C 
HETATM    4  C           1       4.794  34.164  61.108  0.00  0.00     0.056 A 
HETATM    5  C           1       4.066  35.239  60.813  0.00  0.00     0.012 A 
HETATM    6  S           1       3.486  35.809  62.033  0.00  0.00    -0.055 SA
HETATM    7  C           1       4.096  34.803  62.911  0.00  0.00     0.174 A 
HETATM    8  N           1       3.861  34.876  64.235  0.00  0.00    -0.304 N 
HETATM    9  C           1       4.279  34.053  65.240  0.00  0.00     0.247 C 
HETATM   10  O           1       4.953  33.069  65.065  0.00  0.00    -0.271 OA
HETATM   11  N           1       4.798  33.917  62.342  0.00  0.00    -0.227 NA
HETATM   12  C           1       3.414  34.732  57.021  0.00  0.00     0.008 C 
HETATM   13  C           1       3.340  33.455  56.164  0.00  0.00     0.128 C 
HETATM   14  C           1       5.305  32.676  57.637  0.00  0.00     0.013 C 
HETATM   15  H           1       3.295  35.676  64.478  0.00  0.00     0.171 HD
HETATM   16  C           1       4.520  35.651  56.444  0.00  0.00     0.020 C 
HETATM   17  C           1       3.927  35.648  59.381  0.00  0.00     0.055 C 
HETATM   18  C           1       3.628  34.387  58.532  0.00  0.00     0.012 C 
HETATM   19  C           1       4.447  32.426  56.394  0.00  0.00     0.033 C 
ENDROOT
BRANCH   3  20
HETATM   20  C           1       6.219  32.151  60.665  0.00  0.00     0.114 C 
BRANCH  20  21
HETATM   21  C           1       7.637  31.977  60.125  0.00  0.00     0.222 C 
HETATM   22  O           1       8.551  32.624  60.567  0.00  0.00    -0.273 OA
HETATM   23  N           1       7.750  31.040  59.141  0.00  0.00    -0.327 N 
HETATM   24  H           1       6.910  30.550  58.869  0.00  0.00     0.169 HD
BRANCH  23  25
HETATM   25  C           1       8.792  30.575  58.421  0.00  0.00     0.034 A 
HETATM   26  C           1       8.588  29.399  57.796  0.00  0.00     0.029 A 
HETATM   27  C           1       9.546  28.824  57.054  0.00  0.00     0.002 A 
HETATM   28  C           1      10.737  29.424  56.920  0.00  0.00     0.000 A 
HETATM   29  C           1      10.956  30.598  57.532  0.00  0.00     0.002 A 
HETATM   30  C           1       9.991  31.166  58.274  0.00  0.00     0.029 A 
ENDBRANCH  23  25
ENDBRANCH  20  21
ENDBRANCH   3  20
BRANCH  12  31
HETATM   31  C           1       2.085  35.517  56.870  0.00  0.00     0.176 C 
BRANCH  31  32
HETATM   32  O           1       1.079  34.977  57.704  0.00  0.00    -0.400 OA
HETATM   33  H           1       0.396  34.571  57.166  0.00  0.00     0.209 HD
ENDBRANCH  31  32
ENDBRANCH  12  31
BRANCH  13  34
HETATM   34  O           1       2.078  32.853  56.344  0.00  0.00    -0.395 OA
HETATM   35  H           1       2.224  31.952  56.649  0.00  0.00     0.210 HD
ENDBRANCH  13  34
BRANCH   9  36
HETATM   36  C           1       3.812  34.483  66.623  0.00  0.00     0.270 C 
BRANCH  36  37
HETATM   37  O           1       4.554  33.825  67.634  0.00  0.00    -0.387 OA
HETATM   38  C           1       5.440  34.697  68.299  0.00  0.00     0.202 C 
ENDBRANCH  36  37
ENDBRANCH   9  36
TORSDOF 8
ENDMDL
MODEL 4
REMARK VINA RESULT:      -7.9      6.479     11.316
REMARK  8 active torsions:
REMARK  status: ('A' for Active; 'I' for Inactive)
REMARK    1  A    between atoms: C_3  and  C_27 
REMARK       I    between atoms: N_12  and  C_13 
REMARK    2  A    between atoms: C_13  and  C_14 
REMARK    3  A    between atoms: C_14  and  O_15 
REMARK    4  A    between atoms: C_18  and  C_36 
REMARK    5  A    between atoms: O_19  and  C_36 
REMARK    6  A    between atoms: C_20  and  O_21 
REMARK    7  A    between atoms: C_27  and  C_28 
REMARK       I    between atoms: C_28  and  N_29 
REMARK    8  A    between atoms: N_29  and  C_30 
ROOT
HETATM    1  C           1       4.009  31.767  62.181  0.00  0.00     0.016 C 
HETATM    2  C           1       4.643  33.135  61.814  0.00  0.00    -0.030 C 
HETATM    3  C           1       4.992  33.104  60.290  0.00  0.00     0.056 C 
HETATM    4  C           1       6.271  32.341  60.115  0.00  0.00     0.056 A 
HETATM    5  C           1       7.335  32.567  60.882  0.00  0.00     0.012 A 
HETATM    6  S           1       8.434  31.677  60.497  0.00  0.00    -0.055 SA
HETATM    7  C           1       7.669  31.033  59.423  0.00  0.00     0.174 A 
HETATM    8  N           1       8.263  30.065  58.698  0.00  0.00    -0.304 N 
HETATM    9  C           1       7.760  29.304  57.684  0.00  0.00     0.247 C 
HETATM   10  O           1       6.628  29.391  57.278  0.00  0.00    -0.271 OA
HETATM   11  N           1       6.479  31.436  59.267  0.00  0.00    -0.227 NA
HETATM   12  C           1       5.745  34.387  63.919  0.00  0.00     0.008 C 
HETATM   13  C           1       4.327  34.320  64.516  0.00  0.00     0.128 C 
HETATM   14  C           1       3.585  34.230  62.050  0.00  0.00     0.013 C 
HETATM   15  H           1       9.223  29.919  58.974  0.00  0.00     0.171 HD
HETATM   16  C           1       6.048  35.854  63.527  0.00  0.00     0.020 C 
HETATM   17  C           1       7.239  33.590  61.969  0.00  0.00     0.055 C 
HETATM   18  C           1       5.903  33.387  62.726  0.00  0.00     0.012 C 
HETATM   19  C           1       3.173  34.392  63.516  0.00  0.00     0.033 C 
ENDROOT
BRANCH   3  20
HETATM   20  C           1       3.912  32.602  59.308  0.00  0.00     0.114 C 
BRANCH  20  21
HETATM   21  C           1       3.571  33.636  58.237  0.00  0.00     0.222 C 
HETATM   22  O           1       2.758  33.396  57.382  0.00  0.00    -0.273 OA
HETATM   23  N           1       4.250  34.811  58.359  0.00  0.00    -0.327 N 
HETATM   24  H           1       4.894  34.897  59.132  0.00  0.00     0.169 HD
BRANCH  23  25
HETATM   25  C           1       4.240  35.963  57.656  0.00  0.00     0.034 A 
HETATM   26  C           1       3.419  36.923  58.124  0.00  0.00     0.029 A 
HETATM   27  C           1       3.311  38.112  57.513  0.00  0.00     0.002 A 
HETATM   28  C           1       4.033  38.365  56.413  0.00  0.00     0.000 A 
HETATM   29  C           1       4.860  37.423  55.936  0.00  0.00     0.002 A 
HETATM   30  C           1       4.962  36.234  56.554  0.00  0.00     0.029 A 
ENDBRANCH  23  25
ENDBRANCH  20  21
ENDBRANCH   3  20
BRANCH  12  31
HETATM   31  C           1       6.772  34.017  65.021  0.00  0.00     0.176 C 
BRANCH  31  32
HETATM   32  O           1       6.479  34.683  66.234  0.00  0.00    -0.400 OA
HETATM   33  H           1       6.296  34.039  66.920  0.00  0.00     0.209 HD
ENDBRANCH  31  32
ENDBRANCH  12  31
BRANCH  13  34
HETATM   34  O           1       4.212  33.155  65.301  0.00  0.00    -0.395 OA
HETATM   35  H           1       5.019  33.070  65.818  0.00  0.00     0.210 HD
ENDBRANCH  13  34
BRANCH   9  36
HETATM   36  C           1       8.760  28.315  57.102  0.00  0.00     0.270 C 
BRANCH  36  37
HETATM   37  O           1      10.061  28.872  57.072  0.00  0.00    -0.387 OA
HETATM   38  C           1      10.267  29.688  55.939  0.00  0.00     0.202 C 
ENDBRANCH  36  37
ENDBRANCH   9  36
TORSDOF 8
ENDMDL
MODEL 5
REMARK VINA RESULT:      -7.8      3.877      5.222
REMARK  8 active torsions:
REMARK  status: ('A' for Active; 'I' for Inactive)
REMARK    1  A    between atoms: C_3  and  C_27 
REMARK       I    between atoms: N_12  and  C_13 
REMARK    2  A    between atoms: C_13  and  C_14 
REMARK    3  A    between atoms: C_14  and  O_15 
REMARK    4  A    between atoms: C_18  and  C_36 
REMARK    5  A    between atoms: O_19  and  C_36 
REMARK    6  A    between atoms: C_20  and  O_21 
REMARK    7  A    between atoms: C_27  and  C_28 
REMARK       I    between atoms: C_28  and  N_29 
REMARK    8  A    between atoms: N_29  and  C_30 
ROOT
HETATM    1  C           1       3.852  28.058  56.738  0.00  0.00     0.016 C 
HETATM    2  C           1       5.132  28.626  56.069  0.00  0.00    -0.030 C 
HETATM    3  C           1       5.078  30.185  56.184  0.00  0.00     0.056 C 
HETATM    4  C           1       4.160  30.703  55.119  0.00  0.00     0.056 A 
HETATM    5  C           1       4.236  30.282  53.858  0.00  0.00     0.012 A 
HETATM    6  S           1       3.218  30.947  53.041  0.00  0.00    -0.055 SA
HETATM    7  C           1       2.693  31.739  54.160  0.00  0.00     0.174 A 
HETATM    8  N           1       1.667  32.581  53.929  0.00  0.00    -0.304 N 
HETATM    9  C           1       0.991  33.388  54.797  0.00  0.00     0.247 C 
HETATM   10  O           1       1.228  33.451  55.977  0.00  0.00    -0.271 OA
HETATM   11  N           1       3.248  31.554  55.282  0.00  0.00    -0.227 NA
HETATM   12  C           1       6.203  26.960  54.255  0.00  0.00     0.008 C 
HETATM   13  C           1       6.310  25.977  55.436  0.00  0.00     0.128 C 
HETATM   14  C           1       6.351  28.120  56.866  0.00  0.00     0.013 C 
HETATM   15  H           1       1.395  32.591  52.957  0.00  0.00     0.171 HD
HETATM   16  C           1       7.624  27.458  53.894  0.00  0.00     0.020 C 
HETATM   17  C           1       5.247  29.239  53.504  0.00  0.00     0.055 C 
HETATM   18  C           1       5.207  28.123  54.578  0.00  0.00     0.012 C 
HETATM   19  C           1       6.544  26.602  56.811  0.00  0.00     0.033 C 
ENDROOT
BRANCH   3  20
HETATM   20  C           1       4.733  30.799  57.557  0.00  0.00     0.114 C 
BRANCH  20  21
HETATM   21  C           1       5.877  31.636  58.126  0.00  0.00     0.222 C 
HETATM   22  O           1       6.050  32.772  57.768  0.00  0.00    -0.273 OA
HETATM   23  N           1       6.638  30.986  59.052  0.00  0.00    -0.327 N 
HETATM   24  H           1       6.380  30.037  59.281  0.00  0.00     0.169 HD
BRANCH  23  25
HETATM   25  C           1       7.706  31.350  59.792  0.00  0.00     0.034 A 
HETATM   26  C           1       7.481  31.477  61.114  0.00  0.00     0.029 A 
HETATM   27  C           1       8.457  31.840  61.960  0.00  0.00     0.002 A 
HETATM   28  C           1       9.689  32.081  61.492  0.00  0.00     0.000 A 
HETATM   29  C           1       9.932  31.954  60.180  0.00  0.00     0.002 A 
HETATM   30  C           1       8.949  31.591  59.339  0.00  0.00     0.029 A 
ENDBRANCH  23  25
ENDBRANCH  20  21
ENDBRANCH   3  20
BRANCH  12  31
HETATM   31  C           1       5.688  26.193  53.008  0.00  0.00     0.176 C 
BRANCH  31  32
HETATM   32  O           1       4.285  26.028  53.056  0.00  0.00    -0.400 OA
HETATM   33  H           1       4.006  25.899  53.964  0.00  0.00     0.209 HD
ENDBRANCH  31  32
ENDBRANCH  12  31
BRANCH  13  34
HETATM   34  O           1       5.158  25.165  55.464  0.00  0.00    -0.395 OA
HETATM   35  H           1       5.411  24.288  55.159  0.00  0.00     0.210 HD
ENDBRANCH  13  34
BRANCH   9  36
HETATM   36  C           1      -0.110  34.211  54.143  0.00  0.00     0.270 C 
BRANCH  36  37
HETATM   37  O           1      -1.198  33.387  53.766  0.00  0.00    -0.387 OA
HETATM   38  C           1      -2.045  33.089  54.853  0.00  0.00     0.202 C 
ENDBRANCH  36  37
ENDBRANCH   9  36
TORSDOF 8
ENDMDL
MODEL 6
REMARK VINA RESULT:      -7.8      5.906     10.733
REMARK  8 active torsions:
REMARK  status: ('A' for Active; 'I' for Inactive)
REMARK    1  A    between atoms: C_3  and  C_27 
REMARK       I    between atoms: N_12  and  C_13 
REMARK    2  A    between atoms: C_13  and  C_14 
REMARK    3  A    between atoms: C_14  and  O_15 
REMARK    4  A    between atoms: C_18  and  C_36 
REMARK    5  A    between atoms: O_19  and  C_36 
REMARK    6  A    between atoms: C_20  and  O_21 
REMARK    7  A    between atoms: C_27  and  C_28 
REMARK       I    between atoms: C_28  and  N_29 
REMARK    8  A    between atoms: N_29  and  C_30 
ROOT
HETATM    1  C           1       3.134  32.177  60.185  0.00  0.00     0.016 C 
HETATM    2  C           1       4.069  33.415  60.236  0.00  0.00    -0.030 C 
HETATM    3  C           1       4.978  33.378  58.964  0.00  0.00     0.056 C 
HETATM    4  C           1       6.084  32.396  59.203  0.00  0.00     0.056 A 
HETATM    5  C           1       6.784  32.387  60.336  0.00  0.00     0.012 A 
HETATM    6  S           1       7.790  31.322  60.300  0.00  0.00    -0.055 SA
HETATM    7  C           1       7.416  30.876  58.953  0.00  0.00     0.174 A 
HETATM    8  N           1       8.085  29.843  58.406  0.00  0.00    -0.304 N 
HETATM    9  C           1       7.905  29.230  57.201  0.00  0.00     0.247 C 
HETATM   10  O           1       7.053  29.544  56.409  0.00  0.00    -0.271 OA
HETATM   11  N           1       6.462  31.502  58.404  0.00  0.00    -0.227 NA
HETATM   12  C           1       4.441  34.354  62.725  0.00  0.00     0.008 C 
HETATM   13  C           1       2.912  34.532  62.729  0.00  0.00     0.128 C 
HETATM   14  C           1       3.191  34.680  60.172  0.00  0.00     0.013 C 
HETATM   15  H           1       8.824  29.508  59.007  0.00  0.00     0.171 HD
HETATM   16  C           1       5.102  35.753  62.639  0.00  0.00     0.020 C 
HETATM   17  C           1       6.434  33.367  61.410  0.00  0.00     0.055 C 
HETATM   18  C           1       4.894  33.390  61.579  0.00  0.00     0.012 C 
HETATM   19  C           1       2.268  34.859  61.382  0.00  0.00     0.033 C 
ENDROOT
BRANCH   3  20
HETATM   20  C           1       4.303  33.127  57.598  0.00  0.00     0.114 C 
BRANCH  20  21
HETATM   21  C           1       4.821  34.065  56.510  0.00  0.00     0.222 C 
HETATM   22  O           1       5.166  35.188  56.774  0.00  0.00    -0.273 OA
HETATM   23  N           1       4.860  33.511  55.265  0.00  0.00    -0.327 N 
HETATM   24  H           1       4.560  32.551  55.175  0.00  0.00     0.169 HD
BRANCH  23  25
HETATM   25  C           1       5.253  33.970  54.059  0.00  0.00     0.034 A 
HETATM   26  C           1       4.650  33.404  52.996  0.00  0.00     0.029 A 
HETATM   27  C           1       4.955  33.766  51.741  0.00  0.00     0.002 A 
HETATM   28  C           1       5.876  34.716  51.527  0.00  0.00     0.000 A 
HETATM   29  C           1       6.483  35.294  52.573  0.00  0.00     0.002 A 
HETATM   30  C           1       6.171  34.925  53.827  0.00  0.00     0.029 A 
ENDBRANCH  23  25
ENDBRANCH  20  21
ENDBRANCH   3  20
BRANCH  12  31
HETATM   31  C           1       4.882  33.755  64.086  0.00  0.00     0.176 C 
BRANCH  31  32
HETATM   32  O           1       4.730  32.350  64.096  0.00  0.00    -0.400 OA
HETATM   33  H           1       3.846  32.118  63.804  0.00  0.00     0.209 HD
ENDBRANCH  31  32
ENDBRANCH  12  31
BRANCH  13  34
HETATM   34  O           1       2.316  33.380  63.281  0.00  0.00    -0.395 OA
HETATM   35  H           1       2.890  32.632  63.087  0.00  0.00     0.210 HD
ENDBRANCH  13  34
BRANCH   9  36
HETATM   36  C           1       8.883  28.094  56.935  0.00  0.00     0.270 C 
BRANCH  36  37
HETATM   37  O           1       8.476  26.913  57.601  0.00  0.00    -0.387 OA
HETATM   38  C           1       7.775  26.034  56.749  0.00  0.00     0.202 C 
ENDBRANCH  36  37
ENDBRANCH   9  36
TORSDOF 8
ENDMDL
MODEL 7
REMARK VINA RESULT:      -7.7      3.809      7.147
REMARK  8 active torsions:
REMARK  status: ('A' for Active; 'I' for Inactive)
REMARK    1  A    between atoms: C_3  and  C_27 
REMARK       I    between atoms: N_12  and  C_13 
REMARK    2  A    between atoms: C_13  and  C_14 
REMARK    3  A    between atoms: C_14  and  O_15 
REMARK    4  A    between atoms: C_18  and  C_36 
REMARK    5  A    between atoms: O_19  and  C_36 
REMARK    6  A    between atoms: C_20  and  O_21 
REMARK    7  A    between atoms: C_27  and  C_28 
REMARK       I    between atoms: C_28  and  N_29 
REMARK    8  A    between atoms: N_29  and  C_30 
ROOT
HETATM    1  C           1       3.861  28.036  53.134  0.00  0.00     0.016 C 
HETATM    2  C           1       5.228  27.815  52.433  0.00  0.00    -0.030 C 
HETATM    3  C           1       5.192  28.579  51.069  0.00  0.00     0.056 C 
HETATM    4  C           1       4.428  27.748  50.083  0.00  0.00     0.056 A 
HETATM    5  C           1       4.655  26.444  49.937  0.00  0.00     0.012 A 
HETATM    6  S           1       3.764  25.887  48.916  0.00  0.00    -0.055 SA
HETATM    7  C           1       3.117  27.175  48.635  0.00  0.00     0.174 A 
HETATM    8  N           1       2.147  27.219  47.702  0.00  0.00    -0.304 N 
HETATM    9  C           1       1.383  28.272  47.290  0.00  0.00     0.247 C 
HETATM   10  O           1       1.469  29.383  47.748  0.00  0.00    -0.271 OA
HETATM   11  N           1       3.521  28.162  49.317  0.00  0.00    -0.227 NA
HETATM   12  C           1       6.486  25.587  53.250  0.00  0.00     0.008 C 
HETATM   13  C           1       6.421  26.237  54.645  0.00  0.00     0.128 C 
HETATM   14  C           1       6.324  28.443  53.316  0.00  0.00     0.013 C 
HETATM   15  H           1       2.001  26.322  47.262  0.00  0.00     0.171 HD
HETATM   16  C           1       7.952  25.628  52.752  0.00  0.00     0.020 C 
HETATM   17  C           1       5.682  25.787  50.804  0.00  0.00     0.055 C 
HETATM   18  C           1       5.482  26.269  52.263  0.00  0.00     0.012 C 
HETATM   19  C           1       6.491  27.764  54.678  0.00  0.00     0.033 C 
ENDROOT
BRANCH   3  20
HETATM   20  C           1       4.688  30.038  51.068  0.00  0.00     0.114 C 
BRANCH  20  21
HETATM   21  C           1       5.302  30.867  49.942  0.00  0.00     0.222 C 
HETATM   22  O           1       6.437  31.263  50.014  0.00  0.00    -0.273 OA
HETATM   23  N           1       4.464  31.088  48.890  0.00  0.00    -0.327 N 
HETATM   24  H           1       3.539  30.687  48.941  0.00  0.00     0.169 HD
BRANCH  23  25
HETATM   25  C           1       4.605  31.739  47.716  0.00  0.00     0.034 A 
HETATM   26  C           1       4.612  30.960  46.617  0.00  0.00     0.029 A 
HETATM   27  C           1       4.752  31.482  45.389  0.00  0.00     0.002 A 
HETATM   28  C           1       4.884  32.807  45.238  0.00  0.00     0.000 A 
HETATM   29  C           1       4.874  33.598  46.321  0.00  0.00     0.002 A 
HETATM   30  C           1       4.734  33.067  47.548  0.00  0.00     0.029 A 
ENDBRANCH  23  25
ENDBRANCH  20  21
ENDBRANCH   3  20
BRANCH  12  31
HETATM   31  C           1       6.119  24.085  53.379  0.00  0.00     0.176 C 
BRANCH  31  32
HETATM   32  O           1       6.853  23.469  54.418  0.00  0.00    -0.400 OA
HETATM   33  H           1       7.669  23.107  54.067  0.00  0.00     0.209 HD
ENDBRANCH  31  32
ENDBRANCH  12  31
BRANCH  13  34
HETATM   34  O           1       5.258  25.793  55.306  0.00  0.00    -0.395 OA
HETATM   35  H           1       4.579  25.651  54.640  0.00  0.00     0.210 HD
ENDBRANCH  13  34
BRANCH   9  36
HETATM   36  C           1       0.392  27.920  46.189  0.00  0.00     0.270 C 
BRANCH  36  37
HETATM   37  O           1      -0.330  29.066  45.776  0.00  0.00    -0.387 OA
HETATM   38  C           1      -1.127  28.814  44.640  0.00  0.00     0.202 C 
ENDBRANCH  36  37
ENDBRANCH   9  36
TORSDOF 8
ENDMDL
MODEL 8
REMARK VINA RESULT:      -7.6      3.647      7.608
REMARK  8 active torsions:
REMARK  status: ('A' for Active; 'I' for Inactive)
REMARK    1  A    between atoms: C_3  and  C_27 
REMARK       I    between atoms: N_12  and  C_13 
REMARK    2  A    between atoms: C_13  and  C_14 
REMARK    3  A    between atoms: C_14  and  O_15 
REMARK    4  A    between atoms: C_18  and  C_36 
REMARK    5  A    between atoms: O_19  and  C_36 
REMARK    6  A    between atoms: C_20  and  O_21 
REMARK    7  A    between atoms: C_27  and  C_28 
REMARK       I    between atoms: C_28  and  N_29 
REMARK    8  A    between atoms: N_29  and  C_30 
ROOT
HETATM    1  C           1       7.863  27.761  53.646  0.00  0.00     0.016 C 
HETATM    2  C           1       6.474  27.269  54.131  0.00  0.00    -0.030 C 
HETATM    3  C           1       5.543  27.161  52.879  0.00  0.00     0.056 C 
HETATM    4  C           1       5.057  28.536  52.534  0.00  0.00     0.056 A 
HETATM    5  C           1       4.581  29.367  53.458  0.00  0.00     0.012 A 
HETATM    6  S           1       4.188  30.637  52.843  0.00  0.00    -0.055 SA
HETATM    7  C           1       4.565  30.213  51.489  0.00  0.00     0.174 A 
HETATM    8  N           1       4.393  31.077  50.471  0.00  0.00    -0.304 N 
HETATM    9  C           1       4.693  30.934  49.148  0.00  0.00     0.247 C 
HETATM   10  O           1       5.202  29.948  48.678  0.00  0.00    -0.271 OA
HETATM   11  N           1       5.046  29.047  51.384  0.00  0.00    -0.227 NA
HETATM   12  C           1       6.005  27.816  56.719  0.00  0.00     0.008 C 
HETATM   13  C           1       7.265  26.969  56.975  0.00  0.00     0.128 C 
HETATM   14  C           1       6.650  25.860  54.732  0.00  0.00     0.013 C 
HETATM   15  H           1       3.971  31.943  50.774  0.00  0.00     0.171 HD
HETATM   16  C           1       4.765  27.012  57.184  0.00  0.00     0.020 C 
HETATM   17  C           1       4.560  28.924  54.887  0.00  0.00     0.055 C 
HETATM   18  C           1       5.921  28.263  55.222  0.00  0.00     0.012 C 
HETATM   19  C           1       7.518  25.825  55.993  0.00  0.00     0.033 C 
ENDROOT
BRANCH   3  20
HETATM   20  C           1       6.091  26.439  51.629  0.00  0.00     0.114 C 
BRANCH  20  21
HETATM   21  C           1       4.978  25.881  50.744  0.00  0.00     0.222 C 
HETATM   22  O           1       4.491  24.803  50.968  0.00  0.00    -0.273 OA
HETATM   23  N           1       4.607  26.708  49.726  0.00  0.00    -0.327 N 
HETATM   24  H           1       5.080  27.597  49.654  0.00  0.00     0.169 HD
BRANCH  23  25
HETATM   25  C           1       3.681  26.615  48.749  0.00  0.00     0.034 A 
HETATM   26  C           1       2.688  27.524  48.800  0.00  0.00     0.029 A 
HETATM   27  C           1       1.700  27.536  47.893  0.00  0.00     0.002 A 
HETATM   28  C           1       1.692  26.631  46.904  0.00  0.00     0.000 A 
HETATM   29  C           1       2.675  25.722  46.835  0.00  0.00     0.002 A 
HETATM   30  C           1       3.660  25.717  47.748  0.00  0.00     0.029 A 
ENDBRANCH  23  25
ENDBRANCH  20  21
ENDBRANCH   3  20
BRANCH  12  31
HETATM   31  C           1       6.057  29.080  57.617  0.00  0.00     0.176 C 
BRANCH  31  32
HETATM   32  O           1       4.774  29.401  58.117  0.00  0.00    -0.400 OA
HETATM   33  H           1       4.571  30.318  57.920  0.00  0.00     0.209 HD
ENDBRANCH  31  32
ENDBRANCH  12  31
BRANCH  13  34
HETATM   34  O           1       8.388  27.819  57.026  0.00  0.00    -0.395 OA
HETATM   35  H           1       8.343  28.316  57.848  0.00  0.00     0.210 HD
ENDBRANCH  13  34
BRANCH   9  36
HETATM   36  C           1       4.331  32.145  48.299  0.00  0.00     0.270 C 
BRANCH  36  37
HETATM   37  O           1       5.194  32.254  47.182  0.00  0.00    -0.387 OA
HETATM   38  C           1       5.907  33.472  47.175  0.00  0.00     0.202 C 
ENDBRANCH  36  37
ENDBRANCH   9  36
TORSDOF 8
ENDMDL
MODEL 9
REMARK VINA RESULT:      -7.5      4.320      8.731
REMARK  8 active torsions:
REMARK  status: ('A' for Active; 'I' for Inactive)
REMARK    1  A    between atoms: C_3  and  C_27 
REMARK       I    between atoms: N_12  and  C_13 
REMARK    2  A    between atoms: C_13  and  C_14 
REMARK    3  A    between atoms: C_14  and  O_15 
REMARK    4  A    between atoms: C_18  and  C_36 
REMARK    5  A    between atoms: O_19  and  C_36 
REMARK    6  A    between atoms: C_20  and  O_21 
REMARK    7  A    between atoms: C_27  and  C_28 
REMARK       I    between atoms: C_28  and  N_29 
REMARK    8  A    between atoms: N_29  and  C_30 
ROOT
HETATM    1  C           1       1.460  29.062  50.580  0.00  0.00     0.016 C 
HETATM    2  C           1       2.957  29.095  50.171  0.00  0.00    -0.030 C 
HETATM    3  C           1       3.803  29.260  51.476  0.00  0.00     0.056 C 
HETATM    4  C           1       3.769  30.702  51.881  0.00  0.00     0.056 A 
HETATM    5  C           1       3.976  31.684  51.005  0.00  0.00     0.012 A 
HETATM    6  S           1       3.876  32.985  51.671  0.00  0.00    -0.055 SA
HETATM    7  C           1       3.600  32.401  52.990  0.00  0.00     0.174 A 
HETATM    8  N           1       3.412  33.229  54.035  0.00  0.00    -0.304 N 
HETATM    9  C           1       3.113  32.937  55.334  0.00  0.00     0.247 C 
HETATM   10  O           1       2.951  31.818  55.750  0.00  0.00    -0.271 OA
HETATM   11  N           1       3.545  31.138  53.039  0.00  0.00    -0.227 NA
HETATM   12  C           1       3.340  29.877  47.630  0.00  0.00     0.008 C 
HETATM   13  C           1       2.463  28.661  47.278  0.00  0.00     0.128 C 
HETATM   14  C           1       3.307  27.738  49.530  0.00  0.00     0.013 C 
HETATM   15  H           1       3.525  34.199  53.778  0.00  0.00     0.171 HD
HETATM   16  C           1       4.802  29.566  47.225  0.00  0.00     0.020 C 
HETATM   17  C           1       4.220  31.335  49.571  0.00  0.00     0.055 C 
HETATM   18  C           1       3.189  30.263  49.139  0.00  0.00     0.012 C 
HETATM   19  C           1       2.568  27.460  48.218  0.00  0.00     0.033 C 
ENDROOT
BRANCH   3  20
HETATM   20  C           1       3.475  28.343  52.674  0.00  0.00     0.114 C 
BRANCH  20  21
HETATM   21  C           1       4.713  27.641  53.228  0.00  0.00     0.222 C 
HETATM   22  O           1       5.376  28.150  54.095  0.00  0.00    -0.273 OA
HETATM   23  N           1       4.966  26.426  52.665  0.00  0.00    -0.327 N 
HETATM   24  H           1       4.324  26.099  51.957  0.00  0.00     0.169 HD
BRANCH  23  25
HETATM   25  C           1       5.920  25.493  52.867  0.00  0.00     0.034 A 
HETATM   26  C           1       6.902  25.457  51.945  0.00  0.00     0.029 A 
HETATM   27  C           1       7.907  24.573  52.025  0.00  0.00     0.002 A 
HETATM   28  C           1       7.949  23.702  53.043  0.00  0.00     0.000 A 
HETATM   29  C           1       6.983  23.727  53.973  0.00  0.00     0.002 A 
HETATM   30  C           1       5.980  24.616  53.884  0.00  0.00     0.029 A 
ENDBRANCH  23  25
ENDBRANCH  20  21
ENDBRANCH   3  20
BRANCH  12  31
HETATM   31  C           1       2.901  31.083  46.759  0.00  0.00     0.176 C 
BRANCH  31  32
HETATM   32  O           1       2.719  30.696  45.411  0.00  0.00    -0.400 OA
HETATM   33  H           1       1.976  30.093  45.345  0.00  0.00     0.209 HD
ENDBRANCH  31  32
ENDBRANCH  12  31
BRANCH  13  34
HETATM   34  O           1       1.119  29.077  47.176  0.00  0.00    -0.395 OA
HETATM   35  H           1       0.961  29.725  47.870  0.00  0.00     0.210 HD
ENDBRANCH  13  34
BRANCH   9  36
HETATM   36  C           1       2.993  34.162  56.229  0.00  0.00     0.270 C 
BRANCH  36  37
HETATM   37  O           1       2.482  33.809  57.501  0.00  0.00    -0.387 OA
HETATM   38  C           1       3.319  34.239  58.552  0.00  0.00     0.202 C 
ENDBRANCH  36  37
ENDBRANCH   9  36
TORSDOF 8
ENDMDL
MODEL 10
REMARK VINA RESULT:      -7.2      6.716     11.422
REMARK  8 active torsions:
REMARK  status: ('A' for Active; 'I' for Inactive)
REMARK    1  A    between atoms: C_3  and  C_27 
REMARK       I    between atoms: N_12  and  C_13 
REMARK    2  A    between atoms: C_13  and  C_14 
REMARK    3  A    between atoms: C_14  and  O_15 
REMARK    4  A    between atoms: C_18  and  C_36 
REMARK    5  A    between atoms: O_19  and  C_36 
REMARK    6  A    between atoms: C_20  and  O_21 
REMARK    7  A    between atoms: C_27  and  C_28 
REMARK       I    between atoms: C_28  and  N_29 
REMARK    8  A    between atoms: N_29  and  C_30 
ROOT
HETATM    1  C           1       3.384  32.387  60.931  0.00  0.00     0.016 C 
HETATM    2  C           1       4.372  33.581  60.848  0.00  0.00    -0.030 C 
HETATM    3  C           1       5.132  33.478  59.485  0.00  0.00     0.056 C 
HETATM    4  C           1       6.214  32.451  59.626  0.00  0.00     0.056 A 
HETATM    5  C           1       7.034  32.432  60.675  0.00  0.00     0.012 A 
HETATM    6  S           1       7.983  31.322  60.556  0.00  0.00    -0.055 SA
HETATM    7  C           1       7.443  30.867  59.269  0.00  0.00     0.174 A 
HETATM    8  N           1       8.002  29.794  58.678  0.00  0.00    -0.304 N 
HETATM    9  C           1       7.664  29.166  57.514  0.00  0.00     0.247 C 
HETATM   10  O           1       6.743  29.503  56.813  0.00  0.00    -0.271 OA
HETATM   11  N           1       6.463  31.525  58.812  0.00  0.00    -0.227 NA
HETATM   12  C           1       5.058  34.551  63.257  0.00  0.00     0.008 C 
HETATM   13  C           1       3.547  34.799  63.425  0.00  0.00     0.128 C 
HETATM   14  C           1       3.547  34.883  60.850  0.00  0.00     0.013 C 
HETATM   15  H           1       8.788  29.438  59.201  0.00  0.00     0.171 HD
HETATM   16  C           1       5.765  35.916  63.065  0.00  0.00     0.020 C 
HETATM   17  C           1       6.848  33.448  61.757  0.00  0.00     0.055 C 
HETATM   18  C           1       5.338  33.544  62.093  0.00  0.00     0.012 C 
HETATM   19  C           1       2.774  35.128  62.149  0.00  0.00     0.033 C 
ENDROOT
BRANCH   3  20
HETATM   20  C           1       4.300  33.231  58.208  0.00  0.00     0.114 C 
BRANCH  20  21
HETATM   21  C           1       4.305  34.433  57.267  0.00  0.00     0.222 C 
HETATM   22  O           1       5.326  34.817  56.759  0.00  0.00    -0.273 OA
HETATM   23  N           1       3.077  34.990  57.066  0.00  0.00    -0.327 N 
HETATM   24  H           1       2.291  34.564  57.536  0.00  0.00     0.169 HD
BRANCH  23  25
HETATM   25  C           1       2.642  36.026  56.319  0.00  0.00     0.034 A 
HETATM   26  C           1       2.721  37.237  56.903  0.00  0.00     0.029 A 
HETATM   27  C           1       2.315  38.349  56.272  0.00  0.00     0.002 A 
HETATM   28  C           1       1.822  38.267  55.028  0.00  0.00     0.000 A 
HETATM   29  C           1       1.741  37.070  54.429  0.00  0.00     0.002 A 
HETATM   30  C           1       2.149  35.961  55.069  0.00  0.00     0.029 A 
ENDBRANCH  23  25
ENDBRANCH  20  21
ENDBRANCH   3  20
BRANCH  12  31
HETATM   31  C           1       5.620  33.960  64.576  0.00  0.00     0.176 C 
BRANCH  31  32
HETATM   32  O           1       5.138  34.671  65.699  0.00  0.00    -0.400 OA
HETATM   33  H           1       5.718  35.412  65.885  0.00  0.00     0.209 HD
ENDBRANCH  31  32
ENDBRANCH  12  31
BRANCH  13  34
HETATM   34  O           1       2.967  33.686  64.067  0.00  0.00    -0.395 OA
HETATM   35  H           1       2.139  33.489  63.620  0.00  0.00     0.210 HD
ENDBRANCH  13  34
BRANCH   9  36
HETATM   36  C           1       8.556  27.982  57.172  0.00  0.00     0.270 C 
BRANCH  36  37
HETATM   37  O           1       7.780  26.849  56.826  0.00  0.00    -0.387 OA
HETATM   38  C           1       8.326  25.652  57.336  0.00  0.00     0.202 C 
ENDBRANCH  36  37
ENDBRANCH   9  36
TORSDOF 8
ENDMDL
