MODEL 1
REMARK VINA RESULT:      -7.9      0.000      0.000
REMARK  6 active torsions:
REMARK  status: ('A' for Active; 'I' for Inactive)
REMARK    1  A    between atoms: N_4  and  C_5 
REMARK    2  A    between atoms: C_5  and  C_6 
REMARK    3  A    between atoms: C_6  and  C_7 
REMARK    4  A    between atoms: C_7  and  N_8 
REMARK       I    between atoms: N_8  and  C_9 
REMARK       I    between atoms: C_9  and  N_10 
REMARK    5  A    between atoms: N_10  and  C_11 
REMARK    6  A    between atoms: C_12  and  O_13 
ROOT
HETATM    1  N   UNL     1       6.603  27.313  56.563  1.00  0.00    -0.343 N 
HETATM    2  C   UNL     1       6.411  26.197  55.776  1.00  0.00     0.320 C 
HETATM    3  N   UNL     1       7.623  25.625  55.445  1.00  0.00    -0.306 N 
HETATM    4  O   UNL     1       5.307  25.834  55.388  1.00  0.00    -0.247 OA
HETATM    5  H   UNL     1       7.399  27.270  57.190  1.00  0.00     0.164 HD
HETATM    6  H   UNL     1       8.319  26.319  55.216  1.00  0.00     0.171 HD
ENDROOT
BRANCH   1   7
HETATM    7  C   UNL     1       5.486  28.118  57.012  1.00  0.00     0.126 C 
BRANCH   7   8
HETATM    8  C   UNL     1       5.816  29.598  57.219  1.00  0.00     0.041 C 
BRANCH   8   9
HETATM    9  C   UNL     1       7.301  29.898  57.398  1.00  0.00     0.152 C 
BRANCH   9  10
HETATM   10  N   UNL     1       7.609  30.508  58.676  1.00  0.00    -0.279 N 
HETATM   11  N   UNL     1       8.506  29.926  59.501  1.00  0.00    -0.176 NA
HETATM   12  C   UNL     1       8.521  30.733  60.574  1.00  0.00     0.074 A 
HETATM   13  C   UNL     1       9.383  30.420  61.739  1.00  0.00     0.074 C 
HETATM   14  C   UNL     1       7.644  31.832  60.411  1.00  0.00     0.077 A 
HETATM   15  C   UNL     1       7.073  31.658  59.175  1.00  0.00     0.138 A 
HETATM   16 CL   UNL     1       7.361  33.086  61.510  1.00  0.00    -0.081 Cl
ENDBRANCH   9  10
ENDBRANCH   8   9
ENDBRANCH   7   8
ENDBRANCH   1   7
BRANCH   3  17
HETATM   17  C   UNL     1       7.719  24.371  54.798  1.00  0.00     0.071 A 
HETATM   18  C   UNL     1       7.893  24.249  53.401  1.00  0.00     0.095 A 
HETATM   19  C   UNL     1       8.016  22.973  52.839  1.00  0.00     0.041 A 
HETATM   20  C   UNL     1       7.945  21.833  53.645  1.00  0.00     0.026 A 
HETATM   21  C   UNL     1       7.725  21.964  55.013  1.00  0.00     0.036 A 
HETATM   22 CL   UNL     1       7.616  20.557  55.998  1.00  0.00    -0.084 Cl
HETATM   23  C   UNL     1       7.596  23.224  55.592  1.00  0.00     0.056 A 
BRANCH  18  24
HETATM   24  O   UNL     1       7.822  25.403  52.665  1.00  0.00    -0.354 OA
HETATM   25  C   UNL     1       6.646  25.620  51.898  1.00  0.00     0.210 C 
ENDBRANCH  18  24
ENDBRANCH   3  17
TORSDOF 6
ENDMDL
MODEL 2
REMARK VINA RESULT:      -7.8      2.095      3.022
REMARK  6 active torsions:
REMARK  status: ('A' for Active; 'I' for Inactive)
REMARK    1  A    between atoms: N_4  and  C_5 
REMARK    2  A    between atoms: C_5  and  C_6 
REMARK    3  A    between atoms: C_6  and  C_7 
REMARK    4  A    between atoms: C_7  and  N_8 
REMARK       I    between atoms: N_8  and  C_9 
REMARK       I    between atoms: C_9  and  N_10 
REMARK    5  A    between atoms: N_10  and  C_11 
REMARK    6  A    between atoms: C_12  and  O_13 
ROOT
HETATM    1  N   UNL     1       6.620  27.096  54.241  1.00  0.00    -0.343 N 
HETATM    2  C   UNL     1       6.436  25.738  54.392  1.00  0.00     0.320 C 
HETATM    3  N   UNL     1       7.649  25.077  54.353  1.00  0.00    -0.306 N 
HETATM    4  O   UNL     1       5.330  25.218  54.479  1.00  0.00    -0.247 OA
HETATM    5  H   UNL     1       7.479  27.463  54.636  1.00  0.00     0.164 HD
HETATM    6  H   UNL     1       8.260  25.451  53.642  1.00  0.00     0.171 HD
ENDROOT
BRANCH   1   7
HETATM    7  C   UNL     1       5.497  28.008  54.206  1.00  0.00     0.126 C 
BRANCH   7   8
HETATM    8  C   UNL     1       5.572  29.144  55.229  1.00  0.00     0.041 C 
BRANCH   8   9
HETATM    9  C   UNL     1       5.977  28.708  56.633  1.00  0.00     0.152 C 
BRANCH   9  10
HETATM   10  N   UNL     1       7.236  29.278  57.066  1.00  0.00    -0.279 N 
HETATM   11  N   UNL     1       8.376  28.971  56.411  1.00  0.00    -0.176 NA
HETATM   12  C   UNL     1       9.322  29.644  57.085  1.00  0.00     0.074 A 
HETATM   13  C   UNL     1      10.746  29.547  56.682  1.00  0.00     0.074 C 
HETATM   14  C   UNL     1       8.769  30.388  58.155  1.00  0.00     0.077 A 
HETATM   15  C   UNL     1       7.421  30.133  58.113  1.00  0.00     0.138 A 
HETATM   16 CL   UNL     1       9.598  31.377  59.249  1.00  0.00    -0.081 Cl
ENDBRANCH   9  10
ENDBRANCH   8   9
ENDBRANCH   7   8
ENDBRANCH   1   7
BRANCH   3  17
HETATM   17  C   UNL     1       7.775  23.703  54.662  1.00  0.00     0.071 A 
HETATM   18  C   UNL     1       7.736  23.216  55.987  1.00  0.00     0.095 A 
HETATM   19  C   UNL     1       7.831  21.837  56.210  1.00  0.00     0.041 A 
HETATM   20  C   UNL     1       7.986  20.955  55.137  1.00  0.00     0.026 A 
HETATM   21  C   UNL     1       8.072  21.451  53.839  1.00  0.00     0.036 A 
HETATM   22 CL   UNL     1       8.284  20.362  52.523  1.00  0.00    -0.084 Cl
HETATM   23  C   UNL     1       7.983  22.819  53.596  1.00  0.00     0.056 A 
BRANCH  18  24
HETATM   24  O   UNL     1       7.713  24.151  56.990  1.00  0.00    -0.354 OA
HETATM   25  C   UNL     1       8.952  24.492  57.596  1.00  0.00     0.210 C 
ENDBRANCH  18  24
ENDBRANCH   3  17
TORSDOF 6
ENDMDL
MODEL 3
REMARK VINA RESULT:      -7.8      4.219      5.354
REMARK  6 active torsions:
REMARK  status: ('A' for Active; 'I' for Inactive)
REMARK    1  A    between atoms: N_4  and  C_5 
REMARK    2  A    between atoms: C_5  and  C_6 
REMARK    3  A    between atoms: C_6  and  C_7 
REMARK    4  A    between atoms: C_7  and  N_8 
REMARK       I    between atoms: N_8  and  C_9 
REMARK       I    between atoms: C_9  and  N_10 
REMARK    5  A    between atoms: N_10  and  C_11 
REMARK    6  A    between atoms: C_12  and  O_13 
ROOT
HETATM    1  N   UNL     1       6.326  25.653  51.188  1.00  0.00    -0.343 N 
HETATM    2  C   UNL     1       6.240  24.938  52.364  1.00  0.00     0.320 C 
HETATM    3  N   UNL     1       7.490  24.506  52.760  1.00  0.00    -0.306 N 
HETATM    4  O   UNL     1       5.176  24.683  52.915  1.00  0.00    -0.247 OA
HETATM    5  H   UNL     1       7.176  26.194  51.071  1.00  0.00     0.164 HD
HETATM    6  H   UNL     1       8.041  24.176  51.981  1.00  0.00     0.171 HD
ENDROOT
BRANCH   1   7
HETATM    7  C   UNL     1       5.144  26.182  50.541  1.00  0.00     0.126 C 
BRANCH   7   8
HETATM    8  C   UNL     1       5.104  27.709  50.447  1.00  0.00     0.041 C 
BRANCH   8   9
HETATM    9  C   UNL     1       4.316  28.393  51.560  1.00  0.00     0.152 C 
BRANCH   9  10
HETATM   10  N   UNL     1       4.936  28.258  52.863  1.00  0.00    -0.279 N 
HETATM   11  N   UNL     1       6.266  28.441  52.997  1.00  0.00    -0.176 NA
HETATM   12  C   UNL     1       6.487  28.219  54.303  1.00  0.00     0.074 A 
HETATM   13  C   UNL     1       7.860  28.302  54.859  1.00  0.00     0.074 C 
HETATM   14  C   UNL     1       5.287  27.914  54.989  1.00  0.00     0.077 A 
HETATM   15  C   UNL     1       4.305  27.950  54.032  1.00  0.00     0.138 A 
HETATM   16 CL   UNL     1       5.109  27.574  56.637  1.00  0.00    -0.081 Cl
ENDBRANCH   9  10
ENDBRANCH   8   9
ENDBRANCH   7   8
ENDBRANCH   1   7
BRANCH   3  17
HETATM   17  C   UNL     1       7.722  23.906  54.020  1.00  0.00     0.071 A 
HETATM   18  C   UNL     1       7.835  22.508  54.185  1.00  0.00     0.095 A 
HETATM   19  C   UNL     1       8.102  21.991  55.458  1.00  0.00     0.041 A 
HETATM   20  C   UNL     1       8.232  22.845  56.556  1.00  0.00     0.026 A 
HETATM   21  C   UNL     1       8.070  24.218  56.390  1.00  0.00     0.036 A 
HETATM   22 CL   UNL     1       8.210  25.263  57.750  1.00  0.00    -0.084 Cl
HETATM   23  C   UNL     1       7.801  24.752  55.133  1.00  0.00     0.056 A 
BRANCH  18  24
HETATM   24  O   UNL     1       7.567  21.731  53.087  1.00  0.00    -0.354 OA
HETATM   25  C   UNL     1       8.322  20.538  52.929  1.00  0.00     0.210 C 
ENDBRANCH  18  24
ENDBRANCH   3  17
TORSDOF 6
ENDMDL
MODEL 4
REMARK VINA RESULT:      -7.7      5.389      8.108
REMARK  6 active torsions:
REMARK  status: ('A' for Active; 'I' for Inactive)
REMARK    1  A    between atoms: N_4  and  C_5 
REMARK    2  A    between atoms: C_5  and  C_6 
REMARK    3  A    between atoms: C_6  and  C_7 
REMARK    4  A    between atoms: C_7  and  N_8 
REMARK       I    between atoms: N_8  and  C_9 
REMARK       I    between atoms: C_9  and  N_10 
REMARK    5  A    between atoms: N_10  and  C_11 
REMARK    6  A    between atoms: C_12  and  O_13 
ROOT
HETATM    1  N   UNL     1       5.830  26.951  53.142  1.00  0.00    -0.343 N 
HETATM    2  C   UNL     1       5.831  25.608  53.456  1.00  0.00     0.320 C 
HETATM    3  N   UNL     1       7.120  25.163  53.675  1.00  0.00    -0.306 N 
HETATM    4  O   UNL     1       4.817  24.922  53.463  1.00  0.00    -0.247 OA
HETATM    5  H   UNL     1       6.551  27.502  53.595  1.00  0.00     0.164 HD
HETATM    6  H   UNL     1       7.772  25.550  53.008  1.00  0.00     0.171 HD
ENDROOT
BRANCH   1   7
HETATM    7  C   UNL     1       4.602  27.648  52.827  1.00  0.00     0.126 C 
BRANCH   7   8
HETATM    8  C   UNL     1       4.739  28.706  51.729  1.00  0.00     0.041 C 
BRANCH   8   9
HETATM    9  C   UNL     1       5.247  28.173  50.393  1.00  0.00     0.152 C 
BRANCH   9  10
HETATM   10  N   UNL     1       4.202  27.585  49.580  1.00  0.00    -0.279 N 
HETATM   11  N   UNL     1       4.364  26.346  49.068  1.00  0.00    -0.176 NA
HETATM   12  C   UNL     1       3.236  26.142  48.368  1.00  0.00     0.074 A 
HETATM   13  C   UNL     1       3.033  24.877  47.621  1.00  0.00     0.074 C 
HETATM   14  C   UNL     1       2.361  27.250  48.457  1.00  0.00     0.077 A 
HETATM   15  C   UNL     1       3.012  28.162  49.249  1.00  0.00     0.138 A 
HETATM   16 CL   UNL     1       0.838  27.411  47.738  1.00  0.00    -0.081 Cl
ENDBRANCH   9  10
ENDBRANCH   8   9
ENDBRANCH   7   8
ENDBRANCH   1   7
BRANCH   3  17
HETATM   17  C   UNL     1       7.402  23.876  54.188  1.00  0.00     0.071 A 
HETATM   18  C   UNL     1       7.393  23.592  55.572  1.00  0.00     0.095 A 
HETATM   19  C   UNL     1       7.646  22.283  56.001  1.00  0.00     0.041 A 
HETATM   20  C   UNL     1       7.927  21.276  55.073  1.00  0.00     0.026 A 
HETATM   21  C   UNL     1       7.980  21.578  53.716  1.00  0.00     0.036 A 
HETATM   22 CL   UNL     1       8.347  20.338  52.580  1.00  0.00    -0.084 Cl
HETATM   23  C   UNL     1       7.735  22.874  53.269  1.00  0.00     0.056 A 
BRANCH  18  24
HETATM   24  O   UNL     1       7.239  24.656  56.422  1.00  0.00    -0.354 OA
HETATM   25  C   UNL     1       8.377  25.071  57.166  1.00  0.00     0.210 C 
ENDBRANCH  18  24
ENDBRANCH   3  17
TORSDOF 6
ENDMDL
MODEL 5
REMARK VINA RESULT:      -7.6      5.539      8.785
REMARK  6 active torsions:
REMARK  status: ('A' for Active; 'I' for Inactive)
REMARK    1  A    between atoms: N_4  and  C_5 
REMARK    2  A    between atoms: C_5  and  C_6 
REMARK    3  A    between atoms: C_6  and  C_7 
REMARK    4  A    between atoms: C_7  and  N_8 
REMARK       I    between atoms: N_8  and  C_9 
REMARK       I    between atoms: C_9  and  N_10 
REMARK    5  A    between atoms: N_10  and  C_11 
REMARK    6  A    between atoms: C_12  and  O_13 
ROOT
HETATM    1  N   UNL     1       4.350  26.119  52.875  1.00  0.00    -0.343 N 
HETATM    2  C   UNL     1       4.769  26.612  51.658  1.00  0.00     0.320 C 
HETATM    3  N   UNL     1       3.901  27.587  51.206  1.00  0.00    -0.306 N 
HETATM    4  O   UNL     1       5.743  26.174  51.057  1.00  0.00    -0.247 OA
HETATM    5  H   UNL     1       3.888  26.790  53.479  1.00  0.00     0.164 HD
HETATM    6  H   UNL     1       2.936  27.341  51.373  1.00  0.00     0.171 HD
ENDROOT
BRANCH   1   7
HETATM    7  C   UNL     1       5.070  25.055  53.543  1.00  0.00     0.126 C 
BRANCH   7   8
HETATM    8  C   UNL     1       6.189  25.534  54.471  1.00  0.00     0.041 C 
BRANCH   8   9
HETATM    9  C   UNL     1       7.581  25.037  54.094  1.00  0.00     0.152 C 
BRANCH   9  10
HETATM   10  N   UNL     1       7.741  23.607  54.264  1.00  0.00    -0.279 N 
HETATM   11  N   UNL     1       8.037  22.831  53.199  1.00  0.00    -0.176 NA
HETATM   12  C   UNL     1       8.085  21.591  53.713  1.00  0.00     0.074 A 
HETATM   13  C   UNL     1       8.367  20.425  52.841  1.00  0.00     0.074 C 
HETATM   14  C   UNL     1       7.836  21.596  55.107  1.00  0.00     0.077 A 
HETATM   15  C   UNL     1       7.622  22.912  55.431  1.00  0.00     0.138 A 
HETATM   16 CL   UNL     1       7.809  20.260  56.145  1.00  0.00    -0.081 Cl
ENDBRANCH   9  10
ENDBRANCH   8   9
ENDBRANCH   7   8
ENDBRANCH   1   7
BRANCH   3  17
HETATM   17  C   UNL     1       4.181  28.388  50.075  1.00  0.00     0.071 A 
HETATM   18  C   UNL     1       3.680  28.087  48.789  1.00  0.00     0.095 A 
HETATM   19  C   UNL     1       3.971  28.950  47.725  1.00  0.00     0.041 A 
HETATM   20  C   UNL     1       4.766  30.082  47.928  1.00  0.00     0.026 A 
HETATM   21  C   UNL     1       5.293  30.342  49.189  1.00  0.00     0.036 A 
HETATM   22 CL   UNL     1       6.289  31.725  49.428  1.00  0.00    -0.084 Cl
HETATM   23  C   UNL     1       5.019  29.495  50.259  1.00  0.00     0.056 A 
BRANCH  18  24
HETATM   24  O   UNL     1       3.020  26.894  48.645  1.00  0.00    -0.354 OA
HETATM   25  C   UNL     1       3.660  25.879  47.885  1.00  0.00     0.210 C 
ENDBRANCH  18  24
ENDBRANCH   3  17
TORSDOF 6
ENDMDL
MODEL 6
REMARK VINA RESULT:      -7.5      3.742      4.871
REMARK  6 active torsions:
REMARK  status: ('A' for Active; 'I' for Inactive)
REMARK    1  A    between atoms: N_4  and  C_5 
REMARK    2  A    between atoms: C_5  and  C_6 
REMARK    3  A    between atoms: C_6  and  C_7 
REMARK    4  A    between atoms: C_7  and  N_8 
REMARK       I    between atoms: N_8  and  C_9 
REMARK       I    between atoms: C_9  and  N_10 
REMARK    5  A    between atoms: N_10  and  C_11 
REMARK    6  A    between atoms: C_12  and  O_13 
ROOT
HETATM    1  N   UNL     1       5.003  25.668  51.855  1.00  0.00    -0.343 N 
HETATM    2  C   UNL     1       6.211  25.187  52.314  1.00  0.00     0.320 C 
HETATM    3  N   UNL     1       6.019  24.350  53.396  1.00  0.00    -0.306 N 
HETATM    4  O   UNL     1       7.290  25.531  51.846  1.00  0.00    -0.247 OA
HETATM    5  H   UNL     1       4.220  25.030  51.947  1.00  0.00     0.164 HD
HETATM    6  H   UNL     1       5.317  24.706  54.029  1.00  0.00     0.171 HD
ENDROOT
BRANCH   1   7
HETATM    7  C   UNL     1       4.937  26.601  50.750  1.00  0.00     0.126 C 
BRANCH   7   8
HETATM    8  C   UNL     1       4.762  28.064  51.167  1.00  0.00     0.041 C 
BRANCH   8   9
HETATM    9  C   UNL     1       3.933  28.269  52.430  1.00  0.00     0.152 C 
BRANCH   9  10
HETATM   10  N   UNL     1       4.739  28.374  53.630  1.00  0.00    -0.279 N 
HETATM   11  N   UNL     1       6.085  28.417  53.535  1.00  0.00    -0.176 NA
HETATM   12  C   UNL     1       6.492  28.488  54.813  1.00  0.00     0.074 A 
HETATM   13  C   UNL     1       7.937  28.531  55.142  1.00  0.00     0.074 C 
HETATM   14  C   UNL     1       5.395  28.507  55.707  1.00  0.00     0.077 A 
HETATM   15  C   UNL     1       4.279  28.435  54.912  1.00  0.00     0.138 A 
HETATM   16 CL   UNL     1       5.454  28.596  57.396  1.00  0.00    -0.081 Cl
ENDBRANCH   9  10
ENDBRANCH   8   9
ENDBRANCH   7   8
ENDBRANCH   1   7
BRANCH   3  17
HETATM   17  C   UNL     1       7.064  23.577  53.953  1.00  0.00     0.071 A 
HETATM   18  C   UNL     1       7.720  23.938  55.150  1.00  0.00     0.095 A 
HETATM   19  C   UNL     1       8.721  23.101  55.658  1.00  0.00     0.041 A 
HETATM   20  C   UNL     1       9.082  21.935  54.978  1.00  0.00     0.026 A 
HETATM   21  C   UNL     1       8.463  21.615  53.774  1.00  0.00     0.036 A 
HETATM   22 CL   UNL     1       8.927  20.189  52.928  1.00  0.00    -0.084 Cl
HETATM   23  C   UNL     1       7.468  22.436  53.249  1.00  0.00     0.056 A 
BRANCH  18  24
HETATM   24  O   UNL     1       7.401  25.158  55.688  1.00  0.00    -0.354 OA
HETATM   25  C   UNL     1       6.702  25.166  56.925  1.00  0.00     0.210 C 
ENDBRANCH  18  24
ENDBRANCH   3  17
TORSDOF 6
ENDMDL
MODEL 7
REMARK VINA RESULT:      -7.3      5.611      9.304
REMARK  6 active torsions:
REMARK  status: ('A' for Active; 'I' for Inactive)
REMARK    1  A    between atoms: N_4  and  C_5 
REMARK    2  A    between atoms: C_5  and  C_6 
REMARK    3  A    between atoms: C_6  and  C_7 
REMARK    4  A    between atoms: C_7  and  N_8 
REMARK       I    between atoms: N_8  and  C_9 
REMARK       I    between atoms: C_9  and  N_10 
REMARK    5  A    between atoms: N_10  and  C_11 
REMARK    6  A    between atoms: C_12  and  O_13 
ROOT
HETATM    1  N   UNL     1       4.943  25.744  51.637  1.00  0.00    -0.343 N 
HETATM    2  C   UNL     1       6.124  25.248  52.147  1.00  0.00     0.320 C 
HETATM    3  N   UNL     1       5.884  24.495  53.280  1.00  0.00    -0.306 N 
HETATM    4  O   UNL     1       7.222  25.515  51.674  1.00  0.00    -0.247 OA
HETATM    5  H   UNL     1       4.133  25.145  51.759  1.00  0.00     0.164 HD
HETATM    6  H   UNL     1       5.189  24.920  53.876  1.00  0.00     0.171 HD
ENDROOT
BRANCH   1   7
HETATM    7  C   UNL     1       4.929  26.601  50.471  1.00  0.00     0.126 C 
BRANCH   7   8
HETATM    8  C   UNL     1       4.269  25.980  49.237  1.00  0.00     0.041 C 
BRANCH   8   9
HETATM    9  C   UNL     1       4.477  26.762  47.944  1.00  0.00     0.152 C 
BRANCH   9  10
HETATM   10  N   UNL     1       3.267  27.397  47.461  1.00  0.00    -0.279 N 
HETATM   11  N   UNL     1       3.248  28.728  47.239  1.00  0.00    -0.176 NA
HETATM   12  C   UNL     1       1.990  28.963  46.831  1.00  0.00     0.074 A 
HETATM   13  C   UNL     1       1.551  30.341  46.502  1.00  0.00     0.074 C 
HETATM   14  C   UNL     1       1.228  27.772  46.781  1.00  0.00     0.077 A 
HETATM   15  C   UNL     1       2.082  26.779  47.191  1.00  0.00     0.138 A 
HETATM   16 CL   UNL     1      -0.391  27.613  46.318  1.00  0.00    -0.081 Cl
ENDBRANCH   9  10
ENDBRANCH   8   9
ENDBRANCH   7   8
ENDBRANCH   1   7
BRANCH   3  17
HETATM   17  C   UNL     1       6.889  23.720  53.904  1.00  0.00     0.071 A 
HETATM   18  C   UNL     1       7.447  24.067  55.155  1.00  0.00     0.095 A 
HETATM   19  C   UNL     1       8.412  23.229  55.726  1.00  0.00     0.041 A 
HETATM   20  C   UNL     1       8.835  22.077  55.058  1.00  0.00     0.026 A 
HETATM   21  C   UNL     1       8.314  21.772  53.804  1.00  0.00     0.036 A 
HETATM   22 CL   UNL     1       8.855  20.364  52.976  1.00  0.00    -0.084 Cl
HETATM   23  C   UNL     1       7.356  22.594  53.217  1.00  0.00     0.056 A 
BRANCH  18  24
HETATM   24  O   UNL     1       7.076  25.276  55.685  1.00  0.00    -0.354 OA
HETATM   25  C   UNL     1       6.392  25.263  56.930  1.00  0.00     0.210 C 
ENDBRANCH  18  24
ENDBRANCH   3  17
TORSDOF 6
ENDMDL
MODEL 8
REMARK VINA RESULT:      -7.2      2.353      8.669
REMARK  6 active torsions:
REMARK  status: ('A' for Active; 'I' for Inactive)
REMARK    1  A    between atoms: N_4  and  C_5 
REMARK    2  A    between atoms: C_5  and  C_6 
REMARK    3  A    between atoms: C_6  and  C_7 
REMARK    4  A    between atoms: C_7  and  N_8 
REMARK       I    between atoms: N_8  and  C_9 
REMARK       I    between atoms: C_9  and  N_10 
REMARK    5  A    between atoms: N_10  and  C_11 
REMARK    6  A    between atoms: C_12  and  O_13 
ROOT
HETATM    1  N   UNL     1       6.730  28.436  54.270  1.00  0.00    -0.343 N 
HETATM    2  C   UNL     1       6.914  28.553  55.632  1.00  0.00     0.320 C 
HETATM    3  N   UNL     1       7.554  29.739  55.934  1.00  0.00    -0.306 N 
HETATM    4  O   UNL     1       6.601  27.675  56.427  1.00  0.00    -0.247 OA
HETATM    5  H   UNL     1       6.569  29.309  53.779  1.00  0.00     0.164 HD
HETATM    6  H   UNL     1       8.297  29.945  55.281  1.00  0.00     0.171 HD
ENDROOT
BRANCH   1   7
HETATM    7  C   UNL     1       6.115  27.260  53.692  1.00  0.00     0.126 C 
BRANCH   7   8
HETATM    8  C   UNL     1       7.032  26.036  53.622  1.00  0.00     0.041 C 
BRANCH   8   9
HETATM    9  C   UNL     1       6.329  24.737  53.245  1.00  0.00     0.152 C 
BRANCH   9  10
HETATM   10  N   UNL     1       7.002  23.557  53.750  1.00  0.00    -0.279 N 
HETATM   11  N   UNL     1       7.455  22.620  52.890  1.00  0.00    -0.176 NA
HETATM   12  C   UNL     1       7.988  21.684  53.692  1.00  0.00     0.074 A 
HETATM   13  C   UNL     1       8.584  20.453  53.119  1.00  0.00     0.074 C 
HETATM   14  C   UNL     1       7.883  22.047  55.056  1.00  0.00     0.077 A 
HETATM   15  C   UNL     1       7.245  23.262  55.059  1.00  0.00     0.138 A 
HETATM   16 CL   UNL     1       8.428  21.165  56.393  1.00  0.00    -0.081 Cl
ENDBRANCH   9  10
ENDBRANCH   8   9
ENDBRANCH   7   8
ENDBRANCH   1   7
BRANCH   3  17
HETATM   17  C   UNL     1       7.710  30.201  57.261  1.00  0.00     0.071 A 
HETATM   18  C   UNL     1       8.879  29.960  58.016  1.00  0.00     0.095 A 
HETATM   19  C   UNL     1       8.973  30.482  59.312  1.00  0.00     0.041 A 
HETATM   20  C   UNL     1       7.915  31.212  59.860  1.00  0.00     0.026 A 
HETATM   21  C   UNL     1       6.749  31.402  59.125  1.00  0.00     0.036 A 
HETATM   22 CL   UNL     1       5.441  32.283  59.813  1.00  0.00    -0.084 Cl
HETATM   23  C   UNL     1       6.634  30.887  57.836  1.00  0.00     0.056 A 
BRANCH  18  24
HETATM   24  O   UNL     1       9.816  29.128  57.459  1.00  0.00    -0.354 OA
HETATM   25  C   UNL     1      11.039  29.711  57.034  1.00  0.00     0.210 C 
ENDBRANCH  18  24
ENDBRANCH   3  17
TORSDOF 6
ENDMDL
MODEL 9
REMARK VINA RESULT:      -7.2      2.535      3.746
REMARK  6 active torsions:
REMARK  status: ('A' for Active; 'I' for Inactive)
REMARK    1  A    between atoms: N_4  and  C_5 
REMARK    2  A    between atoms: C_5  and  C_6 
REMARK    3  A    between atoms: C_6  and  C_7 
REMARK    4  A    between atoms: C_7  and  N_8 
REMARK       I    between atoms: N_8  and  C_9 
REMARK       I    between atoms: C_9  and  N_10 
REMARK    5  A    between atoms: N_10  and  C_11 
REMARK    6  A    between atoms: C_12  and  O_13 
ROOT
HETATM    1  N   UNL     1       5.194  26.384  53.091  1.00  0.00    -0.343 N 
HETATM    2  C   UNL     1       6.377  25.723  53.346  1.00  0.00     0.320 C 
HETATM    3  N   UNL     1       6.146  24.595  54.109  1.00  0.00    -0.306 N 
HETATM    4  O   UNL     1       7.470  26.144  52.986  1.00  0.00    -0.247 OA
HETATM    5  H   UNL     1       4.378  25.790  52.992  1.00  0.00     0.164 HD
HETATM    6  H   UNL     1       5.467  24.765  54.838  1.00  0.00     0.171 HD
ENDROOT
BRANCH   1   7
HETATM    7  C   UNL     1       5.172  27.623  52.341  1.00  0.00     0.126 C 
BRANCH   7   8
HETATM    8  C   UNL     1       5.425  28.876  53.182  1.00  0.00     0.041 C 
BRANCH   8   9
HETATM    9  C   UNL     1       5.006  28.755  54.644  1.00  0.00     0.152 C 
BRANCH   9  10
HETATM   10  N   UNL     1       6.076  29.063  55.571  1.00  0.00    -0.279 N 
HETATM   11  N   UNL     1       5.849  29.896  56.609  1.00  0.00    -0.176 NA
HETATM   12  C   UNL     1       7.040  29.966  57.225  1.00  0.00     0.074 A 
HETATM   13  C   UNL     1       7.217  30.819  58.426  1.00  0.00     0.074 C 
HETATM   14  C   UNL     1       8.008  29.161  56.580  1.00  0.00     0.077 A 
HETATM   15  C   UNL     1       7.353  28.588  55.519  1.00  0.00     0.138 A 
HETATM   16 CL   UNL     1       9.627  28.953  57.026  1.00  0.00    -0.081 Cl
ENDBRANCH   9  10
ENDBRANCH   8   9
ENDBRANCH   7   8
ENDBRANCH   1   7
BRANCH   3  17
HETATM   17  C   UNL     1       7.150  23.634  54.367  1.00  0.00     0.071 A 
HETATM   18  C   UNL     1       7.993  23.703  55.499  1.00  0.00     0.095 A 
HETATM   19  C   UNL     1       8.940  22.693  55.706  1.00  0.00     0.041 A 
HETATM   20  C   UNL     1       9.066  21.642  54.792  1.00  0.00     0.026 A 
HETATM   21  C   UNL     1       8.263  21.611  53.656  1.00  0.00     0.036 A 
HETATM   22 CL   UNL     1       8.437  20.327  52.524  1.00  0.00    -0.084 Cl
HETATM   23  C   UNL     1       7.318  22.608  53.430  1.00  0.00     0.056 A 
BRANCH  18  24
HETATM   24  O   UNL     1       7.897  24.829  56.276  1.00  0.00    -0.354 OA
HETATM   25  C   UNL     1       8.750  24.918  57.408  1.00  0.00     0.210 C 
ENDBRANCH  18  24
ENDBRANCH   3  17
TORSDOF 6
ENDMDL
MODEL 10
REMARK VINA RESULT:      -7.1      6.020      9.376
REMARK  6 active torsions:
REMARK  status: ('A' for Active; 'I' for Inactive)
REMARK    1  A    between atoms: N_4  and  C_5 
REMARK    2  A    between atoms: C_5  and  C_6 
REMARK    3  A    between atoms: C_6  and  C_7 
REMARK    4  A    between atoms: C_7  and  N_8 
REMARK       I    between atoms: N_8  and  C_9 
REMARK       I    between atoms: C_9  and  N_10 
REMARK    5  A    between atoms: N_10  and  C_11 
REMARK    6  A    between atoms: C_12  and  O_13 
ROOT
HETATM    1  N   UNL     1       4.664  26.524  51.741  1.00  0.00    -0.343 N 
HETATM    2  C   UNL     1       4.374  26.838  50.430  1.00  0.00     0.320 C 
HETATM    3  N   UNL     1       3.323  27.731  50.367  1.00  0.00    -0.306 N 
HETATM    4  O   UNL     1       4.947  26.324  49.477  1.00  0.00    -0.247 OA
HETATM    5  H   UNL     1       4.515  27.274  52.409  1.00  0.00     0.164 HD
HETATM    6  H   UNL     1       2.595  27.505  51.029  1.00  0.00     0.171 HD
ENDROOT
BRANCH   1   7
HETATM    7  C   UNL     1       5.703  25.574  52.075  1.00  0.00     0.126 C 
BRANCH   7   8
HETATM    8  C   UNL     1       6.049  25.511  53.565  1.00  0.00     0.041 C 
BRANCH   8   9
HETATM    9  C   UNL     1       7.488  25.108  53.867  1.00  0.00     0.152 C 
BRANCH   9  10
HETATM   10  N   UNL     1       7.646  23.685  54.090  1.00  0.00    -0.279 N 
HETATM   11  N   UNL     1       7.996  22.877  53.066  1.00  0.00    -0.176 NA
HETATM   12  C   UNL     1       8.025  21.655  53.621  1.00  0.00     0.074 A 
HETATM   13  C   UNL     1       8.352  20.463  52.802  1.00  0.00     0.074 C 
HETATM   14  C   UNL     1       7.710  21.702  55.000  1.00  0.00     0.077 A 
HETATM   15  C   UNL     1       7.474  23.027  55.272  1.00  0.00     0.138 A 
HETATM   16 CL   UNL     1       7.638  20.400  56.079  1.00  0.00    -0.081 Cl
ENDBRANCH   9  10
ENDBRANCH   8   9
ENDBRANCH   7   8
ENDBRANCH   1   7
BRANCH   3  17
HETATM   17  C   UNL     1       2.933  28.361  49.162  1.00  0.00     0.071 A 
HETATM   18  C   UNL     1       3.486  29.588  48.734  1.00  0.00     0.095 A 
HETATM   19  C   UNL     1       3.076  30.131  47.511  1.00  0.00     0.041 A 
HETATM   20  C   UNL     1       2.115  29.479  46.733  1.00  0.00     0.026 A 
HETATM   21  C   UNL     1       1.542  28.295  47.188  1.00  0.00     0.036 A 
HETATM   22 CL   UNL     1       0.343  27.508  46.237  1.00  0.00    -0.084 Cl
HETATM   23  C   UNL     1       1.933  27.741  48.404  1.00  0.00     0.056 A 
BRANCH  18  24
HETATM   24  O   UNL     1       4.324  30.229  49.611  1.00  0.00    -0.354 OA
HETATM   25  C   UNL     1       5.714  30.214  49.318  1.00  0.00     0.210 C 
ENDBRANCH  18  24
ENDBRANCH   3  17
TORSDOF 6
ENDMDL
