MODEL 1
REMARK VINA RESULT:      -9.6      0.000      0.000
REMARK  5 active torsions:
REMARK  status: ('A' for Active; 'I' for Inactive)
REMARK    1  A    between atoms: C_2  and  C_3 
REMARK    2  A    between atoms: C_2  and  C_19 
REMARK       I    between atoms: C_3  and  N_4 
REMARK    3  A    between atoms: N_4  and  C_5 
REMARK    4  A    between atoms: C_8  and  O_9 
REMARK    5  A    between atoms: O_9  and  C_10 
ROOT
HETATM    1  C   UNL     1       6.505  25.697  54.499  1.00  0.00     0.234 C 
HETATM    2  N   UNL     1       7.630  26.478  54.714  1.00  0.00    -0.325 N 
HETATM    3  O   UNL     1       5.478  25.756  55.170  1.00  0.00    -0.272 OA
HETATM    4  H   UNL     1       8.405  26.359  54.072  1.00  0.00     0.169 HD
ENDROOT
BRANCH   2   5
HETATM    5  C   UNL     1       7.838  27.375  55.783  1.00  0.00     0.052 A 
HETATM    6  C   UNL     1       7.655  27.078  57.131  1.00  0.00     0.149 A 
HETATM    7  N   UNL     1       7.918  27.941  58.147  1.00  0.00    -0.235 NA
HETATM    8  C   UNL     1       8.413  29.148  57.810  1.00  0.00     0.169 A 
HETATM    9  C   UNL     1       8.588  29.558  56.498  1.00  0.00     0.060 A 
HETATM   10  C   UNL     1       8.292  28.659  55.473  1.00  0.00     0.035 A 
BRANCH   8  11
HETATM   11  O   UNL     1       8.723  30.085  58.787  1.00  0.00    -0.291 OA
BRANCH  11  12
HETATM   12  C   UNL     1       7.752  30.920  59.277  1.00  0.00     0.095 A 
HETATM   13  C   UNL     1       7.836  31.241  60.626  1.00  0.00     0.153 A 
HETATM   14  N   UNL     1       6.935  32.004  61.294  1.00  0.00    -0.270 NA
HETATM   15  C   UNL     1       5.895  32.471  60.572  1.00  0.00     0.116 A 
HETATM   16  C   UNL     1       5.708  32.195  59.228  1.00  0.00     0.022 A 
HETATM   17  C   UNL     1       6.644  31.393  58.576  1.00  0.00     0.040 A 
ENDBRANCH  11  12
ENDBRANCH   8  11
ENDBRANCH   2   5
BRANCH   1  18
HETATM   18  C   UNL     1       6.652  24.686  53.322  1.00  0.00     0.061 C 
HETATM   19  C   UNL     1       5.276  24.576  52.622  1.00  0.00     0.030 C 
HETATM   20  C   UNL     1       7.634  25.262  52.274  1.00  0.00     0.030 C 
BRANCH  18  21
HETATM   21  C   UNL     1       7.218  23.347  53.828  1.00  0.00    -0.041 A 
HETATM   22  C   UNL     1       7.701  22.404  52.895  1.00  0.00     0.011 A 
HETATM   23  C   UNL     1       8.190  21.162  53.307  1.00  0.00     0.043 A 
HETATM   24  C   UNL     1       8.205  20.849  54.657  1.00  0.00     0.116 A 
HETATM   25  F   UNL     1       8.668  19.657  55.055  1.00  0.00    -0.206 F 
HETATM   26  C   UNL     1       7.741  21.754  55.600  1.00  0.00     0.043 A 
HETATM   27  C   UNL     1       7.247  22.996  55.190  1.00  0.00     0.011 A 
ENDBRANCH  18  21
ENDBRANCH   1  18
TORSDOF 5
ENDMDL
MODEL 2
REMARK VINA RESULT:      -9.6      0.754      1.153
REMARK  5 active torsions:
REMARK  status: ('A' for Active; 'I' for Inactive)
REMARK    1  A    between atoms: C_2  and  C_3 
REMARK    2  A    between atoms: C_2  and  C_19 
REMARK       I    between atoms: C_3  and  N_4 
REMARK    3  A    between atoms: N_4  and  C_5 
REMARK    4  A    between atoms: C_8  and  O_9 
REMARK    5  A    between atoms: O_9  and  C_10 
ROOT
HETATM    1  C   UNL     1       6.340  26.116  54.643  1.00  0.00     0.234 C 
HETATM    2  N   UNL     1       7.572  26.740  54.778  1.00  0.00    -0.325 N 
HETATM    3  O   UNL     1       5.366  26.338  55.356  1.00  0.00    -0.272 OA
HETATM    4  H   UNL     1       8.290  26.494  54.106  1.00  0.00     0.169 HD
ENDROOT
BRANCH   2   5
HETATM    5  C   UNL     1       7.953  27.632  55.802  1.00  0.00     0.052 A 
HETATM    6  C   UNL     1       7.796  27.407  57.167  1.00  0.00     0.149 A 
HETATM    7  N   UNL     1       8.225  28.257  58.137  1.00  0.00    -0.235 NA
HETATM    8  C   UNL     1       8.865  29.371  57.733  1.00  0.00     0.169 A 
HETATM    9  C   UNL     1       9.031  29.711  56.399  1.00  0.00     0.060 A 
HETATM   10  C   UNL     1       8.564  28.830  55.423  1.00  0.00     0.035 A 
BRANCH   8  11
HETATM   11  O   UNL     1       9.349  30.286  58.658  1.00  0.00    -0.291 OA
BRANCH  11  12
HETATM   12  C   UNL     1       8.523  30.783  59.634  1.00  0.00     0.095 A 
HETATM   13  C   UNL     1       7.454  31.558  59.203  1.00  0.00     0.153 A 
HETATM   14  N   UNL     1       6.569  32.176  60.026  1.00  0.00    -0.270 NA
HETATM   15  C   UNL     1       6.766  32.007  61.351  1.00  0.00     0.116 A 
HETATM   16  C   UNL     1       7.810  31.270  61.884  1.00  0.00     0.022 A 
HETATM   17  C   UNL     1       8.711  30.663  61.009  1.00  0.00     0.040 A 
ENDBRANCH  11  12
ENDBRANCH   8  11
ENDBRANCH   2   5
BRANCH   1  18
HETATM   18  C   UNL     1       6.289  25.058  53.499  1.00  0.00     0.061 C 
HETATM   19  C   UNL     1       4.807  24.878  53.091  1.00  0.00     0.030 C 
HETATM   20  C   UNL     1       7.024  25.614  52.257  1.00  0.00     0.030 C 
BRANCH  18  21
HETATM   21  C   UNL     1       6.992  23.759  53.934  1.00  0.00    -0.041 A 
HETATM   22  C   UNL     1       7.566  22.922  52.952  1.00  0.00     0.011 A 
HETATM   23  C   UNL     1       8.182  21.717  53.298  1.00  0.00     0.043 A 
HETATM   24  C   UNL     1       8.234  21.336  54.630  1.00  0.00     0.116 A 
HETATM   25  F   UNL     1       8.819  20.178  54.964  1.00  0.00    -0.206 F 
HETATM   26  C   UNL     1       7.683  22.137  55.619  1.00  0.00     0.043 A 
HETATM   27  C   UNL     1       7.063  23.341  55.275  1.00  0.00     0.011 A 
ENDBRANCH  18  21
ENDBRANCH   1  18
TORSDOF 5
ENDMDL
MODEL 3
REMARK VINA RESULT:      -9.3      1.394      2.023
REMARK  5 active torsions:
REMARK  status: ('A' for Active; 'I' for Inactive)
REMARK    1  A    between atoms: C_2  and  C_3 
REMARK    2  A    between atoms: C_2  and  C_19 
REMARK       I    between atoms: C_3  and  N_4 
REMARK    3  A    between atoms: N_4  and  C_5 
REMARK    4  A    between atoms: C_8  and  O_9 
REMARK    5  A    between atoms: O_9  and  C_10 
ROOT
HETATM    1  C   UNL     1       7.323  26.428  54.179  1.00  0.00     0.234 C 
HETATM    2  N   UNL     1       6.955  26.750  55.477  1.00  0.00    -0.325 N 
HETATM    3  O   UNL     1       8.108  27.080  53.496  1.00  0.00    -0.272 OA
HETATM    4  H   UNL     1       6.323  26.114  55.949  1.00  0.00     0.169 HD
ENDROOT
BRANCH   2   5
HETATM    5  C   UNL     1       7.315  27.915  56.187  1.00  0.00     0.052 A 
HETATM    6  C   UNL     1       6.502  29.031  56.369  1.00  0.00     0.149 A 
HETATM    7  N   UNL     1       6.850  30.118  57.107  1.00  0.00    -0.235 NA
HETATM    8  C   UNL     1       8.052  30.084  57.716  1.00  0.00     0.169 A 
HETATM    9  C   UNL     1       8.952  29.042  57.560  1.00  0.00     0.060 A 
HETATM   10  C   UNL     1       8.578  27.947  56.782  1.00  0.00     0.035 A 
BRANCH   8  11
HETATM   11  O   UNL     1       8.479  31.146  58.501  1.00  0.00    -0.291 OA
BRANCH  11  12
HETATM   12  C   UNL     1       8.239  31.148  59.851  1.00  0.00     0.095 A 
HETATM   13  C   UNL     1       7.103  31.827  60.275  1.00  0.00     0.153 A 
HETATM   14  N   UNL     1       6.737  31.982  61.572  1.00  0.00    -0.270 NA
HETATM   15  C   UNL     1       7.551  31.425  62.493  1.00  0.00     0.116 A 
HETATM   16  C   UNL     1       8.715  30.743  62.178  1.00  0.00     0.022 A 
HETATM   17  C   UNL     1       9.070  30.618  60.835  1.00  0.00     0.040 A 
ENDBRANCH  11  12
ENDBRANCH   8  11
ENDBRANCH   2   5
BRANCH   1  18
HETATM   18  C   UNL     1       6.625  25.150  53.623  1.00  0.00     0.061 C 
HETATM   19  C   UNL     1       5.139  25.200  54.056  1.00  0.00     0.030 C 
HETATM   20  C   UNL     1       6.635  25.195  52.077  1.00  0.00     0.030 C 
BRANCH  18  21
HETATM   21  C   UNL     1       7.376  23.885  54.073  1.00  0.00    -0.041 A 
HETATM   22  C   UNL     1       7.231  23.430  55.402  1.00  0.00     0.011 A 
HETATM   23  C   UNL     1       7.923  22.307  55.862  1.00  0.00     0.043 A 
HETATM   24  C   UNL     1       8.766  21.624  55.000  1.00  0.00     0.116 A 
HETATM   25  F   UNL     1       9.435  20.550  55.441  1.00  0.00    -0.206 F 
HETATM   26  C   UNL     1       8.928  22.042  53.688  1.00  0.00     0.043 A 
HETATM   27  C   UNL     1       8.241  23.168  53.225  1.00  0.00     0.011 A 
ENDBRANCH  18  21
ENDBRANCH   1  18
TORSDOF 5
ENDMDL
MODEL 4
REMARK VINA RESULT:      -9.0      4.173      7.859
REMARK  5 active torsions:
REMARK  status: ('A' for Active; 'I' for Inactive)
REMARK    1  A    between atoms: C_2  and  C_3 
REMARK    2  A    between atoms: C_2  and  C_19 
REMARK       I    between atoms: C_3  and  N_4 
REMARK    3  A    between atoms: N_4  and  C_5 
REMARK    4  A    between atoms: C_8  and  O_9 
REMARK    5  A    between atoms: O_9  and  C_10 
ROOT
HETATM    1  C   UNL     1       6.929  25.913  54.911  1.00  0.00     0.234 C 
HETATM    2  N   UNL     1       5.695  25.755  54.298  1.00  0.00    -0.325 N 
HETATM    3  O   UNL     1       7.786  26.717  54.554  1.00  0.00    -0.272 OA
HETATM    4  H   UNL     1       5.060  25.079  54.706  1.00  0.00     0.169 HD
ENDROOT
BRANCH   2   5
HETATM    5  C   UNL     1       5.258  26.388  53.116  1.00  0.00     0.052 A 
HETATM    6  C   UNL     1       4.516  27.565  53.059  1.00  0.00     0.149 A 
HETATM    7  N   UNL     1       4.156  28.187  51.906  1.00  0.00    -0.235 NA
HETATM    8  C   UNL     1       4.576  27.629  50.753  1.00  0.00     0.169 A 
HETATM    9  C   UNL     1       5.278  26.435  50.700  1.00  0.00     0.060 A 
HETATM   10  C   UNL     1       5.618  25.807  51.898  1.00  0.00     0.035 A 
BRANCH   8  11
HETATM   11  O   UNL     1       4.266  28.207  49.530  1.00  0.00    -0.291 OA
BRANCH  11  12
HETATM   12  C   UNL     1       3.297  27.655  48.731  1.00  0.00     0.095 A 
HETATM   13  C   UNL     1       3.742  26.880  47.667  1.00  0.00     0.153 A 
HETATM   14  N   UNL     1       2.933  26.304  46.743  1.00  0.00    -0.270 NA
HETATM   15  C   UNL     1       1.609  26.513  46.893  1.00  0.00     0.116 A 
HETATM   16  C   UNL     1       1.063  27.283  47.908  1.00  0.00     0.022 A 
HETATM   17  C   UNL     1       1.925  27.876  48.830  1.00  0.00     0.040 A 
ENDBRANCH  11  12
ENDBRANCH   8  11
ENDBRANCH   2   5
BRANCH   1  18
HETATM   18  C   UNL     1       7.168  24.946  56.110  1.00  0.00     0.061 C 
HETATM   19  C   UNL     1       8.226  25.596  57.034  1.00  0.00     0.030 C 
HETATM   20  C   UNL     1       5.869  24.832  56.941  1.00  0.00     0.030 C 
BRANCH  18  21
HETATM   21  C   UNL     1       7.542  23.541  55.604  1.00  0.00    -0.041 A 
HETATM   22  C   UNL     1       8.006  22.576  56.524  1.00  0.00     0.011 A 
HETATM   23  C   UNL     1       8.389  21.301  56.104  1.00  0.00     0.043 A 
HETATM   24  C   UNL     1       8.312  20.974  54.759  1.00  0.00     0.116 A 
HETATM   25  F   UNL     1       8.685  19.753  54.352  1.00  0.00    -0.206 F 
HETATM   26  C   UNL     1       7.857  21.898  53.830  1.00  0.00     0.043 A 
HETATM   27  C   UNL     1       7.477  23.176  54.247  1.00  0.00     0.011 A 
ENDBRANCH  18  21
ENDBRANCH   1  18
TORSDOF 5
ENDMDL
MODEL 5
REMARK VINA RESULT:      -8.5      4.715      7.954
REMARK  5 active torsions:
REMARK  status: ('A' for Active; 'I' for Inactive)
REMARK    1  A    between atoms: C_2  and  C_3 
REMARK    2  A    between atoms: C_2  and  C_19 
REMARK       I    between atoms: C_3  and  N_4 
REMARK    3  A    between atoms: N_4  and  C_5 
REMARK    4  A    between atoms: C_8  and  O_9 
REMARK    5  A    between atoms: O_9  and  C_10 
ROOT
HETATM    1  C   UNL     1       5.494  25.578  53.769  1.00  0.00     0.234 C 
HETATM    2  N   UNL     1       5.742  26.862  53.308  1.00  0.00    -0.325 N 
HETATM    3  O   UNL     1       4.569  24.868  53.385  1.00  0.00    -0.272 OA
HETATM    4  H   UNL     1       6.557  27.337  53.679  1.00  0.00     0.169 HD
ENDROOT
BRANCH   2   5
HETATM    5  C   UNL     1       4.933  27.608  52.426  1.00  0.00     0.052 A 
HETATM    6  C   UNL     1       5.117  27.703  51.048  1.00  0.00     0.149 A 
HETATM    7  N   UNL     1       4.289  28.382  50.211  1.00  0.00    -0.235 NA
HETATM    8  C   UNL     1       3.211  28.972  50.764  1.00  0.00     0.169 A 
HETATM    9  C   UNL     1       2.963  28.976  52.127  1.00  0.00     0.060 A 
HETATM   10  C   UNL     1       3.839  28.288  52.967  1.00  0.00     0.035 A 
BRANCH   8  11
HETATM   11  O   UNL     1       2.306  29.673  49.979  1.00  0.00    -0.291 OA
BRANCH  11  12
HETATM   12  C   UNL     1       1.777  29.096  48.853  1.00  0.00     0.095 A 
HETATM   13  C   UNL     1       1.353  27.778  48.974  1.00  0.00     0.153 A 
HETATM   14  N   UNL     1       0.858  27.031  47.956  1.00  0.00    -0.270 NA
HETATM   15  C   UNL     1       0.782  27.636  46.752  1.00  0.00     0.116 A 
HETATM   16  C   UNL     1       1.195  28.938  46.520  1.00  0.00     0.022 A 
HETATM   17  C   UNL     1       1.715  29.672  47.585  1.00  0.00     0.040 A 
ENDBRANCH  11  12
ENDBRANCH   8  11
ENDBRANCH   2   5
BRANCH   1  18
HETATM   18  C   UNL     1       6.492  25.096  54.865  1.00  0.00     0.061 C 
HETATM   19  C   UNL     1       7.550  26.208  55.059  1.00  0.00     0.030 C 
HETATM   20  C   UNL     1       5.744  24.960  56.212  1.00  0.00     0.030 C 
BRANCH  18  21
HETATM   21  C   UNL     1       7.075  23.720  54.497  1.00  0.00    -0.041 A 
HETATM   22  C   UNL     1       7.313  22.773  55.517  1.00  0.00     0.011 A 
HETATM   23  C   UNL     1       7.873  21.527  55.232  1.00  0.00     0.043 A 
HETATM   24  C   UNL     1       8.202  21.209  53.924  1.00  0.00     0.116 A 
HETATM   25  F   UNL     1       8.745  20.016  53.648  1.00  0.00    -0.206 F 
HETATM   26  C   UNL     1       7.978  22.115  52.897  1.00  0.00     0.043 A 
HETATM   27  C   UNL     1       7.421  23.365  53.180  1.00  0.00     0.011 A 
ENDBRANCH  18  21
ENDBRANCH   1  18
TORSDOF 5
ENDMDL
MODEL 6
REMARK VINA RESULT:      -8.5      5.050      7.998
REMARK  5 active torsions:
REMARK  status: ('A' for Active; 'I' for Inactive)
REMARK    1  A    between atoms: C_2  and  C_3 
REMARK    2  A    between atoms: C_2  and  C_19 
REMARK       I    between atoms: C_3  and  N_4 
REMARK    3  A    between atoms: N_4  and  C_5 
REMARK    4  A    between atoms: C_8  and  O_9 
REMARK    5  A    between atoms: O_9  and  C_10 
ROOT
HETATM    1  C   UNL     1       5.446  25.364  53.273  1.00  0.00     0.234 C 
HETATM    2  N   UNL     1       5.823  26.335  52.357  1.00  0.00    -0.325 N 
HETATM    3  O   UNL     1       4.381  24.753  53.239  1.00  0.00    -0.272 OA
HETATM    4  H   UNL     1       6.742  26.746  52.473  1.00  0.00     0.169 HD
ENDROOT
BRANCH   2   5
HETATM    5  C   UNL     1       5.028  26.866  51.320  1.00  0.00     0.052 A 
HETATM    6  C   UNL     1       4.322  28.065  51.378  1.00  0.00     0.149 A 
HETATM    7  N   UNL     1       3.609  28.584  50.344  1.00  0.00    -0.235 NA
HETATM    8  C   UNL     1       3.620  27.893  49.188  1.00  0.00     0.169 A 
HETATM    9  C   UNL     1       4.251  26.668  49.040  1.00  0.00     0.060 A 
HETATM   10  C   UNL     1       4.960  26.148  50.124  1.00  0.00     0.035 A 
BRANCH   8  11
HETATM   11  O   UNL     1       2.930  28.359  48.076  1.00  0.00    -0.291 OA
BRANCH  11  12
HETATM   12  C   UNL     1       3.125  29.641  47.631  1.00  0.00     0.095 A 
HETATM   13  C   UNL     1       4.357  29.912  47.047  1.00  0.00     0.153 A 
HETATM   14  N   UNL     1       4.747  31.132  46.601  1.00  0.00    -0.270 NA
HETATM   15  C   UNL     1       3.856  32.135  46.747  1.00  0.00     0.116 A 
HETATM   16  C   UNL     1       2.610  31.976  47.332  1.00  0.00     0.022 A 
HETATM   17  C   UNL     1       2.248  30.711  47.795  1.00  0.00     0.040 A 
ENDBRANCH  11  12
ENDBRANCH   8  11
ENDBRANCH   2   5
BRANCH   1  18
HETATM   18  C   UNL     1       6.494  25.114  54.399  1.00  0.00     0.061 C 
HETATM   19  C   UNL     1       7.541  26.252  54.326  1.00  0.00     0.030 C 
HETATM   20  C   UNL     1       5.802  25.240  55.776  1.00  0.00     0.030 C 
BRANCH  18  21
HETATM   21  C   UNL     1       7.084  23.697  54.282  1.00  0.00    -0.041 A 
HETATM   22  C   UNL     1       7.288  22.935  55.453  1.00  0.00     0.011 A 
HETATM   23  C   UNL     1       7.854  21.660  55.398  1.00  0.00     0.043 A 
HETATM   24  C   UNL     1       8.220  21.129  54.171  1.00  0.00     0.116 A 
HETATM   25  F   UNL     1       8.769  19.908  54.115  1.00  0.00    -0.206 F 
HETATM   26  C   UNL     1       8.030  21.850  53.001  1.00  0.00     0.043 A 
HETATM   27  C   UNL     1       7.468  23.129  53.054  1.00  0.00     0.011 A 
ENDBRANCH  18  21
ENDBRANCH   1  18
TORSDOF 5
ENDMDL
MODEL 7
REMARK VINA RESULT:      -8.4      5.967      9.132
REMARK  5 active torsions:
REMARK  status: ('A' for Active; 'I' for Inactive)
REMARK    1  A    between atoms: C_2  and  C_3 
REMARK    2  A    between atoms: C_2  and  C_19 
REMARK       I    between atoms: C_3  and  N_4 
REMARK    3  A    between atoms: N_4  and  C_5 
REMARK    4  A    between atoms: C_8  and  O_9 
REMARK    5  A    between atoms: O_9  and  C_10 
ROOT
HETATM    1  C   UNL     1       4.388  28.366  49.613  1.00  0.00     0.234 C 
HETATM    2  N   UNL     1       5.365  27.406  49.833  1.00  0.00    -0.325 N 
HETATM    3  O   UNL     1       3.644  28.813  50.482  1.00  0.00    -0.272 OA
HETATM    4  H   UNL     1       5.938  27.141  49.041  1.00  0.00     0.169 HD
ENDROOT
BRANCH   2   5
HETATM    5  C   UNL     1       5.597  26.704  51.034  1.00  0.00     0.052 A 
HETATM    6  C   UNL     1       6.415  27.135  52.075  1.00  0.00     0.149 A 
HETATM    7  N   UNL     1       6.577  26.468  53.248  1.00  0.00    -0.235 NA
HETATM    8  C   UNL     1       5.871  25.331  53.406  1.00  0.00     0.169 A 
HETATM    9  C   UNL     1       5.066  24.793  52.415  1.00  0.00     0.060 A 
HETATM   10  C   UNL     1       4.932  25.489  51.213  1.00  0.00     0.035 A 
BRANCH   8  11
HETATM   11  O   UNL     1       5.965  24.595  54.580  1.00  0.00    -0.291 OA
BRANCH  11  12
HETATM   12  C   UNL     1       6.984  23.692  54.748  1.00  0.00     0.095 A 
HETATM   13  C   UNL     1       7.489  23.564  56.036  1.00  0.00     0.153 A 
HETATM   14  N   UNL     1       8.530  22.765  56.379  1.00  0.00    -0.270 NA
HETATM   15  C   UNL     1       9.094  22.055  55.380  1.00  0.00     0.116 A 
HETATM   16  C   UNL     1       8.679  22.124  54.060  1.00  0.00     0.022 A 
HETATM   17  C   UNL     1       7.617  22.969  53.739  1.00  0.00     0.040 A 
ENDBRANCH  11  12
ENDBRANCH   8  11
ENDBRANCH   2   5
BRANCH   1  18
HETATM   18  C   UNL     1       4.282  28.833  48.130  1.00  0.00     0.061 C 
HETATM   19  C   UNL     1       4.638  30.338  48.085  1.00  0.00     0.030 C 
HETATM   20  C   UNL     1       5.353  28.102  47.288  1.00  0.00     0.030 C 
BRANCH  18  21
HETATM   21  C   UNL     1       2.897  28.488  47.553  1.00  0.00    -0.041 A 
HETATM   22  C   UNL     1       2.525  27.133  47.411  1.00  0.00     0.011 A 
HETATM   23  C   UNL     1       1.293  26.775  46.859  1.00  0.00     0.043 A 
HETATM   24  C   UNL     1       0.417  27.766  46.445  1.00  0.00     0.116 A 
HETATM   25  F   UNL     1      -0.763  27.425  45.910  1.00  0.00    -0.206 F 
HETATM   26  C   UNL     1       0.750  29.106  46.574  1.00  0.00     0.043 A 
HETATM   27  C   UNL     1       1.985  29.468  47.122  1.00  0.00     0.011 A 
ENDBRANCH  18  21
ENDBRANCH   1  18
TORSDOF 5
ENDMDL
MODEL 8
REMARK VINA RESULT:      -8.4      5.747     11.840
REMARK  5 active torsions:
REMARK  status: ('A' for Active; 'I' for Inactive)
REMARK    1  A    between atoms: C_2  and  C_3 
REMARK    2  A    between atoms: C_2  and  C_19 
REMARK       I    between atoms: C_3  and  N_4 
REMARK    3  A    between atoms: N_4  and  C_5 
REMARK    4  A    between atoms: C_8  and  O_9 
REMARK    5  A    between atoms: O_9  and  C_10 
ROOT
HETATM    1  C   UNL     1       5.536  32.974  63.162  1.00  0.00     0.234 C 
HETATM    2  N   UNL     1       6.615  33.266  62.340  1.00  0.00    -0.325 N 
HETATM    3  O   UNL     1       5.059  31.852  63.310  1.00  0.00    -0.272 OA
HETATM    4  H   UNL     1       6.937  34.227  62.327  1.00  0.00     0.169 HD
ENDROOT
BRANCH   2   5
HETATM    5  C   UNL     1       7.268  32.376  61.463  1.00  0.00     0.052 A 
HETATM    6  C   UNL     1       7.002  32.245  60.102  1.00  0.00     0.149 A 
HETATM    7  N   UNL     1       7.684  31.420  59.265  1.00  0.00    -0.235 NA
HETATM    8  C   UNL     1       8.699  30.712  59.799  1.00  0.00     0.169 A 
HETATM    9  C   UNL     1       9.014  30.736  61.148  1.00  0.00     0.060 A 
HETATM   10  C   UNL     1       8.285  31.576  61.989  1.00  0.00     0.035 A 
BRANCH   8  11
HETATM   11  O   UNL     1       9.458  29.857  59.012  1.00  0.00    -0.291 OA
BRANCH  11  12
HETATM   12  C   UNL     1       8.941  29.347  57.849  1.00  0.00     0.095 A 
HETATM   13  C   UNL     1       9.566  29.736  56.671  1.00  0.00     0.153 A 
HETATM   14  N   UNL     1       9.159  29.378  55.427  1.00  0.00    -0.270 NA
HETATM   15  C   UNL     1       8.069  28.586  55.360  1.00  0.00     0.116 A 
HETATM   16  C   UNL     1       7.362  28.157  56.471  1.00  0.00     0.022 A 
HETATM   17  C   UNL     1       7.798  28.558  57.733  1.00  0.00     0.040 A 
ENDBRANCH  11  12
ENDBRANCH   8  11
ENDBRANCH   2   5
BRANCH   1  18
HETATM   18  C   UNL     1       4.937  34.217  63.885  1.00  0.00     0.061 C 
HETATM   19  C   UNL     1       5.462  35.480  63.161  1.00  0.00     0.030 C 
HETATM   20  C   UNL     1       3.400  34.217  63.712  1.00  0.00     0.030 C 
BRANCH  18  21
HETATM   21  C   UNL     1       5.252  34.169  65.391  1.00  0.00    -0.041 A 
HETATM   22  C   UNL     1       4.190  34.177  66.321  1.00  0.00     0.011 A 
HETATM   23  C   UNL     1       4.431  34.170  67.696  1.00  0.00     0.043 A 
HETATM   24  C   UNL     1       5.737  34.154  68.160  1.00  0.00     0.116 A 
HETATM   25  F   UNL     1       5.972  34.154  69.479  1.00  0.00    -0.206 F 
HETATM   26  C   UNL     1       6.804  34.143  67.273  1.00  0.00     0.043 A 
HETATM   27  C   UNL     1       6.566  34.154  65.896  1.00  0.00     0.011 A 
ENDBRANCH  18  21
ENDBRANCH   1  18
TORSDOF 5
ENDMDL
MODEL 9
REMARK VINA RESULT:      -8.3      5.734      9.140
REMARK  5 active torsions:
REMARK  status: ('A' for Active; 'I' for Inactive)
REMARK    1  A    between atoms: C_2  and  C_3 
REMARK    2  A    between atoms: C_2  and  C_19 
REMARK       I    between atoms: C_3  and  N_4 
REMARK    3  A    between atoms: N_4  and  C_5 
REMARK    4  A    between atoms: C_8  and  O_9 
REMARK    5  A    between atoms: O_9  and  C_10 
ROOT
HETATM    1  C   UNL     1       4.326  28.008  50.328  1.00  0.00     0.234 C 
HETATM    2  N   UNL     1       4.137  27.637  51.651  1.00  0.00    -0.325 N 
HETATM    3  O   UNL     1       5.222  27.579  49.606  1.00  0.00    -0.272 OA
HETATM    4  H   UNL     1       3.341  28.037  52.133  1.00  0.00     0.169 HD
ENDROOT
BRANCH   2   5
HETATM    5  C   UNL     1       4.984  26.814  52.421  1.00  0.00     0.052 A 
HETATM    6  C   UNL     1       4.688  25.519  52.839  1.00  0.00     0.149 A 
HETATM    7  N   UNL     1       5.544  24.724  53.532  1.00  0.00    -0.235 NA
HETATM    8  C   UNL     1       6.766  25.227  53.799  1.00  0.00     0.169 A 
HETATM    9  C   UNL     1       7.143  26.519  53.467  1.00  0.00     0.060 A 
HETATM   10  C   UNL     1       6.237  27.322  52.773  1.00  0.00     0.035 A 
BRANCH   8  11
HETATM   11  O   UNL     1       7.708  24.476  54.488  1.00  0.00    -0.291 OA
BRANCH  11  12
HETATM   12  C   UNL     1       7.788  23.121  54.292  1.00  0.00     0.095 A 
HETATM   13  C   UNL     1       7.680  22.325  55.426  1.00  0.00     0.153 A 
HETATM   14  N   UNL     1       7.792  20.973  55.432  1.00  0.00    -0.270 NA
HETATM   15  C   UNL     1       8.023  20.387  54.239  1.00  0.00     0.116 A 
HETATM   16  C   UNL     1       8.166  21.089  53.053  1.00  0.00     0.022 A 
HETATM   17  C   UNL     1       8.063  22.480  53.086  1.00  0.00     0.040 A 
ENDBRANCH  11  12
ENDBRANCH   8  11
ENDBRANCH   2   5
BRANCH   1  18
HETATM   18  C   UNL     1       3.300  29.062  49.814  1.00  0.00     0.061 C 
HETATM   19  C   UNL     1       2.468  29.539  51.028  1.00  0.00     0.030 C 
HETATM   20  C   UNL     1       4.062  30.302  49.288  1.00  0.00     0.030 C 
BRANCH  18  21
HETATM   21  C   UNL     1       2.465  28.484  48.657  1.00  0.00    -0.041 A 
HETATM   22  C   UNL     1       1.850  29.364  47.740  1.00  0.00     0.011 A 
HETATM   23  C   UNL     1       1.055  28.884  46.697  1.00  0.00     0.043 A 
HETATM   24  C   UNL     1       0.865  27.518  46.557  1.00  0.00     0.116 A 
HETATM   25  F   UNL     1       0.098  27.055  45.562  1.00  0.00    -0.206 F 
HETATM   26  C   UNL     1       1.457  26.626  47.439  1.00  0.00     0.043 A 
HETATM   27  C   UNL     1       2.251  27.104  48.486  1.00  0.00     0.011 A 
ENDBRANCH  18  21
ENDBRANCH   1  18
TORSDOF 5
ENDMDL
MODEL 10
REMARK VINA RESULT:      -8.2      2.452      2.813
REMARK  5 active torsions:
REMARK  status: ('A' for Active; 'I' for Inactive)
REMARK    1  A    between atoms: C_2  and  C_3 
REMARK    2  A    between atoms: C_2  and  C_19 
REMARK       I    between atoms: C_3  and  N_4 
REMARK    3  A    between atoms: N_4  and  C_5 
REMARK    4  A    between atoms: C_8  and  O_9 
REMARK    5  A    between atoms: O_9  and  C_10 
ROOT
HETATM    1  C   UNL     1       6.670  26.230  53.997  1.00  0.00     0.234 C 
HETATM    2  N   UNL     1       5.596  26.453  54.846  1.00  0.00    -0.325 N 
HETATM    3  O   UNL     1       7.654  26.960  53.913  1.00  0.00    -0.272 OA
HETATM    4  H   UNL     1       4.858  25.760  54.849  1.00  0.00     0.169 HD
ENDROOT
BRANCH   2   5
HETATM    5  C   UNL     1       5.390  27.588  55.658  1.00  0.00     0.052 A 
HETATM    6  C   UNL     1       4.272  28.417  55.617  1.00  0.00     0.149 A 
HETATM    7  N   UNL     1       4.070  29.471  56.450  1.00  0.00    -0.235 NA
HETATM    8  C   UNL     1       5.010  29.698  57.388  1.00  0.00     0.169 A 
HETATM    9  C   UNL     1       6.180  28.961  57.483  1.00  0.00     0.060 A 
HETATM   10  C   UNL     1       6.372  27.896  56.603  1.00  0.00     0.035 A 
BRANCH   8  11
HETATM   11  O   UNL     1       4.875  30.745  58.289  1.00  0.00    -0.291 OA
BRANCH  11  12
HETATM   12  C   UNL     1       4.568  32.005  57.843  1.00  0.00     0.095 A 
HETATM   13  C   UNL     1       3.500  32.638  58.468  1.00  0.00     0.153 A 
HETATM   14  N   UNL     1       3.020  33.859  58.123  1.00  0.00    -0.270 NA
HETATM   15  C   UNL     1       3.642  34.479  57.098  1.00  0.00     0.116 A 
HETATM   16  C   UNL     1       4.703  33.928  56.397  1.00  0.00     0.022 A 
HETATM   17  C   UNL     1       5.160  32.663  56.768  1.00  0.00     0.040 A 
ENDBRANCH  11  12
ENDBRANCH   8  11
ENDBRANCH   2   5
BRANCH   1  18
HETATM   18  C   UNL     1       6.521  24.957  53.111  1.00  0.00     0.061 C 
HETATM   19  C   UNL     1       5.013  24.758  52.824  1.00  0.00     0.030 C 
HETATM   20  C   UNL     1       7.201  25.204  51.744  1.00  0.00     0.030 C 
BRANCH  18  21
HETATM   21  C   UNL     1       7.206  23.751  53.778  1.00  0.00    -0.041 A 
HETATM   22  C   UNL     1       7.899  22.817  52.977  1.00  0.00     0.011 A 
HETATM   23  C   UNL     1       8.504  21.691  53.536  1.00  0.00     0.043 A 
HETATM   24  C   UNL     1       8.427  21.483  54.904  1.00  0.00     0.116 A 
HETATM   25  F   UNL     1       9.002  20.400  55.443  1.00  0.00    -0.206 F 
HETATM   26  C   UNL     1       7.758  22.382  55.721  1.00  0.00     0.043 A 
HETATM   27  C   UNL     1       7.147  23.509  55.163  1.00  0.00     0.011 A 
ENDBRANCH  18  21
ENDBRANCH   1  18
TORSDOF 5
ENDMDL
