MODEL 1
REMARK VINA RESULT:      -9.7      0.000      0.000
REMARK  4 active torsions:
REMARK  status: ('A' for Active; 'I' for Inactive)
REMARK    1  A    between atoms: C_2  and  N_3 
REMARK    2  A    between atoms: C_11  and  C_12 
REMARK    3  A    between atoms: C_12  and  N_13 
REMARK    4  A    between atoms: C_16  and  N_17 
ROOT
HETATM    1  N   UNL     1       6.700  25.831  54.975  1.00  0.00    -0.065 N 
HETATM    2  H   UNL     1       7.511  26.471  55.015  1.00  0.00     0.280 HD
HETATM    3  C   UNL     1       7.148  24.416  55.303  1.00  0.00     0.268 C 
HETATM    4  C   UNL     1       8.237  23.824  54.344  1.00  0.00     0.214 C 
HETATM    5  C   UNL     1       7.655  23.490  52.964  1.00  0.00     0.035 C 
HETATM    6  C   UNL     1       7.586  24.663  51.989  1.00  0.00     0.004 C 
HETATM    7  C   UNL     1       7.190  26.027  52.544  1.00  0.00     0.028 C 
HETATM    8  C   UNL     1       6.088  26.016  53.593  1.00  0.00     0.235 C 
ENDROOT
BRANCH   1   9
HETATM    9  C   UNL     1       5.746  26.392  56.053  1.00  0.00     0.276 C 
BRANCH   9  10
HETATM   10  C   UNL     1       6.270  27.600  56.775  1.00  0.00     0.009 A 
HETATM   11  C   UNL     1       7.420  27.546  57.571  1.00  0.00     0.136 A 
HETATM   12  N   UNL     1       7.956  28.558  58.274  1.00  0.00    -0.216 NA
HETATM   13 CL   UNL     1       8.240  26.052  57.845  1.00  0.00    -0.062 Cl
HETATM   14  C   UNL     1       7.302  29.724  58.115  1.00  0.00     0.159 A 
HETATM   15  N   UNL     1       7.631  30.947  58.650  1.00  0.00    -0.248 N 
HETATM   16  C   UNL     1       6.156  29.933  57.361  1.00  0.00     0.031 A 
HETATM   17  N   UNL     1       6.719  31.905  58.366  1.00  0.00    -0.182 NA
HETATM   18  C   UNL     1       5.858  31.299  57.547  1.00  0.00     0.154 A 
HETATM   19  C   UNL     1       5.618  28.841  56.659  1.00  0.00     0.029 A 
BRANCH  15  20
HETATM   20  C   UNL     1       8.814  31.261  59.449  1.00  0.00     0.104 C 
HETATM   21  C   UNL     1       8.529  32.396  60.429  1.00  0.00     0.034 C 
HETATM   22  C   UNL     1      10.028  31.571  58.572  1.00  0.00     0.034 C 
ENDBRANCH  15  20
ENDBRANCH   9  10
ENDBRANCH   1   9
BRANCH   4  23
HETATM   23  N   UNL     1       8.875  22.542  54.908  1.00  0.00    -0.065 N 
HETATM   24  H   UNL     1       9.890  22.729  54.972  1.00  0.00     0.280 HD
HETATM   25  C   UNL     1       8.772  21.263  54.081  1.00  0.00     0.235 C 
HETATM   26  C   UNL     1       7.945  20.333  54.944  1.00  0.00     0.029 C 
HETATM   27  C   UNL     1       8.405  20.668  56.348  1.00  0.00     0.029 C 
HETATM   28  C   UNL     1       8.485  22.183  56.346  1.00  0.00     0.235 C 
ENDBRANCH   4  23
TORSDOF 4
ENDMDL
MODEL 2
REMARK VINA RESULT:      -9.1      1.739      8.403
REMARK  4 active torsions:
REMARK  status: ('A' for Active; 'I' for Inactive)
REMARK    1  A    between atoms: C_2  and  N_3 
REMARK    2  A    between atoms: C_11  and  C_12 
REMARK    3  A    between atoms: C_12  and  N_13 
REMARK    4  A    between atoms: C_16  and  N_17 
ROOT
HETATM    1  N   UNL     1       7.480  29.006  57.273  1.00  0.00    -0.065 N 
HETATM    2  H   UNL     1       7.118  29.595  56.505  1.00  0.00     0.280 HD
HETATM    3  C   UNL     1       7.646  29.847  58.527  1.00  0.00     0.268 C 
HETATM    4  C   UNL     1       8.626  31.062  58.389  1.00  0.00     0.214 C 
HETATM    5  C   UNL     1      10.089  30.603  58.312  1.00  0.00     0.035 C 
HETATM    6  C   UNL     1      10.566  30.196  56.920  1.00  0.00     0.004 C 
HETATM    7  C   UNL     1       9.599  29.418  56.035  1.00  0.00     0.028 C 
HETATM    8  C   UNL     1       8.758  28.367  56.744  1.00  0.00     0.235 C 
ENDROOT
BRANCH   1   9
HETATM    9  C   UNL     1       6.387  27.929  57.448  1.00  0.00     0.276 C 
BRANCH   9  10
HETATM   10  C   UNL     1       6.698  26.618  56.785  1.00  0.00     0.009 A 
HETATM   11  C   UNL     1       6.275  26.326  55.483  1.00  0.00     0.136 A 
HETATM   12  N   UNL     1       6.480  25.182  54.811  1.00  0.00    -0.216 NA
HETATM   13 CL   UNL     1       5.278  27.430  54.606  1.00  0.00    -0.062 Cl
HETATM   14  C   UNL     1       7.214  24.284  55.496  1.00  0.00     0.159 A 
HETATM   15  N   UNL     1       7.641  23.050  55.066  1.00  0.00    -0.248 N 
HETATM   16  C   UNL     1       7.704  24.429  56.787  1.00  0.00     0.031 A 
HETATM   17  N   UNL     1       8.290  22.357  56.029  1.00  0.00    -0.182 NA
HETATM   18  C   UNL     1       8.369  23.214  57.048  1.00  0.00     0.154 A 
HETATM   19  C   UNL     1       7.448  25.636  57.459  1.00  0.00     0.029 A 
BRANCH  15  20
HETATM   20  C   UNL     1       7.453  22.476  53.736  1.00  0.00     0.104 C 
HETATM   21  C   UNL     1       8.010  21.056  53.666  1.00  0.00     0.034 C 
HETATM   22  C   UNL     1       8.048  23.364  52.642  1.00  0.00     0.034 C 
ENDBRANCH  15  20
ENDBRANCH   9  10
ENDBRANCH   1   9
BRANCH   4  23
HETATM   23  N   UNL     1       8.504  32.046  59.566  1.00  0.00    -0.065 N 
HETATM   24  H   UNL     1       8.461  32.991  59.148  1.00  0.00     0.280 HD
HETATM   25  C   UNL     1       9.656  32.120  60.566  1.00  0.00     0.235 C 
HETATM   26  C   UNL     1       9.042  31.655  61.869  1.00  0.00     0.029 C 
HETATM   27  C   UNL     1       7.638  32.219  61.808  1.00  0.00     0.029 C 
HETATM   28  C   UNL     1       7.207  31.954  60.378  1.00  0.00     0.235 C 
ENDBRANCH   4  23
TORSDOF 4
ENDMDL
MODEL 3
REMARK VINA RESULT:      -8.8      1.651      8.236
REMARK  4 active torsions:
REMARK  status: ('A' for Active; 'I' for Inactive)
REMARK    1  A    between atoms: C_2  and  N_3 
REMARK    2  A    between atoms: C_11  and  C_12 
REMARK    3  A    between atoms: C_12  and  N_13 
REMARK    4  A    between atoms: C_16  and  N_17 
ROOT
HETATM    1  N   UNL     1       7.301  29.051  56.245  1.00  0.00    -0.065 N 
HETATM    2  H   UNL     1       7.141  29.961  55.783  1.00  0.00     0.280 HD
HETATM    3  C   UNL     1       7.195  29.217  57.752  1.00  0.00     0.268 C 
HETATM    4  C   UNL     1       8.213  30.229  58.383  1.00  0.00     0.214 C 
HETATM    5  C   UNL     1       9.641  29.667  58.386  1.00  0.00     0.035 C 
HETATM    6  C   UNL     1      10.416  29.864  57.085  1.00  0.00     0.004 C 
HETATM    7  C   UNL     1       9.658  29.693  55.772  1.00  0.00     0.028 C 
HETATM    8  C   UNL     1       8.650  28.555  55.738  1.00  0.00     0.235 C 
ENDROOT
BRANCH   1   9
HETATM    9  C   UNL     1       6.169  28.160  55.688  1.00  0.00     0.276 C 
BRANCH   9  10
HETATM   10  C   UNL     1       6.629  26.826  55.172  1.00  0.00     0.009 A 
HETATM   11  C   UNL     1       6.767  25.715  56.012  1.00  0.00     0.136 A 
HETATM   12  N   UNL     1       7.190  24.491  55.658  1.00  0.00    -0.216 NA
HETATM   13 CL   UNL     1       6.511  25.852  57.714  1.00  0.00    -0.062 Cl
HETATM   14  C   UNL     1       7.446  24.374  54.340  1.00  0.00     0.159 A 
HETATM   15  N   UNL     1       7.836  23.244  53.661  1.00  0.00    -0.248 N 
HETATM   16  C   UNL     1       7.353  25.379  53.388  1.00  0.00     0.031 A 
HETATM   17  N   UNL     1       8.092  23.482  52.354  1.00  0.00    -0.182 NA
HETATM   18  C   UNL     1       7.750  24.761  52.185  1.00  0.00     0.154 A 
HETATM   19  C   UNL     1       6.925  26.651  53.808  1.00  0.00     0.029 A 
BRANCH  15  20
HETATM   20  C   UNL     1       7.985  21.900  54.214  1.00  0.00     0.104 C 
HETATM   21  C   UNL     1       9.275  21.778  55.021  1.00  0.00     0.034 C 
HETATM   22  C   UNL     1       7.900  20.825  53.130  1.00  0.00     0.034 C 
ENDBRANCH  15  20
ENDBRANCH   9  10
ENDBRANCH   1   9
BRANCH   4  23
HETATM   23  N   UNL     1       7.848  30.593  59.833  1.00  0.00    -0.065 N 
HETATM   24  H   UNL     1       7.210  29.849  60.165  1.00  0.00     0.280 HD
HETATM   25  C   UNL     1       7.084  31.892  60.078  1.00  0.00     0.235 C 
HETATM   26  C   UNL     1       8.038  32.730  60.903  1.00  0.00     0.029 C 
HETATM   27  C   UNL     1       8.722  31.705  61.784  1.00  0.00     0.029 C 
HETATM   28  C   UNL     1       9.003  30.551  60.840  1.00  0.00     0.235 C 
ENDBRANCH   4  23
TORSDOF 4
ENDMDL
MODEL 4
REMARK VINA RESULT:      -8.8      2.007      8.463
REMARK  4 active torsions:
REMARK  status: ('A' for Active; 'I' for Inactive)
REMARK    1  A    between atoms: C_2  and  N_3 
REMARK    2  A    between atoms: C_11  and  C_12 
REMARK    3  A    between atoms: C_12  and  N_13 
REMARK    4  A    between atoms: C_16  and  N_17 
ROOT
HETATM    1  N   UNL     1       6.918  29.801  57.178  1.00  0.00    -0.065 N 
HETATM    2  H   UNL     1       6.573  28.968  57.681  1.00  0.00     0.280 HD
HETATM    3  C   UNL     1       7.781  30.639  58.106  1.00  0.00     0.268 C 
HETATM    4  C   UNL     1       7.059  31.160  59.397  1.00  0.00     0.214 C 
HETATM    5  C   UNL     1       6.051  32.270  59.072  1.00  0.00     0.035 C 
HETATM    6  C   UNL     1       4.674  31.784  58.626  1.00  0.00     0.004 C 
HETATM    7  C   UNL     1       4.611  30.568  57.709  1.00  0.00     0.028 C 
HETATM    8  C   UNL     1       5.682  30.502  56.629  1.00  0.00     0.235 C 
ENDROOT
BRANCH   1   9
HETATM    9  C   UNL     1       7.743  29.204  56.016  1.00  0.00     0.276 C 
BRANCH   9  10
HETATM   10  C   UNL     1       7.764  27.703  55.981  1.00  0.00     0.009 A 
HETATM   11  C   UNL     1       7.238  26.978  54.905  1.00  0.00     0.136 A 
HETATM   12  N   UNL     1       7.187  25.642  54.787  1.00  0.00    -0.216 NA
HETATM   13 CL   UNL     1       6.440  27.782  53.601  1.00  0.00    -0.062 Cl
HETATM   14  C   UNL     1       7.759  24.992  55.819  1.00  0.00     0.159 A 
HETATM   15  N   UNL     1       7.918  23.635  55.967  1.00  0.00    -0.248 N 
HETATM   16  C   UNL     1       8.322  25.568  56.949  1.00  0.00     0.031 A 
HETATM   17  N   UNL     1       8.460  23.299  57.161  1.00  0.00    -0.182 NA
HETATM   18  C   UNL     1       8.747  24.472  57.727  1.00  0.00     0.154 A 
HETATM   19  C   UNL     1       8.335  26.971  57.039  1.00  0.00     0.029 A 
BRANCH  15  20
HETATM   20  C   UNL     1       7.567  22.602  54.995  1.00  0.00     0.104 C 
HETATM   21  C   UNL     1       7.633  21.212  55.621  1.00  0.00     0.034 C 
HETATM   22  C   UNL     1       8.427  22.690  53.734  1.00  0.00     0.034 C 
ENDBRANCH  15  20
ENDBRANCH   9  10
ENDBRANCH   1   9
BRANCH   4  23
HETATM   23  N   UNL     1       8.051  31.713  60.435  1.00  0.00    -0.065 N 
HETATM   24  H   UNL     1       8.677  32.356  59.921  1.00  0.00     0.280 HD
HETATM   25  C   UNL     1       8.993  30.730  61.126  1.00  0.00     0.235 C 
HETATM   26  C   UNL     1       8.590  30.797  62.584  1.00  0.00     0.029 C 
HETATM   27  C   UNL     1       8.235  32.257  62.775  1.00  0.00     0.029 C 
HETATM   28  C   UNL     1       7.443  32.600  61.528  1.00  0.00     0.235 C 
ENDBRANCH   4  23
TORSDOF 4
ENDMDL
MODEL 5
REMARK VINA RESULT:      -8.5      1.852      8.200
REMARK  4 active torsions:
REMARK  status: ('A' for Active; 'I' for Inactive)
REMARK    1  A    between atoms: C_2  and  N_3 
REMARK    2  A    between atoms: C_11  and  C_12 
REMARK    3  A    between atoms: C_12  and  N_13 
REMARK    4  A    between atoms: C_16  and  N_17 
ROOT
HETATM    1  N   UNL     1       5.929  28.711  56.048  1.00  0.00    -0.065 N 
HETATM    2  H   UNL     1       5.497  27.990  56.649  1.00  0.00     0.280 HD
HETATM    3  C   UNL     1       7.164  29.274  56.730  1.00  0.00     0.268 C 
HETATM    4  C   UNL     1       6.907  29.944  58.124  1.00  0.00     0.214 C 
HETATM    5  C   UNL     1       6.179  31.287  57.980  1.00  0.00     0.035 C 
HETATM    6  C   UNL     1       4.659  31.191  57.865  1.00  0.00     0.004 C 
HETATM    7  C   UNL     1       4.079  30.051  57.035  1.00  0.00     0.028 C 
HETATM    8  C   UNL     1       4.830  29.723  55.752  1.00  0.00     0.235 C 
ENDROOT
BRANCH   1   9
HETATM    9  C   UNL     1       6.291  27.937  54.761  1.00  0.00     0.276 C 
BRANCH   9  10
HETATM   10  C   UNL     1       6.672  26.502  54.988  1.00  0.00     0.009 A 
HETATM   11  C   UNL     1       6.207  25.472  54.162  1.00  0.00     0.136 A 
HETATM   12  N   UNL     1       6.468  24.161  54.293  1.00  0.00    -0.216 NA
HETATM   13 CL   UNL     1       5.082  25.792  52.892  1.00  0.00    -0.062 Cl
HETATM   14  C   UNL     1       7.305  23.881  55.310  1.00  0.00     0.159 A 
HETATM   15  N   UNL     1       7.806  22.652  55.667  1.00  0.00    -0.248 N 
HETATM   16  C   UNL     1       7.847  24.790  56.208  1.00  0.00     0.031 A 
HETATM   17  N   UNL     1       8.557  22.699  56.791  1.00  0.00    -0.182 NA
HETATM   18  C   UNL     1       8.619  23.999  57.084  1.00  0.00     0.154 A 
HETATM   19  C   UNL     1       7.530  26.149  56.046  1.00  0.00     0.029 A 
BRANCH  15  20
HETATM   20  C   UNL     1       7.597  21.387  54.967  1.00  0.00     0.104 C 
HETATM   21  C   UNL     1       7.873  20.198  55.884  1.00  0.00     0.034 C 
HETATM   22  C   UNL     1       8.423  21.303  53.681  1.00  0.00     0.034 C 
ENDBRANCH  15  20
ENDBRANCH   9  10
ENDBRANCH   1   9
BRANCH   4  23
HETATM   23  N   UNL     1       8.212  30.197  58.898  1.00  0.00    -0.065 N 
HETATM   24  H   UNL     1       8.590  29.264  59.138  1.00  0.00     0.280 HD
HETATM   25  C   UNL     1       8.126  30.931  60.235  1.00  0.00     0.235 C 
HETATM   26  C   UNL     1       8.899  32.211  60.000  1.00  0.00     0.029 C 
HETATM   27  C   UNL     1      10.026  31.771  59.090  1.00  0.00     0.029 C 
HETATM   28  C   UNL     1       9.345  30.848  58.097  1.00  0.00     0.235 C 
ENDBRANCH   4  23
TORSDOF 4
ENDMDL
MODEL 6
REMARK VINA RESULT:      -8.5      2.806      4.794
REMARK  4 active torsions:
REMARK  status: ('A' for Active; 'I' for Inactive)
REMARK    1  A    between atoms: C_2  and  N_3 
REMARK    2  A    between atoms: C_11  and  C_12 
REMARK    3  A    between atoms: C_12  and  N_13 
REMARK    4  A    between atoms: C_16  and  N_17 
ROOT
HETATM    1  N   UNL     1       7.102  28.188  56.653  1.00  0.00    -0.065 N 
HETATM    2  H   UNL     1       6.370  28.192  57.382  1.00  0.00     0.280 HD
HETATM    3  C   UNL     1       6.479  27.878  55.303  1.00  0.00     0.268 C 
HETATM    4  C   UNL     1       5.743  26.497  55.210  1.00  0.00     0.214 C 
HETATM    5  C   UNL     1       6.735  25.327  55.197  1.00  0.00     0.035 C 
HETATM    6  C   UNL     1       7.207  24.864  56.574  1.00  0.00     0.004 C 
HETATM    7  C   UNL     1       7.480  25.930  57.629  1.00  0.00     0.028 C 
HETATM    8  C   UNL     1       8.158  27.196  57.125  1.00  0.00     0.235 C 
ENDROOT
BRANCH   1   9
HETATM    9  C   UNL     1       7.669  29.624  56.705  1.00  0.00     0.276 C 
BRANCH   9  10
HETATM   10  C   UNL     1       7.646  30.249  58.070  1.00  0.00     0.009 A 
HETATM   11  C   UNL     1       6.641  31.141  58.460  1.00  0.00     0.136 A 
HETATM   12  N   UNL     1       6.542  31.770  59.642  1.00  0.00    -0.216 NA
HETATM   13 CL   UNL     1       5.425  31.650  57.344  1.00  0.00    -0.062 Cl
HETATM   14  C   UNL     1       7.511  31.427  60.513  1.00  0.00     0.159 A 
HETATM   15  N   UNL     1       7.654  31.849  61.813  1.00  0.00    -0.248 N 
HETATM   16  C   UNL     1       8.567  30.560  60.274  1.00  0.00     0.031 A 
HETATM   17  N   UNL     1       8.784  31.383  62.392  1.00  0.00    -0.182 NA
HETATM   18  C   UNL     1       9.305  30.566  61.476  1.00  0.00     0.154 A 
HETATM   19  C   UNL     1       8.642  29.940  59.015  1.00  0.00     0.029 A 
BRANCH  15  20
HETATM   20  C   UNL     1       6.736  32.705  62.560  1.00  0.00     0.104 C 
HETATM   21  C   UNL     1       7.414  33.292  63.796  1.00  0.00     0.034 C 
HETATM   22  C   UNL     1       5.443  31.974  62.926  1.00  0.00     0.034 C 
ENDBRANCH  15  20
ENDBRANCH   9  10
ENDBRANCH   1   9
BRANCH   4  23
HETATM   23  N   UNL     1       4.869  26.386  53.948  1.00  0.00    -0.065 N 
HETATM   24  H   UNL     1       3.895  26.549  54.257  1.00  0.00     0.280 HD
HETATM   25  C   UNL     1       4.822  25.044  53.221  1.00  0.00     0.235 C 
HETATM   26  C   UNL     1       5.426  25.341  51.864  1.00  0.00     0.029 C 
HETATM   27  C   UNL     1       4.930  26.740  51.565  1.00  0.00     0.029 C 
HETATM   28  C   UNL     1       5.095  27.468  52.885  1.00  0.00     0.235 C 
ENDBRANCH   4  23
TORSDOF 4
ENDMDL
MODEL 7
REMARK VINA RESULT:      -8.5      1.806      8.480
REMARK  4 active torsions:
REMARK  status: ('A' for Active; 'I' for Inactive)
REMARK    1  A    between atoms: C_2  and  N_3 
REMARK    2  A    between atoms: C_11  and  C_12 
REMARK    3  A    between atoms: C_12  and  N_13 
REMARK    4  A    between atoms: C_16  and  N_17 
ROOT
HETATM    1  N   UNL     1       6.241  28.737  55.977  1.00  0.00    -0.065 N 
HETATM    2  H   UNL     1       6.287  29.508  55.290  1.00  0.00     0.280 HD
HETATM    3  C   UNL     1       5.685  29.255  57.292  1.00  0.00     0.268 C 
HETATM    4  C   UNL     1       6.516  30.405  57.960  1.00  0.00     0.214 C 
HETATM    5  C   UNL     1       7.837  29.884  58.541  1.00  0.00     0.035 C 
HETATM    6  C   UNL     1       8.986  29.777  57.542  1.00  0.00     0.004 C 
HETATM    7  C   UNL     1       8.663  29.286  56.135  1.00  0.00     0.028 C 
HETATM    8  C   UNL     1       7.648  28.156  56.049  1.00  0.00     0.235 C 
ENDROOT
BRANCH   1   9
HETATM    9  C   UNL     1       5.286  27.721  55.314  1.00  0.00     0.276 C 
BRANCH   9  10
HETATM   10  C   UNL     1       5.936  26.424  54.923  1.00  0.00     0.009 A 
HETATM   11  C   UNL     1       5.914  25.303  55.760  1.00  0.00     0.136 A 
HETATM   12  N   UNL     1       6.482  24.110  55.517  1.00  0.00    -0.216 NA
HETATM   13 CL   UNL     1       5.222  25.388  57.340  1.00  0.00    -0.062 Cl
HETATM   14  C   UNL     1       7.074  24.037  54.310  1.00  0.00     0.159 A 
HETATM   15  N   UNL     1       7.689  22.945  53.745  1.00  0.00    -0.248 N 
HETATM   16  C   UNL     1       7.174  25.057  53.374  1.00  0.00     0.031 A 
HETATM   17  N   UNL     1       8.259  23.225  52.550  1.00  0.00    -0.182 NA
HETATM   18  C   UNL     1       7.902  24.487  52.309  1.00  0.00     0.154 A 
HETATM   19  C   UNL     1       6.583  26.295  53.680  1.00  0.00     0.029 A 
BRANCH  15  20
HETATM   20  C   UNL     1       7.765  21.598  54.306  1.00  0.00     0.104 C 
HETATM   21  C   UNL     1       8.910  21.484  55.309  1.00  0.00     0.034 C 
HETATM   22  C   UNL     1       7.869  20.530  53.216  1.00  0.00     0.034 C 
ENDBRANCH  15  20
ENDBRANCH   9  10
ENDBRANCH   1   9
BRANCH   4  23
HETATM   23  N   UNL     1       5.743  31.099  59.095  1.00  0.00    -0.065 N 
HETATM   24  H   UNL     1       5.505  30.357  59.776  1.00  0.00     0.280 HD
HETATM   25  C   UNL     1       4.406  31.755  58.760  1.00  0.00     0.235 C 
HETATM   26  C   UNL     1       4.639  33.226  59.035  1.00  0.00     0.029 C 
HETATM   27  C   UNL     1       5.552  33.208  60.243  1.00  0.00     0.029 C 
HETATM   28  C   UNL     1       6.545  32.106  59.927  1.00  0.00     0.235 C 
ENDBRANCH   4  23
TORSDOF 4
ENDMDL
MODEL 8
REMARK VINA RESULT:      -8.4      4.315      7.551
REMARK  4 active torsions:
REMARK  status: ('A' for Active; 'I' for Inactive)
REMARK    1  A    between atoms: C_2  and  N_3 
REMARK    2  A    between atoms: C_11  and  C_12 
REMARK    3  A    between atoms: C_12  and  N_13 
REMARK    4  A    between atoms: C_16  and  N_17 
ROOT
HETATM    1  N   UNL     1       6.273  26.370  54.036  1.00  0.00    -0.065 N 
HETATM    2  H   UNL     1       5.384  25.944  53.727  1.00  0.00     0.280 HD
HETATM    3  C   UNL     1       7.369  25.317  54.045  1.00  0.00     0.268 C 
HETATM    4  C   UNL     1       7.105  24.090  54.984  1.00  0.00     0.214 C 
HETATM    5  C   UNL     1       7.241  24.472  56.465  1.00  0.00     0.035 C 
HETATM    6  C   UNL     1       5.991  25.086  57.092  1.00  0.00     0.004 C 
HETATM    7  C   UNL     1       5.175  26.058  56.247  1.00  0.00     0.028 C 
HETATM    8  C   UNL     1       5.982  27.017  55.384  1.00  0.00     0.235 C 
ENDROOT
BRANCH   1   9
HETATM    9  C   UNL     1       6.538  27.461  52.974  1.00  0.00     0.276 C 
BRANCH   9  10
HETATM   10  C   UNL     1       5.531  27.499  51.861  1.00  0.00     0.009 A 
HETATM   11  C   UNL     1       4.533  28.478  51.797  1.00  0.00     0.136 A 
HETATM   12  N   UNL     1       3.575  28.587  50.863  1.00  0.00    -0.216 NA
HETATM   13 CL   UNL     1       4.349  29.640  53.062  1.00  0.00    -0.062 Cl
HETATM   14  C   UNL     1       3.668  27.658  49.892  1.00  0.00     0.159 A 
HETATM   15  N   UNL     1       2.880  27.536  48.772  1.00  0.00    -0.248 N 
HETATM   16  C   UNL     1       4.598  26.630  49.817  1.00  0.00     0.031 A 
HETATM   17  N   UNL     1       3.182  26.443  48.036  1.00  0.00    -0.182 NA
HETATM   18  C   UNL     1       4.252  25.929  48.644  1.00  0.00     0.154 A 
HETATM   19  C   UNL     1       5.570  26.543  50.829  1.00  0.00     0.029 A 
BRANCH  15  20
HETATM   20  C   UNL     1       1.811  28.441  48.354  1.00  0.00     0.104 C 
HETATM   21  C   UNL     1       0.806  27.726  47.455  1.00  0.00     0.034 C 
HETATM   22  C   UNL     1       2.361  29.702  47.686  1.00  0.00     0.034 C 
ENDBRANCH  15  20
ENDBRANCH   9  10
ENDBRANCH   1   9
BRANCH   4  23
HETATM   23  N   UNL     1       8.073  22.926  54.708  1.00  0.00    -0.065 N 
HETATM   24  H   UNL     1       8.993  23.223  55.079  1.00  0.00     0.280 HD
HETATM   25  C   UNL     1       8.348  22.548  53.255  1.00  0.00     0.235 C 
HETATM   26  C   UNL     1       7.809  21.139  53.133  1.00  0.00     0.029 C 
HETATM   27  C   UNL     1       8.136  20.529  54.480  1.00  0.00     0.029 C 
HETATM   28  C   UNL     1       7.783  21.626  55.466  1.00  0.00     0.235 C 
ENDBRANCH   4  23
TORSDOF 4
ENDMDL
MODEL 9
REMARK VINA RESULT:      -8.4      1.350      1.930
REMARK  4 active torsions:
REMARK  status: ('A' for Active; 'I' for Inactive)
REMARK    1  A    between atoms: C_2  and  N_3 
REMARK    2  A    between atoms: C_11  and  C_12 
REMARK    3  A    between atoms: C_12  and  N_13 
REMARK    4  A    between atoms: C_16  and  N_17 
ROOT
HETATM    1  N   UNL     1       5.544  27.357  54.809  1.00  0.00    -0.065 N 
HETATM    2  H   UNL     1       6.196  28.150  54.685  1.00  0.00     0.280 HD
HETATM    3  C   UNL     1       6.295  26.047  54.641  1.00  0.00     0.268 C 
HETATM    4  C   UNL     1       6.986  25.850  53.248  1.00  0.00     0.214 C 
HETATM    5  C   UNL     1       5.959  25.587  52.138  1.00  0.00     0.035 C 
HETATM    6  C   UNL     1       5.329  26.838  51.530  1.00  0.00     0.004 C 
HETATM    7  C   UNL     1       4.985  27.990  52.468  1.00  0.00     0.028 C 
HETATM    8  C   UNL     1       4.410  27.589  53.819  1.00  0.00     0.235 C 
ENDROOT
BRANCH   1   9
HETATM    9  C   UNL     1       5.027  27.538  56.253  1.00  0.00     0.276 C 
BRANCH   9  10
HETATM   10  C   UNL     1       5.813  28.520  57.073  1.00  0.00     0.009 A 
HETATM   11  C   UNL     1       7.010  28.167  57.707  1.00  0.00     0.136 A 
HETATM   12  N   UNL     1       7.772  28.959  58.478  1.00  0.00    -0.216 NA
HETATM   13 CL   UNL     1       7.592  26.542  57.661  1.00  0.00    -0.062 Cl
HETATM   14  C   UNL     1       7.310  30.220  58.571  1.00  0.00     0.159 A 
HETATM   15  N   UNL     1       7.889  31.277  59.233  1.00  0.00    -0.248 N 
HETATM   16  C   UNL     1       6.147  30.718  58.000  1.00  0.00     0.031 A 
HETATM   17  N   UNL     1       7.126  32.393  59.204  1.00  0.00    -0.182 NA
HETATM   18  C   UNL     1       6.100  32.065  58.416  1.00  0.00     0.154 A 
HETATM   19  C   UNL     1       5.369  29.848  57.218  1.00  0.00     0.029 A 
BRANCH  15  20
HETATM   20  C   UNL     1       9.179  31.277  59.919  1.00  0.00     0.104 C 
HETATM   21  C   UNL     1       9.073  31.942  61.289  1.00  0.00     0.034 C 
HETATM   22  C   UNL     1      10.277  31.918  59.069  1.00  0.00     0.034 C 
ENDBRANCH  15  20
ENDBRANCH   9  10
ENDBRANCH   1   9
BRANCH   4  23
HETATM   23  N   UNL     1       7.983  24.678  53.253  1.00  0.00    -0.065 N 
HETATM   24  H   UNL     1       8.862  25.045  52.848  1.00  0.00     0.280 HD
HETATM   25  C   UNL     1       7.654  23.449  52.407  1.00  0.00     0.235 C 
HETATM   26  C   UNL     1       7.496  22.337  53.421  1.00  0.00     0.029 C 
HETATM   27  C   UNL     1       8.541  22.671  54.465  1.00  0.00     0.029 C 
HETATM   28  C   UNL     1       8.409  24.172  54.636  1.00  0.00     0.235 C 
ENDBRANCH   4  23
TORSDOF 4
ENDMDL
MODEL 10
REMARK VINA RESULT:      -8.2      1.960      2.695
REMARK  4 active torsions:
REMARK  status: ('A' for Active; 'I' for Inactive)
REMARK    1  A    between atoms: C_2  and  N_3 
REMARK    2  A    between atoms: C_11  and  C_12 
REMARK    3  A    between atoms: C_12  and  N_13 
REMARK    4  A    between atoms: C_16  and  N_17 
ROOT
HETATM    1  N   UNL     1       5.387  27.269  54.552  1.00  0.00    -0.065 N 
HETATM    2  H   UNL     1       6.310  27.724  54.450  1.00  0.00     0.280 HD
HETATM    3  C   UNL     1       5.574  25.788  54.831  1.00  0.00     0.268 C 
HETATM    4  C   UNL     1       6.348  24.994  53.723  1.00  0.00     0.214 C 
HETATM    5  C   UNL     1       5.496  24.811  52.459  1.00  0.00     0.035 C 
HETATM    6  C   UNL     1       5.521  25.987  51.486  1.00  0.00     0.004 C 
HETATM    7  C   UNL     1       5.514  27.395  52.070  1.00  0.00     0.028 C 
HETATM    8  C   UNL     1       4.615  27.600  53.281  1.00  0.00     0.235 C 
ENDROOT
BRANCH   1   9
HETATM    9  C   UNL     1       4.756  28.002  55.757  1.00  0.00     0.276 C 
BRANCH   9  10
HETATM   10  C   UNL     1       5.723  28.830  56.553  1.00  0.00     0.009 A 
HETATM   11  C   UNL     1       5.300  29.888  57.366  1.00  0.00     0.136 A 
HETATM   12  N   UNL     1       6.081  30.700  58.096  1.00  0.00    -0.216 NA
HETATM   13 CL   UNL     1       3.640  30.362  57.411  1.00  0.00    -0.062 Cl
HETATM   14  C   UNL     1       7.388  30.380  58.036  1.00  0.00     0.159 A 
HETATM   15  N   UNL     1       8.427  30.977  58.709  1.00  0.00    -0.248 N 
HETATM   16  C   UNL     1       7.957  29.363  57.281  1.00  0.00     0.031 A 
HETATM   17  N   UNL     1       9.634  30.472  58.363  1.00  0.00    -0.182 NA
HETATM   18  C   UNL     1       9.339  29.465  57.540  1.00  0.00     0.154 A 
HETATM   19  C   UNL     1       7.102  28.551  56.516  1.00  0.00     0.029 A 
BRANCH  15  20
HETATM   20  C   UNL     1       8.326  32.045  59.701  1.00  0.00     0.104 C 
HETATM   21  C   UNL     1       9.577  32.105  60.574  1.00  0.00     0.034 C 
HETATM   22  C   UNL     1       7.059  31.919  60.548  1.00  0.00     0.034 C 
ENDBRANCH  15  20
ENDBRANCH   9  10
ENDBRANCH   1   9
BRANCH   4  23
HETATM   23  N   UNL     1       6.783  23.598  54.203  1.00  0.00    -0.065 N 
HETATM   24  H   UNL     1       5.918  23.036  54.277  1.00  0.00     0.280 HD
HETATM   25  C   UNL     1       7.436  23.482  55.579  1.00  0.00     0.235 C 
HETATM   26  C   UNL     1       8.837  22.991  55.280  1.00  0.00     0.029 C 
HETATM   27  C   UNL     1       8.630  22.054  54.108  1.00  0.00     0.029 C 
HETATM   28  C   UNL     1       7.649  22.798  53.223  1.00  0.00     0.235 C 
ENDBRANCH   4  23
TORSDOF 4
ENDMDL
