MODEL 1
REMARK VINA RESULT:      -9.3      0.000      0.000
REMARK  3 active torsions:
REMARK  status: ('A' for Active; 'I' for Inactive)
REMARK    1  A    between atoms: C_5  and  C_6 
REMARK    2  A    between atoms: C_6  and  O_7 
REMARK       I    between atoms: N_10  and  C_11 
REMARK       I    between atoms: C_11  and  N_12 
REMARK    3  A    between atoms: N_12  and  C_13 
ROOT
HETATM    1  C   UNL     1       5.897  30.668  56.839  1.00  0.00     0.105 C 
HETATM    2  C   UNL     1       7.177  29.929  56.403  1.00  0.00     0.064 C 
HETATM    3  C   UNL     1       7.367  28.617  57.152  1.00  0.00     0.131 C 
HETATM    4  N   UNL     1       6.186  27.755  57.031  1.00  0.00    -0.334 N 
HETATM    5  C   UNL     1       6.169  26.390  56.735  1.00  0.00     0.322 C 
HETATM    6  N   UNL     1       7.406  25.807  56.581  1.00  0.00    -0.309 N 
HETATM    7  O   UNL     1       5.108  25.778  56.626  1.00  0.00    -0.247 OA
HETATM    8  C   UNL     1       4.915  28.387  57.384  1.00  0.00     0.131 C 
HETATM    9  C   UNL     1       4.709  29.711  56.653  1.00  0.00     0.064 C 
HETATM   10  H   UNL     1       8.178  26.280  57.018  1.00  0.00     0.170 HD
ENDROOT
BRANCH   6  11
HETATM   11  C   UNL     1       7.692  24.512  56.093  1.00  0.00     0.037 A 
HETATM   12  C   UNL     1       7.574  24.147  54.745  1.00  0.00     0.039 A 
HETATM   13  C   UNL     1       7.894  22.849  54.382  1.00  0.00    -0.021 A 
HETATM   14  C   UNL     1       8.337  21.931  55.327  1.00  0.00     0.041 A 
HETATM   15  C   UNL     1       7.850  22.194  53.033  1.00  0.00     0.144 A 
HETATM   16  N   UNL     1       8.595  20.716  54.715  1.00  0.00    -0.326 N 
HETATM   17  C   UNL     1       8.479  22.254  56.657  1.00  0.00     0.032 A 
HETATM   18  C   UNL     1       8.334  20.774  53.351  1.00  0.00     0.226 A 
HETATM   19  H   UNL     1       8.929  19.880  55.171  1.00  0.00     0.169 HD
HETATM   20  O   UNL     1       8.471  19.855  52.562  1.00  0.00    -0.273 OA
HETATM   21  C   UNL     1       8.150  23.561  57.036  1.00  0.00     0.032 A 
ENDBRANCH   6  11
BRANCH   1  22
HETATM   22  C   UNL     1       6.062  31.319  58.215  1.00  0.00     0.068 A 
HETATM   23  N   UNL     1       7.349  31.523  58.609  1.00  0.00    -0.262 NA
HETATM   24  C   UNL     1       7.569  32.167  59.779  1.00  0.00     0.123 A 
HETATM   25  C   UNL     1       6.563  32.640  60.606  1.00  0.00    -0.044 A 
HETATM   26  C   UNL     1       6.872  33.387  61.864  1.00  0.00     0.049 C 
HETATM   27  C   UNL     1       5.251  32.458  60.177  1.00  0.00     0.010 A 
HETATM   28  C   UNL     1       4.996  31.800  58.973  1.00  0.00     0.031 A 
ENDBRANCH   1  22
BRANCH   1  29
HETATM   29  O   UNL     1       5.713  31.755  55.908  1.00  0.00    -0.383 OA
HETATM   30  H   UNL     1       6.564  32.237  55.901  1.00  0.00     0.211 HD
ENDBRANCH   1  29
TORSDOF 3
ENDMDL
MODEL 2
REMARK VINA RESULT:      -9.2      3.041     10.354
REMARK  3 active torsions:
REMARK  status: ('A' for Active; 'I' for Inactive)
REMARK    1  A    between atoms: C_5  and  C_6 
REMARK    2  A    between atoms: C_6  and  O_7 
REMARK       I    between atoms: N_10  and  C_11 
REMARK       I    between atoms: C_11  and  N_12 
REMARK    3  A    between atoms: N_12  and  C_13 
ROOT
HETATM    1  C   UNL     1       7.798  28.621  55.844  1.00  0.00     0.105 C 
HETATM    2  C   UNL     1       6.613  29.222  56.625  1.00  0.00     0.064 C 
HETATM    3  C   UNL     1       6.820  29.143  58.132  1.00  0.00     0.131 C 
HETATM    4  N   UNL     1       8.091  29.760  58.531  1.00  0.00    -0.334 N 
HETATM    5  C   UNL     1       8.297  30.649  59.589  1.00  0.00     0.322 C 
HETATM    6  N   UNL     1       7.182  30.933  60.343  1.00  0.00    -0.309 N 
HETATM    7  O   UNL     1       9.409  31.128  59.805  1.00  0.00    -0.247 OA
HETATM    8  C   UNL     1       9.269  29.280  57.809  1.00  0.00     0.131 C 
HETATM    9  C   UNL     1       9.079  29.338  56.296  1.00  0.00     0.064 C 
HETATM   10  H   UNL     1       6.440  30.255  60.313  1.00  0.00     0.170 HD
ENDROOT
BRANCH   6  11
HETATM   11  C   UNL     1       7.046  31.930  61.335  1.00  0.00     0.037 A 
HETATM   12  C   UNL     1       6.242  33.069  61.186  1.00  0.00     0.039 A 
HETATM   13  C   UNL     1       6.177  33.973  62.233  1.00  0.00    -0.021 A 
HETATM   14  C   UNL     1       6.881  33.754  63.412  1.00  0.00     0.041 A 
HETATM   15  C   UNL     1       5.415  35.261  62.339  1.00  0.00     0.144 A 
HETATM   16  N   UNL     1       6.646  34.792  64.297  1.00  0.00    -0.326 N 
HETATM   17  C   UNL     1       7.670  32.644  63.602  1.00  0.00     0.032 A 
HETATM   18  C   UNL     1       5.787  35.738  63.748  1.00  0.00     0.226 A 
HETATM   19  H   UNL     1       7.032  34.881  65.225  1.00  0.00     0.169 HD
HETATM   20  O   UNL     1       5.406  36.756  64.300  1.00  0.00    -0.273 OA
HETATM   21  C   UNL     1       7.749  31.727  62.546  1.00  0.00     0.032 A 
ENDBRANCH   6  11
BRANCH   1  22
HETATM   22  C   UNL     1       7.795  27.091  55.902  1.00  0.00     0.068 A 
HETATM   23  N   UNL     1       7.413  26.467  54.754  1.00  0.00    -0.262 NA
HETATM   24  C   UNL     1       7.464  25.116  54.709  1.00  0.00     0.123 A 
HETATM   25  C   UNL     1       7.887  24.319  55.761  1.00  0.00    -0.044 A 
HETATM   26  C   UNL     1       7.965  22.831  55.632  1.00  0.00     0.049 C 
HETATM   27  C   UNL     1       8.309  24.968  56.918  1.00  0.00     0.010 A 
HETATM   28  C   UNL     1       8.270  26.361  56.990  1.00  0.00     0.031 A 
ENDBRANCH   1  22
BRANCH   1  29
HETATM   29  O   UNL     1       7.590  28.962  54.457  1.00  0.00    -0.383 OA
HETATM   30  H   UNL     1       7.501  28.108  53.990  1.00  0.00     0.211 HD
ENDBRANCH   1  29
TORSDOF 3
ENDMDL
MODEL 3
REMARK VINA RESULT:      -9.0      2.566      3.613
REMARK  3 active torsions:
REMARK  status: ('A' for Active; 'I' for Inactive)
REMARK    1  A    between atoms: C_5  and  C_6 
REMARK    2  A    between atoms: C_6  and  O_7 
REMARK       I    between atoms: N_10  and  C_11 
REMARK       I    between atoms: C_11  and  N_12 
REMARK    3  A    between atoms: N_12  and  C_13 
ROOT
HETATM    1  C   UNL     1       4.316  30.233  57.367  1.00  0.00     0.105 C 
HETATM    2  C   UNL     1       3.791  28.980  56.640  1.00  0.00     0.064 C 
HETATM    3  C   UNL     1       4.664  28.595  55.453  1.00  0.00     0.131 C 
HETATM    4  N   UNL     1       6.067  28.433  55.851  1.00  0.00    -0.334 N 
HETATM    5  C   UNL     1       6.924  27.386  55.501  1.00  0.00     0.322 C 
HETATM    6  N   UNL     1       6.381  26.439  54.663  1.00  0.00    -0.309 N 
HETATM    7  O   UNL     1       8.077  27.343  55.925  1.00  0.00    -0.247 OA
HETATM    8  C   UNL     1       6.640  29.560  56.587  1.00  0.00     0.131 C 
HETATM    9  C   UNL     1       5.774  29.971  57.774  1.00  0.00     0.064 C 
HETATM   10  H   UNL     1       5.593  26.731  54.112  1.00  0.00     0.170 HD
ENDROOT
BRANCH   6  11
HETATM   11  C   UNL     1       6.934  25.188  54.306  1.00  0.00     0.037 A 
HETATM   12  C   UNL     1       6.983  24.086  55.170  1.00  0.00     0.039 A 
HETATM   13  C   UNL     1       7.539  22.905  54.704  1.00  0.00    -0.021 A 
HETATM   14  C   UNL     1       8.027  22.809  53.406  1.00  0.00     0.041 A 
HETATM   15  C   UNL     1       7.726  21.594  55.407  1.00  0.00     0.144 A 
HETATM   16  N   UNL     1       8.521  21.535  53.186  1.00  0.00    -0.326 N 
HETATM   17  C   UNL     1       7.986  23.864  52.524  1.00  0.00     0.032 A 
HETATM   18  C   UNL     1       8.387  20.739  54.318  1.00  0.00     0.226 A 
HETATM   19  H   UNL     1       8.931  21.196  52.328  1.00  0.00     0.169 HD
HETATM   20  O   UNL     1       8.736  19.575  54.414  1.00  0.00    -0.273 OA
HETATM   21  C   UNL     1       7.433  25.063  52.988  1.00  0.00     0.032 A 
ENDBRANCH   6  11
BRANCH   1  22
HETATM   22  C   UNL     1       4.032  31.509  56.569  1.00  0.00     0.068 A 
HETATM   23  N   UNL     1       2.743  31.660  56.157  1.00  0.00    -0.262 NA
HETATM   24  C   UNL     1       2.402  32.802  55.516  1.00  0.00     0.123 A 
HETATM   25  C   UNL     1       3.284  33.838  55.253  1.00  0.00    -0.044 A 
HETATM   26  C   UNL     1       2.834  35.096  54.582  1.00  0.00     0.049 C 
HETATM   27  C   UNL     1       4.591  33.689  55.710  1.00  0.00     0.010 A 
HETATM   28  C   UNL     1       4.968  32.523  56.377  1.00  0.00     0.031 A 
ENDBRANCH   1  22
BRANCH   1  29
HETATM   29  O   UNL     1       3.552  30.352  58.585  1.00  0.00    -0.383 OA
HETATM   30  H   UNL     1       2.995  29.549  58.622  1.00  0.00     0.211 HD
ENDBRANCH   1  29
TORSDOF 3
ENDMDL
MODEL 4
REMARK VINA RESULT:      -8.8      2.309      9.629
REMARK  3 active torsions:
REMARK  status: ('A' for Active; 'I' for Inactive)
REMARK    1  A    between atoms: C_5  and  C_6 
REMARK    2  A    between atoms: C_6  and  O_7 
REMARK       I    between atoms: N_10  and  C_11 
REMARK       I    between atoms: C_11  and  N_12 
REMARK    3  A    between atoms: N_12  and  C_13 
ROOT
HETATM    1  C   UNL     1       5.844  25.803  54.277  1.00  0.00     0.105 C 
HETATM    2  C   UNL     1       5.542  26.012  55.774  1.00  0.00     0.064 C 
HETATM    3  C   UNL     1       6.749  26.545  56.535  1.00  0.00     0.131 C 
HETATM    4  N   UNL     1       7.272  27.770  55.919  1.00  0.00    -0.334 N 
HETATM    5  C   UNL     1       7.636  28.950  56.574  1.00  0.00     0.322 C 
HETATM    6  N   UNL     1       7.518  28.921  57.944  1.00  0.00    -0.309 N 
HETATM    7  O   UNL     1       8.032  29.928  55.942  1.00  0.00    -0.247 OA
HETATM    8  C   UNL     1       7.547  27.678  54.485  1.00  0.00     0.131 C 
HETATM    9  C   UNL     1       6.354  27.134  53.705  1.00  0.00     0.064 C 
HETATM   10  H   UNL     1       7.529  28.011  58.372  1.00  0.00     0.170 HD
ENDROOT
BRANCH   6  11
HETATM   11  C   UNL     1       7.623  30.009  58.840  1.00  0.00     0.037 A 
HETATM   12  C   UNL     1       6.550  30.848  59.171  1.00  0.00     0.039 A 
HETATM   13  C   UNL     1       6.770  31.877  60.072  1.00  0.00    -0.021 A 
HETATM   14  C   UNL     1       8.021  32.068  60.647  1.00  0.00     0.041 A 
HETATM   15  C   UNL     1       5.819  32.915  60.590  1.00  0.00     0.144 A 
HETATM   16  N   UNL     1       7.979  33.150  61.510  1.00  0.00    -0.326 N 
HETATM   17  C   UNL     1       9.096  31.259  60.357  1.00  0.00     0.032 A 
HETATM   18  C   UNL     1       6.711  33.719  61.543  1.00  0.00     0.226 A 
HETATM   19  H   UNL     1       8.749  33.503  62.058  1.00  0.00     0.169 HD
HETATM   20  O   UNL     1       6.383  34.683  62.213  1.00  0.00    -0.273 OA
HETATM   21  C   UNL     1       8.885  30.221  59.442  1.00  0.00     0.032 A 
ENDBRANCH   6  11
BRANCH   1  22
HETATM   22  C   UNL     1       6.711  24.563  54.043  1.00  0.00     0.068 A 
HETATM   23  N   UNL     1       6.767  23.690  55.087  1.00  0.00    -0.262 NA
HETATM   24  C   UNL     1       7.450  22.534  54.921  1.00  0.00     0.123 A 
HETATM   25  C   UNL     1       8.097  22.174  53.750  1.00  0.00    -0.044 A 
HETATM   26  C   UNL     1       8.795  20.859  53.614  1.00  0.00     0.049 C 
HETATM   27  C   UNL     1       8.004  23.057  52.677  1.00  0.00     0.010 A 
HETATM   28  C   UNL     1       7.303  24.256  52.820  1.00  0.00     0.031 A 
ENDBRANCH   1  22
BRANCH   1  29
HETATM   29  O   UNL     1       4.580  25.525  53.638  1.00  0.00    -0.383 OA
HETATM   30  H   UNL     1       4.198  24.775  54.134  1.00  0.00     0.211 HD
ENDBRANCH   1  29
TORSDOF 3
ENDMDL
MODEL 5
REMARK VINA RESULT:      -8.5      1.582      2.258
REMARK  3 active torsions:
REMARK  status: ('A' for Active; 'I' for Inactive)
REMARK    1  A    between atoms: C_5  and  C_6 
REMARK    2  A    between atoms: C_6  and  O_7 
REMARK       I    between atoms: N_10  and  C_11 
REMARK       I    between atoms: C_11  and  N_12 
REMARK    3  A    between atoms: N_12  and  C_13 
ROOT
HETATM    1  C   UNL     1       5.646  31.915  57.904  1.00  0.00     0.105 C 
HETATM    2  C   UNL     1       6.930  31.212  57.421  1.00  0.00     0.064 C 
HETATM    3  C   UNL     1       6.942  29.731  57.775  1.00  0.00     0.131 C 
HETATM    4  N   UNL     1       5.741  29.051  57.277  1.00  0.00    -0.334 N 
HETATM    5  C   UNL     1       5.687  27.831  56.599  1.00  0.00     0.322 C 
HETATM    6  N   UNL     1       6.898  27.202  56.425  1.00  0.00    -0.309 N 
HETATM    7  O   UNL     1       4.617  27.376  56.199  1.00  0.00    -0.247 OA
HETATM    8  C   UNL     1       4.472  29.675  57.651  1.00  0.00     0.131 C 
HETATM    9  C   UNL     1       4.443  31.164  57.316  1.00  0.00     0.064 C 
HETATM   10  H   UNL     1       7.629  27.460  57.065  1.00  0.00     0.170 HD
ENDROOT
BRANCH   6  11
HETATM   11  C   UNL     1       7.174  26.074  55.619  1.00  0.00     0.037 A 
HETATM   12  C   UNL     1       7.178  24.758  56.101  1.00  0.00     0.039 A 
HETATM   13  C   UNL     1       7.450  23.730  55.213  1.00  0.00    -0.021 A 
HETATM   14  C   UNL     1       7.701  23.993  53.871  1.00  0.00     0.041 A 
HETATM   15  C   UNL     1       7.529  22.252  55.456  1.00  0.00     0.144 A 
HETATM   16  N   UNL     1       7.938  22.806  53.198  1.00  0.00    -0.326 N 
HETATM   17  C   UNL     1       7.694  25.269  53.357  1.00  0.00     0.032 A 
HETATM   18  C   UNL     1       7.857  21.716  54.057  1.00  0.00     0.226 A 
HETATM   19  H   UNL     1       8.144  22.711  52.215  1.00  0.00     0.169 HD
HETATM   20  O   UNL     1       8.020  20.549  53.741  1.00  0.00    -0.273 OA
HETATM   21  C   UNL     1       7.428  26.315  54.248  1.00  0.00     0.032 A 
ENDBRANCH   6  11
BRANCH   1  22
HETATM   22  C   UNL     1       5.661  32.138  59.419  1.00  0.00     0.068 A 
HETATM   23  N   UNL     1       4.435  32.232  60.003  1.00  0.00    -0.262 NA
HETATM   24  C   UNL     1       4.371  32.349  61.349  1.00  0.00     0.123 A 
HETATM   25  C   UNL     1       5.480  32.373  62.180  1.00  0.00    -0.044 A 
HETATM   26  C   UNL     1       5.341  32.456  63.667  1.00  0.00     0.049 C 
HETATM   27  C   UNL     1       6.728  32.240  61.577  1.00  0.00     0.010 A 
HETATM   28  C   UNL     1       6.822  32.115  60.190  1.00  0.00     0.031 A 
ENDBRANCH   1  22
BRANCH   1  29
HETATM   29  O   UNL     1       5.652  33.232  57.313  1.00  0.00    -0.383 OA
HETATM   30  H   UNL     1       6.047  33.818  57.989  1.00  0.00     0.211 HD
ENDBRANCH   1  29
TORSDOF 3
ENDMDL
MODEL 6
REMARK VINA RESULT:      -8.3      6.074      7.266
REMARK  3 active torsions:
REMARK  status: ('A' for Active; 'I' for Inactive)
REMARK    1  A    between atoms: C_5  and  C_6 
REMARK    2  A    between atoms: C_6  and  O_7 
REMARK       I    between atoms: N_10  and  C_11 
REMARK       I    between atoms: C_11  and  N_12 
REMARK    3  A    between atoms: N_12  and  C_13 
ROOT
HETATM    1  C   UNL     1       5.559  28.235  56.251  1.00  0.00     0.105 C 
HETATM    2  C   UNL     1       4.977  29.095  55.112  1.00  0.00     0.064 C 
HETATM    3  C   UNL     1       5.538  28.704  53.752  1.00  0.00     0.131 C 
HETATM    4  N   UNL     1       5.354  27.273  53.488  1.00  0.00    -0.334 N 
HETATM    5  C   UNL     1       4.882  26.690  52.309  1.00  0.00     0.322 C 
HETATM    6  N   UNL     1       4.601  27.572  51.290  1.00  0.00    -0.309 N 
HETATM    7  O   UNL     1       4.738  25.472  52.218  1.00  0.00    -0.247 OA
HETATM    8  C   UNL     1       5.840  26.378  54.538  1.00  0.00     0.131 C 
HETATM    9  C   UNL     1       5.299  26.760  55.913  1.00  0.00     0.064 C 
HETATM   10  H   UNL     1       5.065  28.463  51.332  1.00  0.00     0.170 HD
ENDROOT
BRANCH   6  11
HETATM   11  C   UNL     1       3.936  27.297  50.074  1.00  0.00     0.037 A 
HETATM   12  C   UNL     1       2.711  27.875  49.712  1.00  0.00     0.039 A 
HETATM   13  C   UNL     1       2.159  27.538  48.486  1.00  0.00    -0.021 A 
HETATM   14  C   UNL     1       2.808  26.659  47.627  1.00  0.00     0.041 A 
HETATM   15  C   UNL     1       0.874  27.992  47.859  1.00  0.00     0.144 A 
HETATM   16  N   UNL     1       2.059  26.493  46.474  1.00  0.00    -0.326 N 
HETATM   17  C   UNL     1       4.017  26.081  47.940  1.00  0.00     0.032 A 
HETATM   18  C   UNL     1       0.891  27.245  46.520  1.00  0.00     0.226 A 
HETATM   19  H   UNL     1       2.302  25.911  45.687  1.00  0.00     0.169 HD
HETATM   20  O   UNL     1       0.043  27.294  45.645  1.00  0.00    -0.273 OA
HETATM   21  C   UNL     1       4.579  26.409  49.180  1.00  0.00     0.032 A 
ENDBRANCH   6  11
BRANCH   1  22
HETATM   22  C   UNL     1       7.001  28.634  56.578  1.00  0.00     0.068 A 
HETATM   23  N   UNL     1       7.815  28.804  55.500  1.00  0.00    -0.262 NA
HETATM   24  C   UNL     1       9.080  29.234  55.711  1.00  0.00     0.123 A 
HETATM   25  C   UNL     1       9.605  29.520  56.962  1.00  0.00    -0.044 A 
HETATM   26  C   UNL     1      10.998  30.039  57.125  1.00  0.00     0.049 C 
HETATM   27  C   UNL     1       8.754  29.378  58.054  1.00  0.00     0.010 A 
HETATM   28  C   UNL     1       7.443  28.938  57.865  1.00  0.00     0.031 A 
ENDBRANCH   1  22
BRANCH   1  29
HETATM   29  O   UNL     1       4.788  28.540  57.432  1.00  0.00    -0.383 OA
HETATM   30  H   UNL     1       4.316  27.713  57.655  1.00  0.00     0.211 HD
ENDBRANCH   1  29
TORSDOF 3
ENDMDL
MODEL 7
REMARK VINA RESULT:      -8.3      4.605      5.658
REMARK  3 active torsions:
REMARK  status: ('A' for Active; 'I' for Inactive)
REMARK    1  A    between atoms: C_5  and  C_6 
REMARK    2  A    between atoms: C_6  and  O_7 
REMARK       I    between atoms: N_10  and  C_11 
REMARK       I    between atoms: C_11  and  N_12 
REMARK    3  A    between atoms: N_12  and  C_13 
ROOT
HETATM    1  C   UNL     1       3.643  29.385  51.127  1.00  0.00     0.105 C 
HETATM    2  C   UNL     1       4.595  28.285  50.618  1.00  0.00     0.064 C 
HETATM    3  C   UNL     1       5.771  28.061  51.560  1.00  0.00     0.131 C 
HETATM    4  N   UNL     1       5.316  27.785  52.927  1.00  0.00    -0.334 N 
HETATM    5  C   UNL     1       5.776  26.775  53.777  1.00  0.00     0.322 C 
HETATM    6  N   UNL     1       6.788  25.995  53.267  1.00  0.00    -0.309 N 
HETATM    7  O   UNL     1       5.291  26.621  54.897  1.00  0.00    -0.247 OA
HETATM    8  C   UNL     1       4.373  28.757  53.479  1.00  0.00     0.131 C 
HETATM    9  C   UNL     1       3.192  29.006  52.545  1.00  0.00     0.064 C 
HETATM   10  H   UNL     1       7.334  26.401  52.528  1.00  0.00     0.170 HD
ENDROOT
BRANCH   6  11
HETATM   11  C   UNL     1       7.307  24.797  53.810  1.00  0.00     0.037 A 
HETATM   12  C   UNL     1       7.335  23.579  53.116  1.00  0.00     0.039 A 
HETATM   13  C   UNL     1       7.880  22.473  53.746  1.00  0.00    -0.021 A 
HETATM   14  C   UNL     1       8.400  22.567  55.033  1.00  0.00     0.041 A 
HETATM   15  C   UNL     1       8.028  21.065  53.250  1.00  0.00     0.144 A 
HETATM   16  N   UNL     1       8.886  21.333  55.432  1.00  0.00    -0.326 N 
HETATM   17  C   UNL     1       8.402  23.746  55.741  1.00  0.00     0.032 A 
HETATM   18  C   UNL     1       8.709  20.376  54.439  1.00  0.00     0.226 A 
HETATM   19  H   UNL     1       9.318  21.124  56.319  1.00  0.00     0.169 HD
HETATM   20  O   UNL     1       9.041  19.206  54.514  1.00  0.00    -0.273 OA
HETATM   21  C   UNL     1       7.846  24.868  55.116  1.00  0.00     0.032 A 
ENDBRANCH   6  11
BRANCH   1  22
HETATM   22  C   UNL     1       4.241  30.782  50.932  1.00  0.00     0.068 A 
HETATM   23  N   UNL     1       3.866  31.707  51.858  1.00  0.00    -0.262 NA
HETATM   24  C   UNL     1       4.418  32.940  51.795  1.00  0.00     0.123 A 
HETATM   25  C   UNL     1       5.351  33.326  50.846  1.00  0.00    -0.044 A 
HETATM   26  C   UNL     1       5.961  34.691  50.858  1.00  0.00     0.049 C 
HETATM   27  C   UNL     1       5.755  32.362  49.926  1.00  0.00     0.010 A 
HETATM   28  C   UNL     1       5.203  31.081  49.970  1.00  0.00     0.031 A 
ENDBRANCH   1  22
BRANCH   1  29
HETATM   29  O   UNL     1       2.472  29.337  50.284  1.00  0.00    -0.383 OA
HETATM   30  H   UNL     1       2.420  30.218  49.863  1.00  0.00     0.211 HD
ENDBRANCH   1  29
TORSDOF 3
ENDMDL
MODEL 8
REMARK VINA RESULT:      -8.3      5.801      7.283
REMARK  3 active torsions:
REMARK  status: ('A' for Active; 'I' for Inactive)
REMARK    1  A    between atoms: C_5  and  C_6 
REMARK    2  A    between atoms: C_6  and  O_7 
REMARK       I    between atoms: N_10  and  C_11 
REMARK       I    between atoms: C_11  and  N_12 
REMARK    3  A    between atoms: N_12  and  C_13 
ROOT
HETATM    1  C   UNL     1       3.143  28.871  49.842  1.00  0.00     0.105 C 
HETATM    2  C   UNL     1       3.893  27.571  49.495  1.00  0.00     0.064 C 
HETATM    3  C   UNL     1       5.238  27.475  50.205  1.00  0.00     0.131 C 
HETATM    4  N   UNL     1       5.089  27.635  51.656  1.00  0.00    -0.334 N 
HETATM    5  C   UNL     1       5.672  26.847  52.652  1.00  0.00     0.322 C 
HETATM    6  N   UNL     1       6.499  25.845  52.198  1.00  0.00    -0.309 N 
HETATM    7  O   UNL     1       5.445  27.060  53.841  1.00  0.00    -0.247 OA
HETATM    8  C   UNL     1       4.349  28.824  52.079  1.00  0.00     0.131 C 
HETATM    9  C   UNL     1       3.004  28.946  51.370  1.00  0.00     0.064 C 
HETATM   10  H   UNL     1       6.885  25.969  51.278  1.00  0.00     0.170 HD
ENDROOT
BRANCH   6  11
HETATM   11  C   UNL     1       7.060  24.787  52.949  1.00  0.00     0.037 A 
HETATM   12  C   UNL     1       7.147  23.468  52.485  1.00  0.00     0.039 A 
HETATM   13  C   UNL     1       7.730  22.516  53.307  1.00  0.00    -0.021 A 
HETATM   14  C   UNL     1       8.230  22.861  54.557  1.00  0.00     0.041 A 
HETATM   15  C   UNL     1       7.942  21.050  53.072  1.00  0.00     0.144 A 
HETATM   16  N   UNL     1       8.761  21.742  55.174  1.00  0.00    -0.326 N 
HETATM   17  C   UNL     1       8.174  24.148  55.043  1.00  0.00     0.032 A 
HETATM   18  C   UNL     1       8.636  20.616  54.368  1.00  0.00     0.226 A 
HETATM   19  H   UNL     1       9.191  21.713  56.086  1.00  0.00     0.169 HD
HETATM   20  O   UNL     1       9.015  19.492  54.653  1.00  0.00    -0.273 OA
HETATM   21  C   UNL     1       7.580  25.115  54.224  1.00  0.00     0.032 A 
ENDBRANCH   6  11
BRANCH   1  22
HETATM   22  C   UNL     1       3.757  30.083  49.135  1.00  0.00     0.068 A 
HETATM   23  N   UNL     1       4.155  29.865  47.851  1.00  0.00    -0.262 NA
HETATM   24  C   UNL     1       4.633  30.912  47.140  1.00  0.00     0.123 A 
HETATM   25  C   UNL     1       4.741  32.203  47.634  1.00  0.00    -0.044 A 
HETATM   26  C   UNL     1       5.233  33.328  46.781  1.00  0.00     0.049 C 
HETATM   27  C   UNL     1       4.298  32.422  48.936  1.00  0.00     0.010 A 
HETATM   28  C   UNL     1       3.798  31.360  49.691  1.00  0.00     0.031 A 
ENDBRANCH   1  22
BRANCH   1  29
HETATM   29  O   UNL     1       1.812  28.734  49.302  1.00  0.00    -0.383 OA
HETATM   30  H   UNL     1       1.605  27.780  49.359  1.00  0.00     0.211 HD
ENDBRANCH   1  29
TORSDOF 3
ENDMDL
MODEL 9
REMARK VINA RESULT:      -8.1      6.485      8.003
REMARK  3 active torsions:
REMARK  status: ('A' for Active; 'I' for Inactive)
REMARK    1  A    between atoms: C_5  and  C_6 
REMARK    2  A    between atoms: C_6  and  O_7 
REMARK       I    between atoms: N_10  and  C_11 
REMARK       I    between atoms: C_11  and  N_12 
REMARK    3  A    between atoms: N_12  and  C_13 
ROOT
HETATM    1  C   UNL     1       5.285  27.260  55.852  1.00  0.00     0.105 C 
HETATM    2  C   UNL     1       4.251  28.201  55.202  1.00  0.00     0.064 C 
HETATM    3  C   UNL     1       4.742  28.766  53.876  1.00  0.00     0.131 C 
HETATM    4  N   UNL     1       5.145  27.696  52.955  1.00  0.00    -0.334 N 
HETATM    5  C   UNL     1       4.812  27.583  51.603  1.00  0.00     0.322 C 
HETATM    6  N   UNL     1       4.056  28.615  51.096  1.00  0.00    -0.309 N 
HETATM    7  O   UNL     1       5.184  26.618  50.938  1.00  0.00    -0.247 OA
HETATM    8  C   UNL     1       6.095  26.728  53.502  1.00  0.00     0.131 C 
HETATM    9  C   UNL     1       5.629  26.158  54.839  1.00  0.00     0.064 C 
HETATM   10  H   UNL     1       4.102  29.487  51.594  1.00  0.00     0.170 HD
ENDROOT
BRANCH   6  11
HETATM   11  C   UNL     1       3.415  28.674  49.837  1.00  0.00     0.037 A 
HETATM   12  C   UNL     1       2.258  27.950  49.521  1.00  0.00     0.039 A 
HETATM   13  C   UNL     1       1.711  28.098  48.257  1.00  0.00    -0.021 A 
HETATM   14  C   UNL     1       2.287  28.955  47.325  1.00  0.00     0.041 A 
HETATM   15  C   UNL     1       0.501  27.448  47.655  1.00  0.00     0.144 A 
HETATM   16  N   UNL     1       1.554  28.929  46.150  1.00  0.00    -0.326 N 
HETATM   17  C   UNL     1       3.415  29.692  47.601  1.00  0.00     0.032 A 
HETATM   18  C   UNL     1       0.473  28.061  46.250  1.00  0.00     0.226 A 
HETATM   19  H   UNL     1       1.752  29.459  45.315  1.00  0.00     0.169 HD
HETATM   20  O   UNL     1      -0.342  27.838  45.371  1.00  0.00    -0.273 OA
HETATM   21  C   UNL     1       3.979  29.543  48.874  1.00  0.00     0.032 A 
ENDBRANCH   6  11
BRANCH   1  22
HETATM   22  C   UNL     1       6.454  28.041  56.460  1.00  0.00     0.068 A 
HETATM   23  N   UNL     1       6.115  29.210  57.071  1.00  0.00    -0.262 NA
HETATM   24  C   UNL     1       7.087  29.911  57.699  1.00  0.00     0.123 A 
HETATM   25  C   UNL     1       8.412  29.514  57.767  1.00  0.00    -0.044 A 
HETATM   26  C   UNL     1       9.430  30.310  58.519  1.00  0.00     0.049 C 
HETATM   27  C   UNL     1       8.741  28.299  57.171  1.00  0.00     0.010 A 
HETATM   28  C   UNL     1       7.758  27.554  56.518  1.00  0.00     0.031 A 
ENDBRANCH   1  22
BRANCH   1  29
HETATM   29  O   UNL     1       4.619  26.621  56.962  1.00  0.00    -0.383 OA
HETATM   30  H   UNL     1       5.333  26.347  57.570  1.00  0.00     0.211 HD
ENDBRANCH   1  29
TORSDOF 3
ENDMDL
MODEL 10
REMARK VINA RESULT:      -7.9      3.020      9.826
REMARK  3 active torsions:
REMARK  status: ('A' for Active; 'I' for Inactive)
REMARK    1  A    between atoms: C_5  and  C_6 
REMARK    2  A    between atoms: C_6  and  O_7 
REMARK       I    between atoms: N_10  and  C_11 
REMARK       I    between atoms: C_11  and  N_12 
REMARK    3  A    between atoms: N_12  and  C_13 
ROOT
HETATM    1  C   UNL     1       7.528  25.104  56.723  1.00  0.00     0.105 C 
HETATM    2  C   UNL     1       8.047  26.487  56.280  1.00  0.00     0.064 C 
HETATM    3  C   UNL     1       7.135  27.141  55.251  1.00  0.00     0.131 C 
HETATM    4  N   UNL     1       5.751  27.218  55.734  1.00  0.00    -0.334 N 
HETATM    5  C   UNL     1       4.900  28.325  55.669  1.00  0.00     0.322 C 
HETATM    6  N   UNL     1       5.426  29.434  55.049  1.00  0.00    -0.309 N 
HETATM    7  O   UNL     1       3.766  28.279  56.141  1.00  0.00    -0.247 OA
HETATM    8  C   UNL     1       5.188  25.958  56.216  1.00  0.00     0.131 C 
HETATM    9  C   UNL     1       6.093  25.278  57.240  1.00  0.00     0.064 C 
HETATM   10  H   UNL     1       6.187  29.270  54.412  1.00  0.00     0.170 HD
ENDROOT
BRANCH   6  11
HETATM   11  C   UNL     1       4.882  30.738  55.011  1.00  0.00     0.037 A 
HETATM   12  C   UNL     1       5.146  31.718  55.978  1.00  0.00     0.039 A 
HETATM   13  C   UNL     1       4.564  32.966  55.829  1.00  0.00    -0.021 A 
HETATM   14  C   UNL     1       3.746  33.249  54.740  1.00  0.00     0.041 A 
HETATM   15  C   UNL     1       4.665  34.180  56.704  1.00  0.00     0.144 A 
HETATM   16  N   UNL     1       3.297  34.556  54.819  1.00  0.00    -0.326 N 
HETATM   17  C   UNL     1       3.473  32.318  53.764  1.00  0.00     0.032 A 
HETATM   18  C   UNL     1       3.790  35.190  55.954  1.00  0.00     0.226 A 
HETATM   19  H   UNL     1       2.691  35.017  54.157  1.00  0.00     0.169 HD
HETATM   20  O   UNL     1       3.559  36.342  56.280  1.00  0.00    -0.273 OA
HETATM   21  C   UNL     1       4.050  31.051  53.910  1.00  0.00     0.032 A 
ENDBRANCH   6  11
BRANCH   1  22
HETATM   22  C   UNL     1       7.759  24.043  55.642  1.00  0.00     0.068 A 
HETATM   23  N   UNL     1       7.743  22.755  56.082  1.00  0.00    -0.262 NA
HETATM   24  C   UNL     1       7.860  21.763  55.170  1.00  0.00     0.123 A 
HETATM   25  C   UNL     1       7.991  21.973  53.806  1.00  0.00    -0.044 A 
HETATM   26  C   UNL     1       8.069  20.831  52.843  1.00  0.00     0.049 C 
HETATM   27  C   UNL     1       7.970  23.292  53.363  1.00  0.00     0.010 A 
HETATM   28  C   UNL     1       7.848  24.335  54.283  1.00  0.00     0.031 A 
ENDBRANCH   1  22
BRANCH   1  29
HETATM   29  O   UNL     1       8.338  24.703  57.848  1.00  0.00    -0.383 OA
HETATM   30  H   UNL     1       7.838  23.983  58.283  1.00  0.00     0.211 HD
ENDBRANCH   1  29
TORSDOF 3
ENDMDL
