MODEL 1
REMARK VINA RESULT:      -9.5      0.000      0.000
REMARK  9 active torsions:
REMARK  status: ('A' for Active; 'I' for Inactive)
REMARK    1  A    between atoms: C_2  and  C_3 
REMARK    2  A    between atoms: C_6  and  N_7 
REMARK    3  A    between atoms: N_7  and  S_8 
REMARK    4  A    between atoms: S_8  and  C_9 
REMARK    5  A    between atoms: C_15  and  C_16 
REMARK       I    between atoms: C_16  and  N_17 
REMARK    6  A    between atoms: N_17  and  C_18 
REMARK    7  A    between atoms: C_18  and  C_19 
REMARK    8  A    between atoms: C_19  and  C_20 
REMARK    9  A    between atoms: C_20  and  O_21 
ROOT
HETATM    1  C   UNL     1       6.591  28.171  54.690  1.00  0.00     0.081 A 
HETATM    2  C   UNL     1       6.614  28.801  55.936  1.00  0.00     0.043 A 
HETATM    3  C   UNL     1       7.826  29.304  56.419  1.00  0.00     0.043 A 
HETATM    4  C   UNL     1       9.006  29.200  55.661  1.00  0.00     0.046 A 
HETATM    5  N   UNL     1      10.213  29.675  56.189  1.00  0.00    -0.364 N 
HETATM    6  C   UNL     1      10.243  30.327  57.396  1.00  0.00     0.109 A 
HETATM    7  C   UNL     1       9.191  30.512  58.210  1.00  0.00     0.098 A 
HETATM    8  C   UNL     1       7.881  29.971  57.748  1.00  0.00     0.201 A 
HETATM    9  O   UNL     1       6.864  30.068  58.432  1.00  0.00    -0.286 OA
HETATM   10  C   UNL     1       8.962  28.563  54.418  1.00  0.00     0.032 A 
HETATM   11  C   UNL     1       7.755  28.058  53.923  1.00  0.00     0.027 A 
HETATM   12  H   UNL     1      11.028  29.736  55.588  1.00  0.00     0.165 HD
ENDROOT
BRANCH   1  13
HETATM   13  S   UNL     1       5.038  27.575  54.050  1.00  0.00     0.263 S 
HETATM   14  O   UNL     1       5.173  27.436  52.617  1.00  0.00    -0.200 OA
HETATM   15  O   UNL     1       3.998  28.398  54.631  1.00  0.00    -0.200 OA
BRANCH  13  16
HETATM   16  N   UNL     1       4.899  26.057  54.770  1.00  0.00    -0.281 N 
HETATM   17  H   UNL     1       4.488  26.096  55.701  1.00  0.00     0.179 HD
BRANCH  16  18
HETATM   18  C   UNL     1       5.889  25.069  54.519  1.00  0.00     0.042 A 
HETATM   19  C   UNL     1       6.679  24.597  55.566  1.00  0.00     0.030 A 
HETATM   20  C   UNL     1       7.651  23.623  55.319  1.00  0.00     0.009 A 
HETATM   21  C   UNL     1       7.837  23.114  54.025  1.00  0.00    -0.058 A 
HETATM   22  C   UNL     1       7.039  23.601  52.982  1.00  0.00     0.009 A 
HETATM   23  C   UNL     1       6.075  24.579  53.228  1.00  0.00     0.030 A 
BRANCH  21  24
HETATM   24  C   UNL     1       8.851  22.029  53.765  1.00  0.00     0.034 C 
HETATM   25  C   UNL     1       8.245  20.858  53.008  1.00  0.00     0.010 C 
ENDBRANCH  21  24
ENDBRANCH  16  18
ENDBRANCH  13  16
ENDBRANCH   1  13
BRANCH   7  26
HETATM   26  C   UNL     1       9.402  31.237  59.496  1.00  0.00     0.257 C 
HETATM   27  N   UNL     1       9.009  30.560  60.622  1.00  0.00    -0.357 N 
HETATM   28  H   UNL     1       8.635  29.616  60.512  1.00  0.00     0.162 HD
HETATM   29  O   UNL     1       9.892  32.362  59.527  1.00  0.00    -0.267 OA
BRANCH  27  30
HETATM   30  C   UNL     1       9.147  31.105  61.956  1.00  0.00     0.125 C 
BRANCH  30  31
HETATM   31  C   UNL     1       7.816  31.478  62.599  1.00  0.00     0.046 C 
BRANCH  31  32
HETATM   32  C   UNL     1       7.932  32.659  63.555  1.00  0.00     0.168 C 
BRANCH  32  33
HETATM   33  O   UNL     1       6.619  33.005  63.998  1.00  0.00    -0.396 OA
HETATM   34  C   UNL     1       5.618  32.276  63.300  1.00  0.00     0.201 C 
ENDBRANCH  32  33
ENDBRANCH  31  32
ENDBRANCH  30  31
ENDBRANCH  27  30
ENDBRANCH   7  26
TORSDOF 9
ENDMDL
MODEL 2
REMARK VINA RESULT:      -9.2      1.807      2.503
REMARK  9 active torsions:
REMARK  status: ('A' for Active; 'I' for Inactive)
REMARK    1  A    between atoms: C_2  and  C_3 
REMARK    2  A    between atoms: C_6  and  N_7 
REMARK    3  A    between atoms: N_7  and  S_8 
REMARK    4  A    between atoms: S_8  and  C_9 
REMARK    5  A    between atoms: C_15  and  C_16 
REMARK       I    between atoms: C_16  and  N_17 
REMARK    6  A    between atoms: N_17  and  C_18 
REMARK    7  A    between atoms: C_18  and  C_19 
REMARK    8  A    between atoms: C_19  and  C_20 
REMARK    9  A    between atoms: C_20  and  O_21 
ROOT
HETATM    1  C   UNL     1       5.758  27.672  54.172  1.00  0.00     0.081 A 
HETATM    2  C   UNL     1       6.826  27.879  55.049  1.00  0.00     0.043 A 
HETATM    3  C   UNL     1       6.702  28.848  56.050  1.00  0.00     0.043 A 
HETATM    4  C   UNL     1       5.519  29.595  56.193  1.00  0.00     0.046 A 
HETATM    5  N   UNL     1       5.441  30.587  57.177  1.00  0.00    -0.364 N 
HETATM    6  C   UNL     1       6.467  30.777  58.067  1.00  0.00     0.109 A 
HETATM    7  C   UNL     1       7.641  30.123  58.056  1.00  0.00     0.098 A 
HETATM    8  C   UNL     1       7.828  29.096  56.991  1.00  0.00     0.201 A 
HETATM    9  O   UNL     1       8.875  28.461  56.882  1.00  0.00    -0.286 OA
HETATM   10  C   UNL     1       4.464  29.374  55.303  1.00  0.00     0.032 A 
HETATM   11  C   UNL     1       4.575  28.405  54.299  1.00  0.00     0.027 A 
HETATM   12  H   UNL     1       4.544  31.019  57.376  1.00  0.00     0.165 HD
ENDROOT
BRANCH   1  13
HETATM   13  S   UNL     1       5.894  26.403  52.929  1.00  0.00     0.263 S 
HETATM   14  O   UNL     1       5.835  27.042  51.634  1.00  0.00    -0.200 OA
HETATM   15  O   UNL     1       4.963  25.354  53.292  1.00  0.00    -0.200 OA
BRANCH  13  16
HETATM   16  N   UNL     1       7.437  25.782  53.199  1.00  0.00    -0.281 N 
HETATM   17  H   UNL     1       8.132  26.149  52.550  1.00  0.00     0.179 HD
BRANCH  16  18
HETATM   18  C   UNL     1       7.585  24.441  53.646  1.00  0.00     0.042 A 
HETATM   19  C   UNL     1       7.832  23.426  52.723  1.00  0.00     0.030 A 
HETATM   20  C   UNL     1       7.980  22.107  53.164  1.00  0.00     0.009 A 
HETATM   21  C   UNL     1       7.884  21.797  54.528  1.00  0.00    -0.058 A 
HETATM   22  C   UNL     1       7.631  22.826  55.443  1.00  0.00     0.009 A 
HETATM   23  C   UNL     1       7.475  24.141  55.002  1.00  0.00     0.030 A 
BRANCH  21  24
HETATM   24  C   UNL     1       8.091  20.384  55.011  1.00  0.00     0.034 C 
HETATM   25  C   UNL     1       9.074  20.320  56.170  1.00  0.00     0.010 C 
ENDBRANCH  21  24
ENDBRANCH  16  18
ENDBRANCH  13  16
ENDBRANCH   1  13
BRANCH   7  26
HETATM   26  C   UNL     1       8.656  30.460  59.094  1.00  0.00     0.257 C 
HETATM   27  N   UNL     1       8.252  30.271  60.392  1.00  0.00    -0.357 N 
HETATM   28  H   UNL     1       7.317  29.893  60.556  1.00  0.00     0.162 HD
HETATM   29  O   UNL     1       9.770  30.879  58.793  1.00  0.00    -0.267 OA
BRANCH  27  30
HETATM   30  C   UNL     1       9.108  30.535  61.529  1.00  0.00     0.125 C 
BRANCH  30  31
HETATM   31  C   UNL     1       9.019  31.972  62.032  1.00  0.00     0.046 C 
BRANCH  31  32
HETATM   32  C   UNL     1       7.924  32.166  63.074  1.00  0.00     0.168 C 
BRANCH  32  33
HETATM   33  O   UNL     1       6.674  31.819  62.477  1.00  0.00    -0.396 OA
HETATM   34  C   UNL     1       6.152  32.882  61.691  1.00  0.00     0.201 C 
ENDBRANCH  32  33
ENDBRANCH  31  32
ENDBRANCH  30  31
ENDBRANCH  27  30
ENDBRANCH   7  26
TORSDOF 9
ENDMDL
MODEL 3
REMARK VINA RESULT:      -9.1      2.857     10.126
REMARK  9 active torsions:
REMARK  status: ('A' for Active; 'I' for Inactive)
REMARK    1  A    between atoms: C_2  and  C_3 
REMARK    2  A    between atoms: C_6  and  N_7 
REMARK    3  A    between atoms: N_7  and  S_8 
REMARK    4  A    between atoms: S_8  and  C_9 
REMARK    5  A    between atoms: C_15  and  C_16 
REMARK       I    between atoms: C_16  and  N_17 
REMARK    6  A    between atoms: N_17  and  C_18 
REMARK    7  A    between atoms: C_18  and  C_19 
REMARK    8  A    between atoms: C_19  and  C_20 
REMARK    9  A    between atoms: C_20  and  O_21 
ROOT
HETATM    1  C   UNL     1       6.696  30.274  58.272  1.00  0.00     0.081 A 
HETATM    2  C   UNL     1       7.387  29.101  57.958  1.00  0.00     0.043 A 
HETATM    3  C   UNL     1       6.756  28.133  57.170  1.00  0.00     0.043 A 
HETATM    4  C   UNL     1       5.454  28.335  56.680  1.00  0.00     0.046 A 
HETATM    5  N   UNL     1       4.832  27.330  55.929  1.00  0.00    -0.364 N 
HETATM    6  C   UNL     1       5.512  26.189  55.584  1.00  0.00     0.109 A 
HETATM    7  C   UNL     1       6.761  25.878  55.967  1.00  0.00     0.098 A 
HETATM    8  C   UNL     1       7.466  26.870  56.829  1.00  0.00     0.201 A 
HETATM    9  O   UNL     1       8.603  26.668  57.251  1.00  0.00    -0.286 OA
HETATM   10  C   UNL     1       4.779  29.513  57.009  1.00  0.00     0.032 A 
HETATM   11  C   UNL     1       5.400  30.491  57.794  1.00  0.00     0.027 A 
HETATM   12  H   UNL     1       3.959  27.533  55.454  1.00  0.00     0.165 HD
ENDROOT
BRANCH   1  13
HETATM   13  S   UNL     1       7.516  31.530  59.233  1.00  0.00     0.263 S 
HETATM   14  O   UNL     1       6.642  32.679  59.299  1.00  0.00    -0.200 OA
HETATM   15  O   UNL     1       8.866  31.641  58.720  1.00  0.00    -0.200 OA
BRANCH  13  16
HETATM   16  N   UNL     1       7.644  30.811  60.752  1.00  0.00    -0.281 N 
HETATM   17  H   UNL     1       7.391  29.824  60.746  1.00  0.00     0.179 HD
BRANCH  16  18
HETATM   18  C   UNL     1       7.342  31.569  61.915  1.00  0.00     0.042 A 
HETATM   19  C   UNL     1       6.019  31.701  62.333  1.00  0.00     0.030 A 
HETATM   20  C   UNL     1       5.724  32.445  63.479  1.00  0.00     0.009 A 
HETATM   21  C   UNL     1       6.748  33.060  64.213  1.00  0.00    -0.058 A 
HETATM   22  C   UNL     1       8.072  32.924  63.778  1.00  0.00     0.009 A 
HETATM   23  C   UNL     1       8.366  32.187  62.630  1.00  0.00     0.030 A 
BRANCH  21  24
HETATM   24  C   UNL     1       6.437  33.823  65.476  1.00  0.00     0.034 C 
HETATM   25  C   UNL     1       4.944  33.848  65.768  1.00  0.00     0.010 C 
ENDBRANCH  21  24
ENDBRANCH  16  18
ENDBRANCH  13  16
ENDBRANCH   1  13
BRANCH   7  26
HETATM   26  C   UNL     1       7.349  24.587  55.508  1.00  0.00     0.257 C 
HETATM   27  N   UNL     1       8.293  24.043  56.341  1.00  0.00    -0.357 N 
HETATM   28  H   UNL     1       8.505  24.531  57.213  1.00  0.00     0.162 HD
HETATM   29  O   UNL     1       7.002  24.061  54.454  1.00  0.00    -0.267 OA
BRANCH  27  30
HETATM   30  C   UNL     1       8.962  22.790  56.061  1.00  0.00     0.125 C 
BRANCH  30  31
HETATM   31  C   UNL     1       8.128  21.565  56.422  1.00  0.00     0.046 C 
BRANCH  31  32
HETATM   32  C   UNL     1       8.341  20.402  55.461  1.00  0.00     0.168 C 
BRANCH  32  33
HETATM   33  O   UNL     1       7.645  20.691  54.248  1.00  0.00    -0.396 OA
HETATM   34  C   UNL     1       8.479  20.522  53.110  1.00  0.00     0.201 C 
ENDBRANCH  32  33
ENDBRANCH  31  32
ENDBRANCH  30  31
ENDBRANCH  27  30
ENDBRANCH   7  26
TORSDOF 9
ENDMDL
MODEL 4
REMARK VINA RESULT:      -8.7      2.280      3.449
REMARK  9 active torsions:
REMARK  status: ('A' for Active; 'I' for Inactive)
REMARK    1  A    between atoms: C_2  and  C_3 
REMARK    2  A    between atoms: C_6  and  N_7 
REMARK    3  A    between atoms: N_7  and  S_8 
REMARK    4  A    between atoms: S_8  and  C_9 
REMARK    5  A    between atoms: C_15  and  C_16 
REMARK       I    between atoms: C_16  and  N_17 
REMARK    6  A    between atoms: N_17  and  C_18 
REMARK    7  A    between atoms: C_18  and  C_19 
REMARK    8  A    between atoms: C_19  and  C_20 
REMARK    9  A    between atoms: C_20  and  O_21 
ROOT
HETATM    1  C   UNL     1       5.553  28.936  54.537  1.00  0.00     0.081 A 
HETATM    2  C   UNL     1       6.132  29.343  55.742  1.00  0.00     0.043 A 
HETATM    3  C   UNL     1       5.480  30.308  56.516  1.00  0.00     0.043 A 
HETATM    4  C   UNL     1       4.250  30.853  56.108  1.00  0.00     0.046 A 
HETATM    5  N   UNL     1       3.641  31.847  56.882  1.00  0.00    -0.364 N 
HETATM    6  C   UNL     1       4.181  32.230  58.084  1.00  0.00     0.109 A 
HETATM    7  C   UNL     1       5.336  31.779  58.600  1.00  0.00     0.098 A 
HETATM    8  C   UNL     1       6.080  30.766  57.798  1.00  0.00     0.201 A 
HETATM    9  O   UNL     1       7.159  30.309  58.173  1.00  0.00    -0.286 OA
HETATM   10  C   UNL     1       3.689  30.434  54.898  1.00  0.00     0.032 A 
HETATM   11  C   UNL     1       4.330  29.468  54.116  1.00  0.00     0.027 A 
HETATM   12  H   UNL     1       2.690  32.131  56.669  1.00  0.00     0.165 HD
ENDROOT
BRANCH   1  13
HETATM   13  S   UNL     1       6.357  27.671  53.575  1.00  0.00     0.263 S 
HETATM   14  O   UNL     1       7.763  27.686  53.907  1.00  0.00    -0.200 OA
HETATM   15  O   UNL     1       5.907  27.830  52.207  1.00  0.00    -0.200 OA
BRANCH  13  16
HETATM   16  N   UNL     1       5.640  26.257  54.148  1.00  0.00    -0.281 N 
HETATM   17  H   UNL     1       5.014  26.421  54.935  1.00  0.00     0.179 HD
BRANCH  16  18
HETATM   18  C   UNL     1       6.371  25.039  54.121  1.00  0.00     0.042 A 
HETATM   19  C   UNL     1       6.798  24.513  52.903  1.00  0.00     0.030 A 
HETATM   20  C   UNL     1       7.520  23.316  52.878  1.00  0.00     0.009 A 
HETATM   21  C   UNL     1       7.822  22.641  54.070  1.00  0.00    -0.058 A 
HETATM   22  C   UNL     1       7.383  23.179  55.286  1.00  0.00     0.009 A 
HETATM   23  C   UNL     1       6.654  24.369  55.309  1.00  0.00     0.030 A 
BRANCH  21  24
HETATM   24  C   UNL     1       8.642  21.376  54.049  1.00  0.00     0.034 C 
HETATM   25  C   UNL     1       8.315  20.509  52.842  1.00  0.00     0.010 C 
ENDBRANCH  21  24
ENDBRANCH  16  18
ENDBRANCH  13  16
ENDBRANCH   1  13
BRANCH   7  26
HETATM   26  C   UNL     1       5.785  32.310  59.919  1.00  0.00     0.257 C 
HETATM   27  N   UNL     1       6.680  31.521  60.595  1.00  0.00    -0.357 N 
HETATM   28  H   UNL     1       6.995  30.658  60.149  1.00  0.00     0.162 HD
HETATM   29  O   UNL     1       5.370  33.380  60.357  1.00  0.00    -0.267 OA
BRANCH  27  30
HETATM   30  C   UNL     1       7.231  31.882  61.884  1.00  0.00     0.125 C 
BRANCH  30  31
HETATM   31  C   UNL     1       8.756  31.905  61.906  1.00  0.00     0.046 C 
BRANCH  31  32
HETATM   32  C   UNL     1       9.374  31.212  60.698  1.00  0.00     0.168 C 
BRANCH  32  33
HETATM   33  O   UNL     1       9.624  32.200  59.697  1.00  0.00    -0.396 OA
HETATM   34  C   UNL     1      10.146  31.624  58.507  1.00  0.00     0.201 C 
ENDBRANCH  32  33
ENDBRANCH  31  32
ENDBRANCH  30  31
ENDBRANCH  27  30
ENDBRANCH   7  26
TORSDOF 9
ENDMDL
MODEL 5
REMARK VINA RESULT:      -8.5      4.529     11.048
REMARK  9 active torsions:
REMARK  status: ('A' for Active; 'I' for Inactive)
REMARK    1  A    between atoms: C_2  and  C_3 
REMARK    2  A    between atoms: C_6  and  N_7 
REMARK    3  A    between atoms: N_7  and  S_8 
REMARK    4  A    between atoms: S_8  and  C_9 
REMARK    5  A    between atoms: C_15  and  C_16 
REMARK       I    between atoms: C_16  and  N_17 
REMARK    6  A    between atoms: N_17  and  C_18 
REMARK    7  A    between atoms: C_18  and  C_19 
REMARK    8  A    between atoms: C_19  and  C_20 
REMARK    9  A    between atoms: C_20  and  O_21 
ROOT
HETATM    1  C   UNL     1       4.568  33.714  62.809  1.00  0.00     0.081 A 
HETATM    2  C   UNL     1       5.160  33.371  61.590  1.00  0.00     0.043 A 
HETATM    3  C   UNL     1       6.469  32.880  61.586  1.00  0.00     0.043 A 
HETATM    4  C   UNL     1       7.182  32.711  62.786  1.00  0.00     0.046 A 
HETATM    5  N   UNL     1       8.506  32.257  62.748  1.00  0.00    -0.364 N 
HETATM    6  C   UNL     1       9.086  31.884  61.562  1.00  0.00     0.109 A 
HETATM    7  C   UNL     1       8.514  31.976  60.350  1.00  0.00     0.098 A 
HETATM    8  C   UNL     1       7.126  32.517  60.301  1.00  0.00     0.201 A 
HETATM    9  O   UNL     1       6.525  32.662  59.238  1.00  0.00    -0.286 OA
HETATM   10  C   UNL     1       6.574  33.063  63.994  1.00  0.00     0.032 A 
HETATM   11  C   UNL     1       5.263  33.553  64.012  1.00  0.00     0.027 A 
HETATM   12  H   UNL     1       8.967  31.995  63.613  1.00  0.00     0.165 HD
ENDROOT
BRANCH   1  13
HETATM   13  S   UNL     1       2.883  34.292  62.821  1.00  0.00     0.263 S 
HETATM   14  O   UNL     1       2.142  33.478  63.757  1.00  0.00    -0.200 OA
HETATM   15  O   UNL     1       2.468  34.414  61.439  1.00  0.00    -0.200 OA
BRANCH  13  16
HETATM   16  N   UNL     1       3.034  35.864  63.411  1.00  0.00    -0.281 N 
HETATM   17  H   UNL     1       2.136  36.298  63.615  1.00  0.00     0.179 HD
BRANCH  16  18
HETATM   18  C   UNL     1       4.082  36.694  62.932  1.00  0.00     0.042 A 
HETATM   19  C   UNL     1       4.127  37.047  61.584  1.00  0.00     0.030 A 
HETATM   20  C   UNL     1       5.158  37.867  61.114  1.00  0.00     0.009 A 
HETATM   21  C   UNL     1       6.147  38.340  61.989  1.00  0.00    -0.058 A 
HETATM   22  C   UNL     1       6.092  37.974  63.339  1.00  0.00     0.009 A 
HETATM   23  C   UNL     1       5.068  37.148  63.806  1.00  0.00     0.030 A 
BRANCH  21  24
HETATM   24  C   UNL     1       7.232  39.263  61.495  1.00  0.00     0.034 C 
HETATM   25  C   UNL     1       7.638  40.277  62.553  1.00  0.00     0.010 C 
ENDBRANCH  21  24
ENDBRANCH  16  18
ENDBRANCH  13  16
ENDBRANCH   1  13
BRANCH   7  26
HETATM   26  C   UNL     1       9.292  31.533  59.157  1.00  0.00     0.257 C 
HETATM   27  N   UNL     1       8.947  30.304  58.656  1.00  0.00    -0.357 N 
HETATM   28  H   UNL     1       8.180  29.798  59.103  1.00  0.00     0.162 HD
HETATM   29  O   UNL     1      10.178  32.231  58.671  1.00  0.00    -0.267 OA
BRANCH  27  30
HETATM   30  C   UNL     1       9.588  29.718  57.498  1.00  0.00     0.125 C 
BRANCH  30  31
HETATM   31  C   UNL     1       8.611  29.356  56.384  1.00  0.00     0.046 C 
BRANCH  31  32
HETATM   32  C   UNL     1       7.196  29.114  56.895  1.00  0.00     0.168 C 
BRANCH  32  33
HETATM   33  O   UNL     1       6.476  30.345  56.818  1.00  0.00    -0.396 OA
HETATM   34  C   UNL     1       5.400  30.269  55.893  1.00  0.00     0.201 C 
ENDBRANCH  32  33
ENDBRANCH  31  32
ENDBRANCH  30  31
ENDBRANCH  27  30
ENDBRANCH   7  26
TORSDOF 9
ENDMDL
MODEL 6
REMARK VINA RESULT:      -8.2      4.658      8.847
REMARK  9 active torsions:
REMARK  status: ('A' for Active; 'I' for Inactive)
REMARK    1  A    between atoms: C_2  and  C_3 
REMARK    2  A    between atoms: C_6  and  N_7 
REMARK    3  A    between atoms: N_7  and  S_8 
REMARK    4  A    between atoms: S_8  and  C_9 
REMARK    5  A    between atoms: C_15  and  C_16 
REMARK       I    between atoms: C_16  and  N_17 
REMARK    6  A    between atoms: N_17  and  C_18 
REMARK    7  A    between atoms: C_18  and  C_19 
REMARK    8  A    between atoms: C_19  and  C_20 
REMARK    9  A    between atoms: C_20  and  O_21 
ROOT
HETATM    1  C   UNL     1       5.305  27.521  55.506  1.00  0.00     0.081 A 
HETATM    2  C   UNL     1       5.096  27.361  54.134  1.00  0.00     0.043 A 
HETATM    3  C   UNL     1       4.363  28.329  53.442  1.00  0.00     0.043 A 
HETATM    4  C   UNL     1       3.854  29.461  54.103  1.00  0.00     0.046 A 
HETATM    5  N   UNL     1       3.088  30.392  53.393  1.00  0.00    -0.364 N 
HETATM    6  C   UNL     1       2.905  30.266  52.039  1.00  0.00     0.109 A 
HETATM    7  C   UNL     1       3.349  29.248  51.283  1.00  0.00     0.098 A 
HETATM    8  C   UNL     1       4.117  28.178  51.982  1.00  0.00     0.201 A 
HETATM    9  O   UNL     1       4.546  27.193  51.383  1.00  0.00    -0.286 OA
HETATM   10  C   UNL     1       4.071  29.601  55.477  1.00  0.00     0.032 A 
HETATM   11  C   UNL     1       4.806  28.640  56.180  1.00  0.00     0.027 A 
HETATM   12  H   UNL     1       2.849  31.277  53.830  1.00  0.00     0.165 HD
ENDROOT
BRANCH   1  13
HETATM   13  S   UNL     1       6.282  26.314  56.379  1.00  0.00     0.263 S 
HETATM   14  O   UNL     1       5.475  25.127  56.547  1.00  0.00    -0.200 OA
HETATM   15  O   UNL     1       6.869  26.990  57.518  1.00  0.00    -0.200 OA
BRANCH  13  16
HETATM   16  N   UNL     1       7.545  26.011  55.305  1.00  0.00    -0.281 N 
HETATM   17  H   UNL     1       7.778  26.819  54.730  1.00  0.00     0.179 HD
BRANCH  16  18
HETATM   18  C   UNL     1       7.679  24.720  54.727  1.00  0.00     0.042 A 
HETATM   19  C   UNL     1       8.218  23.677  55.476  1.00  0.00     0.030 A 
HETATM   20  C   UNL     1       8.347  22.406  54.907  1.00  0.00     0.009 A 
HETATM   21  C   UNL     1       7.935  22.172  53.587  1.00  0.00    -0.058 A 
HETATM   22  C   UNL     1       7.398  23.231  52.844  1.00  0.00     0.009 A 
HETATM   23  C   UNL     1       7.278  24.501  53.410  1.00  0.00     0.030 A 
BRANCH  21  24
HETATM   24  C   UNL     1       8.028  20.792  52.987  1.00  0.00     0.034 C 
HETATM   25  C   UNL     1       8.975  19.896  53.771  1.00  0.00     0.010 C 
ENDBRANCH  21  24
ENDBRANCH  16  18
ENDBRANCH  13  16
ENDBRANCH   1  13
BRANCH   7  26
HETATM   26  C   UNL     1       3.054  29.261  49.822  1.00  0.00     0.257 C 
HETATM   27  N   UNL     1       2.171  28.303  49.393  1.00  0.00    -0.357 N 
HETATM   28  H   UNL     1       1.762  27.677  50.090  1.00  0.00     0.162 HD
HETATM   29  O   UNL     1       3.574  30.079  49.068  1.00  0.00    -0.267 OA
BRANCH  27  30
HETATM   30  C   UNL     1       1.760  28.173  48.012  1.00  0.00     0.125 C 
BRANCH  30  31
HETATM   31  C   UNL     1       2.346  26.947  47.319  1.00  0.00     0.046 C 
BRANCH  31  32
HETATM   32  C   UNL     1       3.810  26.714  47.669  1.00  0.00     0.168 C 
BRANCH  32  33
HETATM   33  O   UNL     1       3.885  25.593  48.551  1.00  0.00    -0.396 OA
HETATM   34  C   UNL     1       3.015  24.544  48.145  1.00  0.00     0.201 C 
ENDBRANCH  32  33
ENDBRANCH  31  32
ENDBRANCH  30  31
ENDBRANCH  27  30
ENDBRANCH   7  26
TORSDOF 9
ENDMDL
MODEL 7
REMARK VINA RESULT:      -8.2      2.432      3.167
REMARK  9 active torsions:
REMARK  status: ('A' for Active; 'I' for Inactive)
REMARK    1  A    between atoms: C_2  and  C_3 
REMARK    2  A    between atoms: C_6  and  N_7 
REMARK    3  A    between atoms: N_7  and  S_8 
REMARK    4  A    between atoms: S_8  and  C_9 
REMARK    5  A    between atoms: C_15  and  C_16 
REMARK       I    between atoms: C_16  and  N_17 
REMARK    6  A    between atoms: N_17  and  C_18 
REMARK    7  A    between atoms: C_18  and  C_19 
REMARK    8  A    between atoms: C_19  and  C_20 
REMARK    9  A    between atoms: C_20  and  O_21 
ROOT
HETATM    1  C   UNL     1       6.947  28.360  55.907  1.00  0.00     0.081 A 
HETATM    2  C   UNL     1       6.155  29.317  56.546  1.00  0.00     0.043 A 
HETATM    3  C   UNL     1       6.683  30.016  57.636  1.00  0.00     0.043 A 
HETATM    4  C   UNL     1       7.997  29.781  58.079  1.00  0.00     0.046 A 
HETATM    5  N   UNL     1       8.483  30.465  59.199  1.00  0.00    -0.364 N 
HETATM    6  C   UNL     1       7.729  31.433  59.814  1.00  0.00     0.109 A 
HETATM    7  C   UNL     1       6.471  31.769  59.483  1.00  0.00     0.098 A 
HETATM    8  C   UNL     1       5.857  31.034  58.340  1.00  0.00     0.201 A 
HETATM    9  O   UNL     1       4.703  31.252  57.976  1.00  0.00    -0.286 OA
HETATM   10  C   UNL     1       8.771  28.816  57.428  1.00  0.00     0.032 A 
HETATM   11  C   UNL     1       8.255  28.112  56.335  1.00  0.00     0.027 A 
HETATM   12  H   UNL     1       9.470  30.407  59.426  1.00  0.00     0.165 HD
ENDROOT
BRANCH   1  13
HETATM   13  S   UNL     1       6.295  27.505  54.487  1.00  0.00     0.263 S 
HETATM   14  O   UNL     1       5.840  28.499  53.540  1.00  0.00    -0.200 OA
HETATM   15  O   UNL     1       5.402  26.478  54.984  1.00  0.00    -0.200 OA
BRANCH  13  16
HETATM   16  N   UNL     1       7.648  26.703  53.882  1.00  0.00    -0.281 N 
HETATM   17  H   UNL     1       8.057  27.169  53.074  1.00  0.00     0.179 HD
BRANCH  16  18
HETATM   18  C   UNL     1       7.703  25.284  53.931  1.00  0.00     0.042 A 
HETATM   19  C   UNL     1       7.869  24.638  55.154  1.00  0.00     0.030 A 
HETATM   20  C   UNL     1       7.919  23.241  55.201  1.00  0.00     0.009 A 
HETATM   21  C   UNL     1       7.801  22.484  54.026  1.00  0.00    -0.058 A 
HETATM   22  C   UNL     1       7.639  23.147  52.804  1.00  0.00     0.009 A 
HETATM   23  C   UNL     1       7.598  24.542  52.756  1.00  0.00     0.030 A 
BRANCH  21  24
HETATM   24  C   UNL     1       7.807  20.977  54.080  1.00  0.00     0.034 C 
HETATM   25  C   UNL     1       8.385  20.368  52.811  1.00  0.00     0.010 C 
ENDBRANCH  21  24
ENDBRANCH  16  18
ENDBRANCH  13  16
ENDBRANCH   1  13
BRANCH   7  26
HETATM   26  C   UNL     1       5.790  32.841  60.264  1.00  0.00     0.257 C 
HETATM   27  N   UNL     1       4.836  33.550  59.578  1.00  0.00    -0.357 N 
HETATM   28  H   UNL     1       4.640  33.285  58.612  1.00  0.00     0.162 HD
HETATM   29  O   UNL     1       6.075  33.062  61.437  1.00  0.00    -0.267 OA
BRANCH  27  30
HETATM   30  C   UNL     1       4.067  34.619  60.179  1.00  0.00     0.125 C 
BRANCH  30  31
HETATM   31  C   UNL     1       2.676  34.185  60.631  1.00  0.00     0.046 C 
BRANCH  31  32
HETATM   32  C   UNL     1       2.340  34.654  62.041  1.00  0.00     0.168 C 
BRANCH  32  33
HETATM   33  O   UNL     1       3.494  34.465  62.862  1.00  0.00    -0.396 OA
HETATM   34  C   UNL     1       3.163  34.467  64.244  1.00  0.00     0.201 C 
ENDBRANCH  32  33
ENDBRANCH  31  32
ENDBRANCH  30  31
ENDBRANCH  27  30
ENDBRANCH   7  26
TORSDOF 9
ENDMDL
MODEL 8
REMARK VINA RESULT:      -8.2      6.358      9.376
REMARK  9 active torsions:
REMARK  status: ('A' for Active; 'I' for Inactive)
REMARK    1  A    between atoms: C_2  and  C_3 
REMARK    2  A    between atoms: C_6  and  N_7 
REMARK    3  A    between atoms: N_7  and  S_8 
REMARK    4  A    between atoms: S_8  and  C_9 
REMARK    5  A    between atoms: C_15  and  C_16 
REMARK       I    between atoms: C_16  and  N_17 
REMARK    6  A    between atoms: N_17  and  C_18 
REMARK    7  A    between atoms: C_18  and  C_19 
REMARK    8  A    between atoms: C_19  and  C_20 
REMARK    9  A    between atoms: C_20  and  O_21 
ROOT
HETATM    1  C   UNL     1       5.251  26.801  51.368  1.00  0.00     0.081 A 
HETATM    2  C   UNL     1       5.453  28.172  51.194  1.00  0.00     0.043 A 
HETATM    3  C   UNL     1       5.203  28.740  49.941  1.00  0.00     0.043 A 
HETATM    4  C   UNL     1       4.738  27.956  48.870  1.00  0.00     0.046 A 
HETATM    5  N   UNL     1       4.537  28.545  47.616  1.00  0.00    -0.364 N 
HETATM    6  C   UNL     1       4.697  29.896  47.440  1.00  0.00     0.109 A 
HETATM    7  C   UNL     1       5.118  30.761  48.379  1.00  0.00     0.098 A 
HETATM    8  C   UNL     1       5.419  30.197  49.725  1.00  0.00     0.201 A 
HETATM    9  O   UNL     1       5.833  30.902  50.644  1.00  0.00    -0.286 OA
HETATM   10  C   UNL     1       4.546  26.585  49.065  1.00  0.00     0.032 A 
HETATM   11  C   UNL     1       4.789  26.006  50.315  1.00  0.00     0.027 A 
HETATM   12  H   UNL     1       4.063  28.017  46.890  1.00  0.00     0.165 HD
ENDROOT
BRANCH   1  13
HETATM   13  S   UNL     1       5.520  26.084  52.977  1.00  0.00     0.263 S 
HETATM   14  O   UNL     1       4.637  24.947  53.109  1.00  0.00    -0.200 OA
HETATM   15  O   UNL     1       5.493  27.171  53.934  1.00  0.00    -0.200 OA
BRANCH  13  16
HETATM   16  N   UNL     1       7.123  25.569  52.891  1.00  0.00    -0.281 N 
HETATM   17  H   UNL     1       7.589  25.865  52.035  1.00  0.00     0.179 HD
BRANCH  16  18
HETATM   18  C   UNL     1       7.486  24.313  53.447  1.00  0.00     0.042 A 
HETATM   19  C   UNL     1       7.700  24.197  54.819  1.00  0.00     0.030 A 
HETATM   20  C   UNL     1       8.055  22.960  55.365  1.00  0.00     0.009 A 
HETATM   21  C   UNL     1       8.194  21.832  54.544  1.00  0.00    -0.058 A 
HETATM   22  C   UNL     1       7.980  21.964  53.166  1.00  0.00     0.009 A 
HETATM   23  C   UNL     1       7.635  23.201  52.620  1.00  0.00     0.030 A 
BRANCH  21  24
HETATM   24  C   UNL     1       8.529  20.487  55.136  1.00  0.00     0.034 C 
HETATM   25  C   UNL     1       8.520  20.520  56.657  1.00  0.00     0.010 C 
ENDBRANCH  21  24
ENDBRANCH  16  18
ENDBRANCH  13  16
ENDBRANCH   1  13
BRANCH   7  26
HETATM   26  C   UNL     1       5.246  32.201  48.016  1.00  0.00     0.257 C 
HETATM   27  N   UNL     1       6.294  32.863  48.603  1.00  0.00    -0.357 N 
HETATM   28  H   UNL     1       6.919  32.332  49.212  1.00  0.00     0.162 HD
HETATM   29  O   UNL     1       4.459  32.743  47.245  1.00  0.00    -0.267 OA
BRANCH  27  30
HETATM   30  C   UNL     1       6.579  34.261  48.359  1.00  0.00     0.125 C 
BRANCH  30  31
HETATM   31  C   UNL     1       7.809  34.485  47.486  1.00  0.00     0.046 C 
BRANCH  31  32
HETATM   32  C   UNL     1       7.628  33.962  46.066  1.00  0.00     0.168 C 
BRANCH  32  33
HETATM   33  O   UNL     1       8.566  34.630  45.221  1.00  0.00    -0.396 OA
HETATM   34  C   UNL     1       8.138  35.945  44.895  1.00  0.00     0.201 C 
ENDBRANCH  32  33
ENDBRANCH  31  32
ENDBRANCH  30  31
ENDBRANCH  27  30
ENDBRANCH   7  26
TORSDOF 9
ENDMDL
MODEL 9
REMARK VINA RESULT:      -8.0      5.503      8.632
REMARK  9 active torsions:
REMARK  status: ('A' for Active; 'I' for Inactive)
REMARK    1  A    between atoms: C_2  and  C_3 
REMARK    2  A    between atoms: C_6  and  N_7 
REMARK    3  A    between atoms: N_7  and  S_8 
REMARK    4  A    between atoms: S_8  and  C_9 
REMARK    5  A    between atoms: C_15  and  C_16 
REMARK       I    between atoms: C_16  and  N_17 
REMARK    6  A    between atoms: N_17  and  C_18 
REMARK    7  A    between atoms: C_18  and  C_19 
REMARK    8  A    between atoms: C_19  and  C_20 
REMARK    9  A    between atoms: C_20  and  O_21 
ROOT
HETATM    1  C   UNL     1       5.662  26.507  53.962  1.00  0.00     0.081 A 
HETATM    2  C   UNL     1       5.768  27.519  53.004  1.00  0.00     0.043 A 
HETATM    3  C   UNL     1       5.321  27.270  51.703  1.00  0.00     0.043 A 
HETATM    4  C   UNL     1       4.754  26.031  51.356  1.00  0.00     0.046 A 
HETATM    5  N   UNL     1       4.354  25.797  50.036  1.00  0.00    -0.364 N 
HETATM    6  C   UNL     1       4.420  26.793  49.094  1.00  0.00     0.109 A 
HETATM    7  C   UNL     1       4.921  28.024  49.294  1.00  0.00     0.098 A 
HETATM    8  C   UNL     1       5.432  28.327  50.661  1.00  0.00     0.201 A 
HETATM    9  O   UNL     1       5.931  29.417  50.938  1.00  0.00    -0.286 OA
HETATM   10  C   UNL     1       4.659  25.031  52.328  1.00  0.00     0.032 A 
HETATM   11  C   UNL     1       5.101  25.269  53.635  1.00  0.00     0.027 A 
HETATM   12  H   UNL     1       3.813  24.966  49.820  1.00  0.00     0.165 HD
ENDROOT
BRANCH   1  13
HETATM   13  S   UNL     1       6.184  26.839  55.633  1.00  0.00     0.263 S 
HETATM   14  O   UNL     1       5.229  26.222  56.526  1.00  0.00    -0.200 OA
HETATM   15  O   UNL     1       6.479  28.254  55.710  1.00  0.00    -0.200 OA
BRANCH  13  16
HETATM   16  N   UNL     1       7.665  26.039  55.724  1.00  0.00    -0.281 N 
HETATM   17  H   UNL     1       8.456  26.646  55.514  1.00  0.00     0.179 HD
BRANCH  16  18
HETATM   18  C   UNL     1       7.750  24.675  55.338  1.00  0.00     0.042 A 
HETATM   19  C   UNL     1       7.410  23.674  56.246  1.00  0.00     0.030 A 
HETATM   20  C   UNL     1       7.492  22.332  55.864  1.00  0.00     0.009 A 
HETATM   21  C   UNL     1       7.911  21.983  54.571  1.00  0.00    -0.058 A 
HETATM   22  C   UNL     1       8.254  22.999  53.671  1.00  0.00     0.009 A 
HETATM   23  C   UNL     1       8.180  24.339  54.056  1.00  0.00     0.030 A 
BRANCH  21  24
HETATM   24  C   UNL     1       7.954  20.539  54.141  1.00  0.00     0.034 C 
HETATM   25  C   UNL     1       8.472  20.387  52.719  1.00  0.00     0.010 C 
ENDBRANCH  21  24
ENDBRANCH  16  18
ENDBRANCH  13  16
ENDBRANCH   1  13
BRANCH   7  26
HETATM   26  C   UNL     1       4.926  28.986  48.155  1.00  0.00     0.257 C 
HETATM   27  N   UNL     1       4.493  30.253  48.456  1.00  0.00    -0.357 N 
HETATM   28  H   UNL     1       4.231  30.456  49.422  1.00  0.00     0.162 HD
HETATM   29  O   UNL     1       5.292  28.652  47.032  1.00  0.00    -0.267 OA
BRANCH  27  30
HETATM   30  C   UNL     1       4.441  31.319  47.478  1.00  0.00     0.125 C 
BRANCH  30  31
HETATM   31  C   UNL     1       4.906  32.665  48.025  1.00  0.00     0.046 C 
BRANCH  31  32
HETATM   32  C   UNL     1       6.159  32.551  48.885  1.00  0.00     0.168 C 
BRANCH  32  33
HETATM   33  O   UNL     1       7.207  33.282  48.245  1.00  0.00    -0.396 OA
HETATM   34  C   UNL     1       6.730  34.490  47.668  1.00  0.00     0.201 C 
ENDBRANCH  32  33
ENDBRANCH  31  32
ENDBRANCH  30  31
ENDBRANCH  27  30
ENDBRANCH   7  26
TORSDOF 9
ENDMDL
MODEL 10
REMARK VINA RESULT:      -7.9      2.430      4.106
REMARK  9 active torsions:
REMARK  status: ('A' for Active; 'I' for Inactive)
REMARK    1  A    between atoms: C_2  and  C_3 
REMARK    2  A    between atoms: C_6  and  N_7 
REMARK    3  A    between atoms: N_7  and  S_8 
REMARK    4  A    between atoms: S_8  and  C_9 
REMARK    5  A    between atoms: C_15  and  C_16 
REMARK       I    between atoms: C_16  and  N_17 
REMARK    6  A    between atoms: N_17  and  C_18 
REMARK    7  A    between atoms: C_18  and  C_19 
REMARK    8  A    between atoms: C_19  and  C_20 
REMARK    9  A    between atoms: C_20  and  O_21 
ROOT
HETATM    1  C   UNL     1       6.770  30.222  57.651  1.00  0.00     0.081 A 
HETATM    2  C   UNL     1       6.163  31.138  58.512  1.00  0.00     0.043 A 
HETATM    3  C   UNL     1       6.831  31.514  59.682  1.00  0.00     0.043 A 
HETATM    4  C   UNL     1       8.103  30.998  59.987  1.00  0.00     0.046 A 
HETATM    5  N   UNL     1       8.728  31.361  61.185  1.00  0.00    -0.364 N 
HETATM    6  C   UNL     1       8.160  32.287  62.023  1.00  0.00     0.109 A 
HETATM    7  C   UNL     1       6.963  32.870  61.844  1.00  0.00     0.098 A 
HETATM    8  C   UNL     1       6.202  32.482  60.622  1.00  0.00     0.201 A 
HETATM    9  O   UNL     1       5.088  32.942  60.380  1.00  0.00    -0.286 OA
HETATM   10  C   UNL     1       8.691  30.080  59.113  1.00  0.00     0.032 A 
HETATM   11  C   UNL     1       8.034  29.698  57.938  1.00  0.00     0.027 A 
HETATM   12  H   UNL     1       9.700  31.109  61.334  1.00  0.00     0.165 HD
ENDROOT
BRANCH   1  13
HETATM   13  S   UNL     1       5.943  29.780  56.135  1.00  0.00     0.263 S 
HETATM   14  O   UNL     1       5.383  30.986  55.568  1.00  0.00    -0.200 OA
HETATM   15  O   UNL     1       5.112  28.631  56.427  1.00  0.00    -0.200 OA
BRANCH  13  16
HETATM   16  N   UNL     1       7.208  29.218  55.173  1.00  0.00    -0.281 N 
HETATM   17  H   UNL     1       7.633  29.952  54.609  1.00  0.00     0.179 HD
BRANCH  16  18
HETATM   18  C   UNL     1       7.144  27.909  54.625  1.00  0.00     0.042 A 
HETATM   19  C   UNL     1       7.501  26.812  55.406  1.00  0.00     0.030 A 
HETATM   20  C   UNL     1       7.435  25.524  54.866  1.00  0.00     0.009 A 
HETATM   21  C   UNL     1       7.009  25.326  53.545  1.00  0.00    -0.058 A 
HETATM   22  C   UNL     1       6.657  26.438  52.770  1.00  0.00     0.009 A 
HETATM   23  C   UNL     1       6.732  27.725  53.307  1.00  0.00     0.030 A 
BRANCH  21  24
HETATM   24  C   UNL     1       6.891  23.935  52.976  1.00  0.00     0.034 C 
HETATM   25  C   UNL     1       7.765  22.941  53.725  1.00  0.00     0.010 C 
ENDBRANCH  21  24
ENDBRANCH  16  18
ENDBRANCH  13  16
ENDBRANCH   1  13
BRANCH   7  26
HETATM   26  C   UNL     1       6.488  33.852  62.860  1.00  0.00     0.257 C 
HETATM   27  N   UNL     1       6.405  33.374  64.144  1.00  0.00    -0.357 N 
HETATM   28  H   UNL     1       6.695  32.411  64.319  1.00  0.00     0.162 HD
HETATM   29  O   UNL     1       6.194  35.004  62.554  1.00  0.00    -0.267 OA
BRANCH  27  30
HETATM   30  C   UNL     1       5.974  34.189  65.260  1.00  0.00     0.125 C 
BRANCH  30  31
HETATM   31  C   UNL     1       4.567  33.855  65.745  1.00  0.00     0.046 C 
BRANCH  31  32
HETATM   32  C   UNL     1       3.481  34.494  64.888  1.00  0.00     0.168 C 
BRANCH  32  33
HETATM   33  O   UNL     1       3.138  33.579  63.847  1.00  0.00    -0.396 OA
HETATM   34  C   UNL     1       2.654  34.252  62.692  1.00  0.00     0.201 C 
ENDBRANCH  32  33
ENDBRANCH  31  32
ENDBRANCH  30  31
ENDBRANCH  27  30
ENDBRANCH   7  26
TORSDOF 9
ENDMDL
