MODEL 1
REMARK VINA RESULT:      -8.7      0.000      0.000
REMARK  7 active torsions:
REMARK  status: ('A' for Active; 'I' for Inactive)
REMARK    1  A    between atoms: C_3  and  N_4 
REMARK       I    between atoms: N_4  and  C_5 
REMARK    2  A    between atoms: C_5  and  C_6 
REMARK    3  A    between atoms: C_7  and  C_8 
REMARK    4  A    between atoms: C_19  and  C_20 
REMARK    5  A    between atoms: C_20  and  C_21 
REMARK    6  A    between atoms: C_21  and  C_22 
REMARK    7  A    between atoms: C_22  and  O_23 
ROOT
HETATM    1  C   UNL     1       5.012  27.005  53.522  1.00  0.00     0.062 C 
HETATM    2  C   UNL     1       4.801  27.573  54.931  1.00  0.00     0.202 C 
HETATM    3  N   UNL     1       4.222  28.921  54.870  1.00  0.00    -0.083 N 
HETATM    4  C   UNL     1       4.190  29.683  53.734  1.00  0.00     0.726 A 
HETATM    5  N   UNL     1       4.584  29.143  52.568  1.00  0.00    -0.192 N 
HETATM    6  N   UNL     1       3.766  29.608  55.939  1.00  0.00    -0.140 NA
HETATM    7  C   UNL     1       3.537  30.807  55.384  1.00  0.00     0.166 A 
HETATM    8  N   UNL     1       3.779  30.890  54.029  1.00  0.00    -0.046 NA
HETATM    9  C   UNL     1       4.957  27.810  52.428  1.00  0.00     0.037 C 
HETATM   10  C   UNL     1       5.326  27.393  51.025  1.00  0.00     0.070 C 
HETATM   11  H   UNL     1       4.554  29.719  51.730  1.00  0.00     0.184 HD
ENDROOT
BRANCH   1  12
HETATM   12  C   UNL     1       5.300  25.538  53.484  1.00  0.00     0.256 C 
HETATM   13  N   UNL     1       6.629  25.221  53.643  1.00  0.00    -0.323 N 
HETATM   14  H   UNL     1       7.288  25.968  53.459  1.00  0.00     0.169 HD
HETATM   15  O   UNL     1       4.413  24.752  53.181  1.00  0.00    -0.267 OA
BRANCH  13  16
HETATM   16  C   UNL     1       7.205  23.948  53.869  1.00  0.00     0.041 A 
HETATM   17  C   UNL     1       7.383  23.326  55.119  1.00  0.00    -0.035 A 
HETATM   18  C   UNL     1       7.040  23.938  56.450  1.00  0.00     0.050 C 
HETATM   19  C   UNL     1       7.968  22.041  55.160  1.00  0.00     0.009 A 
HETATM   20  C   UNL     1       8.422  21.410  54.005  1.00  0.00     0.001 A 
HETATM   21  C   UNL     1       8.299  22.051  52.781  1.00  0.00     0.002 A 
HETATM   22  C   UNL     1       7.700  23.310  52.717  1.00  0.00     0.030 A 
ENDBRANCH  13  16
ENDBRANCH   1  12
BRANCH   2  23
HETATM   23  C   UNL     1       6.085  27.636  55.763  1.00  0.00    -0.027 A 
HETATM   24  C   UNL     1       7.206  28.371  55.333  1.00  0.00     0.028 A 
HETATM   25  C   UNL     1       8.359  28.419  56.118  1.00  0.00     0.011 A 
HETATM   26 BR   UNL     1       9.853  29.411  55.521  1.00  0.00    -0.051 Br
HETATM   27  C   UNL     1       8.418  27.745  57.334  1.00  0.00     0.019 A 
HETATM   28  C   UNL     1       7.313  27.017  57.772  1.00  0.00     0.002 A 
HETATM   29  C   UNL     1       6.155  26.963  56.995  1.00  0.00     0.010 A 
ENDBRANCH   2  23
BRANCH   7  30
HETATM   30  C   UNL     1       3.184  32.011  56.177  1.00  0.00     0.085 C 
BRANCH  30  31
HETATM   31  C   UNL     1       4.120  32.231  57.369  1.00  0.00     0.034 C 
BRANCH  31  32
HETATM   32  C   UNL     1       3.559  31.777  58.716  1.00  0.00     0.164 C 
BRANCH  32  33
HETATM   33  O   UNL     1       3.641  30.368  58.865  1.00  0.00    -0.401 OA
HETATM   34  H   UNL     1       4.153  30.206  59.685  1.00  0.00     0.209 HD
ENDBRANCH  32  33
ENDBRANCH  31  32
ENDBRANCH  30  31
ENDBRANCH   7  30
TORSDOF 7
ENDMDL
MODEL 2
REMARK VINA RESULT:      -8.5      3.712      8.282
REMARK  7 active torsions:
REMARK  status: ('A' for Active; 'I' for Inactive)
REMARK    1  A    between atoms: C_3  and  N_4 
REMARK       I    between atoms: N_4  and  C_5 
REMARK    2  A    between atoms: C_5  and  C_6 
REMARK    3  A    between atoms: C_7  and  C_8 
REMARK    4  A    between atoms: C_19  and  C_20 
REMARK    5  A    between atoms: C_20  and  C_21 
REMARK    6  A    between atoms: C_21  and  C_22 
REMARK    7  A    between atoms: C_22  and  O_23 
ROOT
HETATM    1  C   UNL     1       7.514  30.000  58.016  1.00  0.00     0.062 C 
HETATM    2  C   UNL     1       6.242  29.180  57.768  1.00  0.00     0.202 C 
HETATM    3  N   UNL     1       6.555  27.932  57.059  1.00  0.00    -0.083 N 
HETATM    4  C   UNL     1       7.744  27.697  56.423  1.00  0.00     0.726 A 
HETATM    5  N   UNL     1       8.744  28.587  56.549  1.00  0.00    -0.192 N 
HETATM    6  N   UNL     1       5.677  26.928  56.851  1.00  0.00    -0.140 NA
HETATM    7  C   UNL     1       6.383  26.148  56.020  1.00  0.00     0.166 A 
HETATM    8  N   UNL     1       7.662  26.585  55.740  1.00  0.00    -0.046 NA
HETATM    9  C   UNL     1       8.670  29.713  57.362  1.00  0.00     0.037 C 
HETATM   10  C   UNL     1       9.919  30.561  57.395  1.00  0.00     0.070 C 
HETATM   11  H   UNL     1       9.623  28.401  56.073  1.00  0.00     0.184 HD
ENDROOT
BRANCH   1  12
HETATM   12  C   UNL     1       7.345  31.121  58.992  1.00  0.00     0.256 C 
HETATM   13  N   UNL     1       7.282  30.719  60.306  1.00  0.00    -0.323 N 
HETATM   14  H   UNL     1       7.046  29.747  60.461  1.00  0.00     0.169 HD
HETATM   15  O   UNL     1       7.134  32.255  58.584  1.00  0.00    -0.267 OA
BRANCH  13  16
HETATM   16  C   UNL     1       7.343  31.521  61.470  1.00  0.00     0.041 A 
HETATM   17  C   UNL     1       8.509  32.038  62.065  1.00  0.00    -0.035 A 
HETATM   18  C   UNL     1       9.913  31.776  61.593  1.00  0.00     0.050 C 
HETATM   19  C   UNL     1       8.383  32.833  63.225  1.00  0.00     0.009 A 
HETATM   20  C   UNL     1       7.146  33.065  63.821  1.00  0.00     0.001 A 
HETATM   21  C   UNL     1       6.004  32.505  63.266  1.00  0.00     0.002 A 
HETATM   22  C   UNL     1       6.104  31.737  62.105  1.00  0.00     0.030 A 
ENDBRANCH  13  16
ENDBRANCH   1  12
BRANCH   2  23
HETATM   23  C   UNL     1       5.174  29.933  56.970  1.00  0.00    -0.027 A 
HETATM   24  C   UNL     1       5.178  29.945  55.563  1.00  0.00     0.028 A 
HETATM   25  C   UNL     1       4.185  30.632  54.862  1.00  0.00     0.011 A 
HETATM   26 BR   UNL     1       4.210  30.636  52.972  1.00  0.00    -0.051 Br
HETATM   27  C   UNL     1       3.179  31.312  55.542  1.00  0.00     0.019 A 
HETATM   28  C   UNL     1       3.162  31.304  56.935  1.00  0.00     0.002 A 
HETATM   29  C   UNL     1       4.150  30.620  57.645  1.00  0.00     0.010 A 
ENDBRANCH   2  23
BRANCH   7  30
HETATM   30  C   UNL     1       5.805  24.970  55.328  1.00  0.00     0.085 C 
BRANCH  30  31
HETATM   31  C   UNL     1       6.313  24.818  53.891  1.00  0.00     0.034 C 
BRANCH  31  32
HETATM   32  C   UNL     1       5.222  24.824  52.822  1.00  0.00     0.164 C 
BRANCH  32  33
HETATM   33  O   UNL     1       4.027  25.421  53.303  1.00  0.00    -0.401 OA
HETATM   34  H   UNL     1       4.135  25.512  54.273  1.00  0.00     0.209 HD
ENDBRANCH  32  33
ENDBRANCH  31  32
ENDBRANCH  30  31
ENDBRANCH   7  30
TORSDOF 7
ENDMDL
MODEL 3
REMARK VINA RESULT:      -8.4      2.407      3.628
REMARK  7 active torsions:
REMARK  status: ('A' for Active; 'I' for Inactive)
REMARK    1  A    between atoms: C_3  and  N_4 
REMARK       I    between atoms: N_4  and  C_5 
REMARK    2  A    between atoms: C_5  and  C_6 
REMARK    3  A    between atoms: C_7  and  C_8 
REMARK    4  A    between atoms: C_19  and  C_20 
REMARK    5  A    between atoms: C_20  and  C_21 
REMARK    6  A    between atoms: C_21  and  C_22 
REMARK    7  A    between atoms: C_22  and  O_23 
ROOT
HETATM    1  C   UNL     1       6.230  25.458  53.640  1.00  0.00     0.062 C 
HETATM    2  C   UNL     1       5.220  26.502  54.132  1.00  0.00     0.202 C 
HETATM    3  N   UNL     1       4.734  27.325  53.016  1.00  0.00    -0.083 N 
HETATM    4  C   UNL     1       5.337  27.374  51.789  1.00  0.00     0.726 A 
HETATM    5  N   UNL     1       6.355  26.537  51.522  1.00  0.00    -0.192 N 
HETATM    6  N   UNL     1       3.717  28.209  53.103  1.00  0.00    -0.140 NA
HETATM    7  C   UNL     1       3.807  28.809  51.907  1.00  0.00     0.166 A 
HETATM    8  N   UNL     1       4.786  28.317  51.069  1.00  0.00    -0.046 NA
HETATM    9  C   UNL     1       6.789  25.554  52.405  1.00  0.00     0.037 C 
HETATM   10  C   UNL     1       7.919  24.692  51.895  1.00  0.00     0.070 C 
HETATM   11  H   UNL     1       6.794  26.582  50.607  1.00  0.00     0.184 HD
ENDROOT
BRANCH   1  12
HETATM   12  C   UNL     1       6.543  24.385  54.634  1.00  0.00     0.256 C 
HETATM   13  N   UNL     1       7.144  23.273  54.091  1.00  0.00    -0.323 N 
HETATM   14  H   UNL     1       7.034  23.153  53.092  1.00  0.00     0.169 HD
HETATM   15  O   UNL     1       6.135  24.484  55.783  1.00  0.00    -0.267 OA
BRANCH  13  16
HETATM   16  C   UNL     1       7.755  22.191  54.768  1.00  0.00     0.041 A 
HETATM   17  C   UNL     1       8.168  20.975  54.191  1.00  0.00    -0.035 A 
HETATM   18  C   UNL     1       7.978  20.590  52.750  1.00  0.00     0.050 C 
HETATM   19  C   UNL     1       8.775  20.004  55.017  1.00  0.00     0.009 A 
HETATM   20  C   UNL     1       8.916  20.198  56.389  1.00  0.00     0.001 A 
HETATM   21  C   UNL     1       8.454  21.373  56.965  1.00  0.00     0.002 A 
HETATM   22  C   UNL     1       7.875  22.356  56.161  1.00  0.00     0.030 A 
ENDBRANCH  13  16
ENDBRANCH   1  12
BRANCH   2  23
HETATM   23  C   UNL     1       5.781  27.434  55.210  1.00  0.00    -0.027 A 
HETATM   24  C   UNL     1       7.098  27.927  55.146  1.00  0.00     0.028 A 
HETATM   25  C   UNL     1       7.577  28.783  56.138  1.00  0.00     0.011 A 
HETATM   26 BR   UNL     1       9.349  29.432  56.034  1.00  0.00    -0.051 Br
HETATM   27  C   UNL     1       6.763  29.164  57.201  1.00  0.00     0.019 A 
HETATM   28  C   UNL     1       5.456  28.686  57.273  1.00  0.00     0.002 A 
HETATM   29  C   UNL     1       4.967  27.830  56.286  1.00  0.00     0.010 A 
ENDBRANCH   2  23
BRANCH   7  30
HETATM   30  C   UNL     1       3.015  30.009  51.543  1.00  0.00     0.085 C 
BRANCH  30  31
HETATM   31  C   UNL     1       3.768  31.317  51.802  1.00  0.00     0.034 C 
BRANCH  31  32
HETATM   32  C   UNL     1       4.686  31.764  50.665  1.00  0.00     0.164 C 
BRANCH  32  33
HETATM   33  O   UNL     1       5.998  31.246  50.822  1.00  0.00    -0.401 OA
HETATM   34  H   UNL     1       6.225  30.808  49.976  1.00  0.00     0.209 HD
ENDBRANCH  32  33
ENDBRANCH  31  32
ENDBRANCH  30  31
ENDBRANCH   7  30
TORSDOF 7
ENDMDL
MODEL 4
REMARK VINA RESULT:      -8.4      3.647      8.411
REMARK  7 active torsions:
REMARK  status: ('A' for Active; 'I' for Inactive)
REMARK    1  A    between atoms: C_3  and  N_4 
REMARK       I    between atoms: N_4  and  C_5 
REMARK    2  A    between atoms: C_5  and  C_6 
REMARK    3  A    between atoms: C_7  and  C_8 
REMARK    4  A    between atoms: C_19  and  C_20 
REMARK    5  A    between atoms: C_20  and  C_21 
REMARK    6  A    between atoms: C_21  and  C_22 
REMARK    7  A    between atoms: C_22  and  O_23 
ROOT
HETATM    1  C   UNL     1       7.844  29.914  58.263  1.00  0.00     0.062 C 
HETATM    2  C   UNL     1       6.645  28.980  58.054  1.00  0.00     0.202 C 
HETATM    3  N   UNL     1       7.080  27.685  57.514  1.00  0.00    -0.083 N 
HETATM    4  C   UNL     1       8.315  27.465  56.968  1.00  0.00     0.726 A 
HETATM    5  N   UNL     1       9.245  28.433  57.035  1.00  0.00    -0.192 N 
HETATM    6  N   UNL     1       6.283  26.603  57.385  1.00  0.00    -0.140 NA
HETATM    7  C   UNL     1       7.085  25.785  56.688  1.00  0.00     0.166 A 
HETATM    8  N   UNL     1       8.345  26.278  56.420  1.00  0.00    -0.046 NA
HETATM    9  C   UNL     1       9.052  29.637  57.703  1.00  0.00     0.037 C 
HETATM   10  C   UNL     1      10.237  30.572  57.695  1.00  0.00     0.070 C 
HETATM   11  H   UNL     1      10.160  28.258  56.627  1.00  0.00     0.184 HD
ENDROOT
BRANCH   1  12
HETATM   12  C   UNL     1       7.547  31.125  59.089  1.00  0.00     0.256 C 
HETATM   13  N   UNL     1       7.223  30.849  60.397  1.00  0.00    -0.323 N 
HETATM   14  H   UNL     1       6.919  29.902  60.587  1.00  0.00     0.169 HD
HETATM   15  O   UNL     1       7.466  32.221  58.552  1.00  0.00    -0.267 OA
BRANCH  13  16
HETATM   16  C   UNL     1       7.101  31.754  61.478  1.00  0.00     0.041 A 
HETATM   17  C   UNL     1       6.032  32.640  61.706  1.00  0.00    -0.035 A 
HETATM   18  C   UNL     1       4.847  32.820  60.798  1.00  0.00     0.050 C 
HETATM   19  C   UNL     1       6.069  33.469  62.849  1.00  0.00     0.009 A 
HETATM   20  C   UNL     1       7.160  33.469  63.714  1.00  0.00     0.001 A 
HETATM   21  C   UNL     1       8.240  32.638  63.454  1.00  0.00     0.002 A 
HETATM   22  C   UNL     1       8.211  31.792  62.344  1.00  0.00     0.030 A 
ENDBRANCH  13  16
ENDBRANCH   1  12
BRANCH   2  23
HETATM   23  C   UNL     1       5.576  29.557  57.122  1.00  0.00    -0.027 A 
HETATM   24  C   UNL     1       5.589  29.301  55.738  1.00  0.00     0.028 A 
HETATM   25  C   UNL     1       4.596  29.832  54.914  1.00  0.00     0.011 A 
HETATM   26 BR   UNL     1       4.633  29.476  53.058  1.00  0.00    -0.051 Br
HETATM   27  C   UNL     1       3.578  30.619  55.447  1.00  0.00     0.019 A 
HETATM   28  C   UNL     1       3.552  30.876  56.816  1.00  0.00     0.002 A 
HETATM   29  C   UNL     1       4.541  30.349  57.648  1.00  0.00     0.010 A 
ENDBRANCH   2  23
BRANCH   7  30
HETATM   30  C   UNL     1       6.626  24.496  56.115  1.00  0.00     0.085 C 
BRANCH  30  31
HETATM   31  C   UNL     1       6.764  24.443  54.591  1.00  0.00     0.034 C 
BRANCH  31  32
HETATM   32  C   UNL     1       5.543  24.944  53.819  1.00  0.00     0.164 C 
BRANCH  32  33
HETATM   33  O   UNL     1       4.831  25.926  54.556  1.00  0.00    -0.401 OA
HETATM   34  H   UNL     1       5.407  26.718  54.590  1.00  0.00     0.209 HD
ENDBRANCH  32  33
ENDBRANCH  31  32
ENDBRANCH  30  31
ENDBRANCH   7  30
TORSDOF 7
ENDMDL
MODEL 5
REMARK VINA RESULT:      -8.3      1.856      2.349
REMARK  7 active torsions:
REMARK  status: ('A' for Active; 'I' for Inactive)
REMARK    1  A    between atoms: C_3  and  N_4 
REMARK       I    between atoms: N_4  and  C_5 
REMARK    2  A    between atoms: C_5  and  C_6 
REMARK    3  A    between atoms: C_7  and  C_8 
REMARK    4  A    between atoms: C_19  and  C_20 
REMARK    5  A    between atoms: C_20  and  C_21 
REMARK    6  A    between atoms: C_21  and  C_22 
REMARK    7  A    between atoms: C_22  and  O_23 
ROOT
HETATM    1  C   UNL     1       5.010  27.816  55.646  1.00  0.00     0.062 C 
HETATM    2  C   UNL     1       5.255  28.777  56.817  1.00  0.00     0.202 C 
HETATM    3  N   UNL     1       4.478  30.012  56.650  1.00  0.00    -0.083 N 
HETATM    4  C   UNL     1       3.892  30.388  55.473  1.00  0.00     0.726 A 
HETATM    5  N   UNL     1       3.902  29.538  54.432  1.00  0.00    -0.192 N 
HETATM    6  N   UNL     1       4.351  30.970  57.593  1.00  0.00    -0.140 NA
HETATM    7  C   UNL     1       3.733  31.930  56.891  1.00  0.00     0.166 A 
HETATM    8  N   UNL     1       3.427  31.606  55.585  1.00  0.00    -0.046 NA
HETATM    9  C   UNL     1       4.413  28.245  54.503  1.00  0.00     0.037 C 
HETATM   10  C   UNL     1       4.289  27.438  53.234  1.00  0.00     0.070 C 
HETATM   11  H   UNL     1       3.462  29.827  53.562  1.00  0.00     0.184 HD
ENDROOT
BRANCH   1  12
HETATM   12  C   UNL     1       5.505  26.424  55.876  1.00  0.00     0.256 C 
HETATM   13  N   UNL     1       6.453  26.007  54.971  1.00  0.00    -0.323 N 
HETATM   14  H   UNL     1       6.492  26.522  54.101  1.00  0.00     0.169 HD
HETATM   15  O   UNL     1       4.963  25.717  56.715  1.00  0.00    -0.267 OA
BRANCH  13  16
HETATM   16  C   UNL     1       7.270  24.852  55.029  1.00  0.00     0.041 A 
HETATM   17  C   UNL     1       8.178  24.525  56.053  1.00  0.00    -0.035 A 
HETATM   18  C   UNL     1       8.483  25.385  57.249  1.00  0.00     0.050 C 
HETATM   19  C   UNL     1       8.907  23.320  55.954  1.00  0.00     0.009 A 
HETATM   20  C   UNL     1       8.790  22.486  54.845  1.00  0.00     0.001 A 
HETATM   21  C   UNL     1       7.938  22.840  53.809  1.00  0.00     0.002 A 
HETATM   22  C   UNL     1       7.190  24.014  53.900  1.00  0.00     0.030 A 
ENDBRANCH  13  16
ENDBRANCH   1  12
BRANCH   2  23
HETATM   23  C   UNL     1       6.727  29.153  57.001  1.00  0.00    -0.027 A 
HETATM   24  C   UNL     1       7.211  29.661  58.222  1.00  0.00     0.028 A 
HETATM   25  C   UNL     1       8.561  29.985  58.364  1.00  0.00     0.011 A 
HETATM   26 BR   UNL     1       9.189  30.666  60.011  1.00  0.00    -0.051 Br
HETATM   27  C   UNL     1       9.448  29.810  57.305  1.00  0.00     0.019 A 
HETATM   28  C   UNL     1       8.982  29.305  56.093  1.00  0.00     0.002 A 
HETATM   29  C   UNL     1       7.633  28.977  55.941  1.00  0.00     0.010 A 
ENDBRANCH   2  23
BRANCH   7  30
HETATM   30  C   UNL     1       3.508  33.300  57.415  1.00  0.00     0.085 C 
BRANCH  30  31
HETATM   31  C   UNL     1       4.104  33.503  58.812  1.00  0.00     0.034 C 
BRANCH  31  32
HETATM   32  C   UNL     1       3.096  33.413  59.957  1.00  0.00     0.164 C 
BRANCH  32  33
HETATM   33  O   UNL     1       2.672  32.075  60.171  1.00  0.00    -0.401 OA
HETATM   34  H   UNL     1       3.112  31.533  59.483  1.00  0.00     0.209 HD
ENDBRANCH  32  33
ENDBRANCH  31  32
ENDBRANCH  30  31
ENDBRANCH   7  30
TORSDOF 7
ENDMDL
MODEL 6
REMARK VINA RESULT:      -8.3      5.811      8.952
REMARK  7 active torsions:
REMARK  status: ('A' for Active; 'I' for Inactive)
REMARK    1  A    between atoms: C_3  and  N_4 
REMARK       I    between atoms: N_4  and  C_5 
REMARK    2  A    between atoms: C_5  and  C_6 
REMARK    3  A    between atoms: C_7  and  C_8 
REMARK    4  A    between atoms: C_19  and  C_20 
REMARK    5  A    between atoms: C_20  and  C_21 
REMARK    6  A    between atoms: C_21  and  C_22 
REMARK    7  A    between atoms: C_22  and  O_23 
ROOT
HETATM    1  C   UNL     1       8.068  32.125  61.222  1.00  0.00     0.062 C 
HETATM    2  C   UNL     1       7.008  33.231  61.305  1.00  0.00     0.202 C 
HETATM    3  N   UNL     1       6.805  33.657  62.695  1.00  0.00    -0.083 N 
HETATM    4  C   UNL     1       7.245  32.948  63.779  1.00  0.00     0.726 A 
HETATM    5  N   UNL     1       8.020  31.866  63.587  1.00  0.00    -0.192 N 
HETATM    6  N   UNL     1       6.067  34.723  63.070  1.00  0.00    -0.140 NA
HETATM    7  C   UNL     1       6.046  34.557  64.400  1.00  0.00     0.166 A 
HETATM    8  N   UNL     1       6.766  33.480  64.874  1.00  0.00    -0.046 NA
HETATM    9  C   UNL     1       8.474  31.461  62.336  1.00  0.00     0.037 C 
HETATM   10  C   UNL     1       9.369  30.245  62.343  1.00  0.00     0.070 C 
HETATM   11  H   UNL     1       8.343  31.348  64.400  1.00  0.00     0.184 HD
ENDROOT
BRANCH   1  12
HETATM   12  C   UNL     1       8.564  31.847  59.839  1.00  0.00     0.256 C 
HETATM   13  N   UNL     1       8.248  30.594  59.368  1.00  0.00    -0.323 N 
HETATM   14  H   UNL     1       8.007  29.905  60.069  1.00  0.00     0.169 HD
HETATM   15  O   UNL     1       9.310  32.647  59.289  1.00  0.00    -0.267 OA
BRANCH  13  16
HETATM   16  C   UNL     1       8.372  30.098  58.048  1.00  0.00     0.041 A 
HETATM   17  C   UNL     1       7.316  29.729  57.194  1.00  0.00    -0.035 A 
HETATM   18  C   UNL     1       5.858  29.746  57.562  1.00  0.00     0.050 C 
HETATM   19  C   UNL     1       7.624  29.261  55.898  1.00  0.00     0.009 A 
HETATM   20  C   UNL     1       8.940  29.102  55.473  1.00  0.00     0.001 A 
HETATM   21  C   UNL     1       9.980  29.410  56.338  1.00  0.00     0.002 A 
HETATM   22  C   UNL     1       9.697  29.899  57.614  1.00  0.00     0.030 A 
ENDBRANCH  13  16
ENDBRANCH   1  12
BRANCH   2  23
HETATM   23  C   UNL     1       5.652  32.822  60.722  1.00  0.00    -0.027 A 
HETATM   24  C   UNL     1       5.327  33.064  59.374  1.00  0.00     0.028 A 
HETATM   25  C   UNL     1       4.087  32.670  58.868  1.00  0.00     0.011 A 
HETATM   26 BR   UNL     1       3.670  33.005  57.056  1.00  0.00    -0.051 Br
HETATM   27  C   UNL     1       3.157  32.034  59.685  1.00  0.00     0.019 A 
HETATM   28  C   UNL     1       3.469  31.786  61.020  1.00  0.00     0.002 A 
HETATM   29  C   UNL     1       4.706  32.175  61.536  1.00  0.00     0.010 A 
ENDBRANCH   2  23
BRANCH   7  30
HETATM   30  C   UNL     1       5.203  35.377  65.305  1.00  0.00     0.085 C 
BRANCH  30  31
HETATM   31  C   UNL     1       4.079  34.568  65.960  1.00  0.00     0.034 C 
BRANCH  31  32
HETATM   32  C   UNL     1       4.305  34.236  67.435  1.00  0.00     0.164 C 
BRANCH  32  33
HETATM   33  O   UNL     1       5.624  33.764  67.665  1.00  0.00    -0.401 OA
HETATM   34  H   UNL     1       5.796  33.881  68.622  1.00  0.00     0.209 HD
ENDBRANCH  32  33
ENDBRANCH  31  32
ENDBRANCH  30  31
ENDBRANCH   7  30
TORSDOF 7
ENDMDL
MODEL 7
REMARK VINA RESULT:      -8.3      1.299      1.525
REMARK  7 active torsions:
REMARK  status: ('A' for Active; 'I' for Inactive)
REMARK    1  A    between atoms: C_3  and  N_4 
REMARK       I    between atoms: N_4  and  C_5 
REMARK    2  A    between atoms: C_5  and  C_6 
REMARK    3  A    between atoms: C_7  and  C_8 
REMARK    4  A    between atoms: C_19  and  C_20 
REMARK    5  A    between atoms: C_20  and  C_21 
REMARK    6  A    between atoms: C_21  and  C_22 
REMARK    7  A    between atoms: C_22  and  O_23 
ROOT
HETATM    1  C   UNL     1       5.088  26.922  53.330  1.00  0.00     0.062 C 
HETATM    2  C   UNL     1       4.775  27.660  54.637  1.00  0.00     0.202 C 
HETATM    3  N   UNL     1       4.261  29.010  54.366  1.00  0.00    -0.083 N 
HETATM    4  C   UNL     1       4.364  29.631  53.151  1.00  0.00     0.726 A 
HETATM    5  N   UNL     1       4.840  28.944  52.098  1.00  0.00    -0.192 N 
HETATM    6  N   UNL     1       3.740  29.833  55.300  1.00  0.00    -0.140 NA
HETATM    7  C   UNL     1       3.614  30.964  54.591  1.00  0.00     0.166 A 
HETATM    8  N   UNL     1       3.980  30.877  53.264  1.00  0.00    -0.046 NA
HETATM    9  C   UNL     1       5.167  27.593  52.150  1.00  0.00     0.037 C 
HETATM   10  C   UNL     1       5.643  27.000  50.846  1.00  0.00     0.070 C 
HETATM   11  H   UNL     1       4.910  29.416  51.201  1.00  0.00     0.184 HD
ENDROOT
BRANCH   1  12
HETATM   12  C   UNL     1       5.316  25.453  53.489  1.00  0.00     0.256 C 
HETATM   13  N   UNL     1       6.642  25.095  53.574  1.00  0.00    -0.323 N 
HETATM   14  H   UNL     1       7.307  25.771  53.221  1.00  0.00     0.169 HD
HETATM   15  O   UNL     1       4.375  24.678  53.391  1.00  0.00    -0.267 OA
BRANCH  13  16
HETATM   16  C   UNL     1       7.188  23.842  53.939  1.00  0.00     0.041 A 
HETATM   17  C   UNL     1       7.431  23.389  55.249  1.00  0.00    -0.035 A 
HETATM   18  C   UNL     1       7.202  24.192  56.501  1.00  0.00     0.050 C 
HETATM   19  C   UNL     1       7.974  22.098  55.432  1.00  0.00     0.009 A 
HETATM   20  C   UNL     1       8.326  21.295  54.350  1.00  0.00     0.001 A 
HETATM   21  C   UNL     1       8.140  21.768  53.059  1.00  0.00     0.002 A 
HETATM   22  C   UNL     1       7.581  23.030  52.857  1.00  0.00     0.030 A 
ENDBRANCH  13  16
ENDBRANCH   1  12
BRANCH   2  23
HETATM   23  C   UNL     1       5.979  27.782  55.574  1.00  0.00    -0.027 A 
HETATM   24  C   UNL     1       7.159  28.438  55.176  1.00  0.00     0.028 A 
HETATM   25  C   UNL     1       8.237  28.542  56.056  1.00  0.00     0.011 A 
HETATM   26 BR   UNL     1       9.813  29.426  55.501  1.00  0.00    -0.051 Br
HETATM   27  C   UNL     1       8.163  28.003  57.337  1.00  0.00     0.019 A 
HETATM   28  C   UNL     1       6.998  27.355  57.745  1.00  0.00     0.002 A 
HETATM   29  C   UNL     1       5.914  27.245  56.872  1.00  0.00     0.010 A 
ENDBRANCH   2  23
BRANCH   7  30
HETATM   30  C   UNL     1       3.241  32.264  55.201  1.00  0.00     0.085 C 
BRANCH  30  31
HETATM   31  C   UNL     1       2.423  33.149  54.256  1.00  0.00     0.034 C 
BRANCH  31  32
HETATM   32  C   UNL     1       1.113  33.673  54.842  1.00  0.00     0.164 C 
BRANCH  32  33
HETATM   33  O   UNL     1       0.315  32.617  55.355  1.00  0.00    -0.401 OA
HETATM   34  H   UNL     1      -0.113  32.963  56.165  1.00  0.00     0.209 HD
ENDBRANCH  32  33
ENDBRANCH  31  32
ENDBRANCH  30  31
ENDBRANCH   7  30
TORSDOF 7
ENDMDL
MODEL 8
REMARK VINA RESULT:      -8.2      3.749      6.267
REMARK  7 active torsions:
REMARK  status: ('A' for Active; 'I' for Inactive)
REMARK    1  A    between atoms: C_3  and  N_4 
REMARK       I    between atoms: N_4  and  C_5 
REMARK    2  A    between atoms: C_5  and  C_6 
REMARK    3  A    between atoms: C_7  and  C_8 
REMARK    4  A    between atoms: C_19  and  C_20 
REMARK    5  A    between atoms: C_20  and  C_21 
REMARK    6  A    between atoms: C_21  and  C_22 
REMARK    7  A    between atoms: C_22  and  O_23 
ROOT
HETATM    1  C   UNL     1       5.093  27.761  52.381  1.00  0.00     0.062 C 
HETATM    2  C   UNL     1       5.473  28.042  50.922  1.00  0.00     0.202 C 
HETATM    3  N   UNL     1       5.621  29.484  50.688  1.00  0.00    -0.083 N 
HETATM    4  C   UNL     1       5.163  30.444  51.549  1.00  0.00     0.726 A 
HETATM    5  N   UNL     1       4.663  30.074  52.742  1.00  0.00    -0.192 N 
HETATM    6  N   UNL     1       6.113  30.031  49.556  1.00  0.00    -0.140 NA
HETATM    7  C   UNL     1       5.857  31.329  49.775  1.00  0.00     0.166 A 
HETATM    8  N   UNL     1       5.281  31.622  50.994  1.00  0.00    -0.046 NA
HETATM    9  C   UNL     1       4.654  28.758  53.193  1.00  0.00     0.037 C 
HETATM   10  C   UNL     1       4.087  28.562  54.578  1.00  0.00     0.070 C 
HETATM   11  H   UNL     1       4.328  30.796  53.374  1.00  0.00     0.184 HD
ENDROOT
BRANCH   1  12
HETATM   12  C   UNL     1       5.224  26.328  52.788  1.00  0.00     0.256 C 
HETATM   13  N   UNL     1       6.521  25.916  52.988  1.00  0.00    -0.323 N 
HETATM   14  H   UNL     1       7.239  26.486  52.558  1.00  0.00     0.169 HD
HETATM   15  O   UNL     1       4.240  25.601  52.777  1.00  0.00    -0.267 OA
BRANCH  13  16
HETATM   16  C   UNL     1       6.976  24.711  53.577  1.00  0.00     0.041 A 
HETATM   17  C   UNL     1       6.848  24.346  54.930  1.00  0.00    -0.035 A 
HETATM   18  C   UNL     1       6.249  25.207  56.008  1.00  0.00     0.050 C 
HETATM   19  C   UNL     1       7.352  23.094  55.345  1.00  0.00     0.009 A 
HETATM   20  C   UNL     1       8.020  22.248  54.463  1.00  0.00     0.001 A 
HETATM   21  C   UNL     1       8.197  22.637  53.144  1.00  0.00     0.002 A 
HETATM   22  C   UNL     1       7.683  23.859  52.707  1.00  0.00     0.030 A 
ENDBRANCH  13  16
ENDBRANCH   1  12
BRANCH   2  23
HETATM   23  C   UNL     1       4.465  27.490  49.910  1.00  0.00    -0.027 A 
HETATM   24  C   UNL     1       3.390  28.269  49.441  1.00  0.00     0.028 A 
HETATM   25  C   UNL     1       2.493  27.743  48.511  1.00  0.00     0.011 A 
HETATM   26 BR   UNL     1       1.057  28.806  47.895  1.00  0.00    -0.051 Br
HETATM   27  C   UNL     1       2.647  26.444  48.032  1.00  0.00     0.019 A 
HETATM   28  C   UNL     1       3.709  25.665  48.486  1.00  0.00     0.002 A 
HETATM   29  C   UNL     1       4.612  26.182  49.416  1.00  0.00     0.010 A 
ENDBRANCH   2  23
BRANCH   7  30
HETATM   30  C   UNL     1       6.043  32.376  48.741  1.00  0.00     0.085 C 
BRANCH  30  31
HETATM   31  C   UNL     1       4.797  32.577  47.872  1.00  0.00     0.034 C 
BRANCH  31  32
HETATM   32  C   UNL     1       4.797  31.792  46.561  1.00  0.00     0.164 C 
BRANCH  32  33
HETATM   33  O   UNL     1       4.715  30.394  46.793  1.00  0.00    -0.401 OA
HETATM   34  H   UNL     1       5.418  29.982  46.249  1.00  0.00     0.209 HD
ENDBRANCH  32  33
ENDBRANCH  31  32
ENDBRANCH  30  31
ENDBRANCH   7  30
TORSDOF 7
ENDMDL
MODEL 9
REMARK VINA RESULT:      -7.9      4.034      8.741
REMARK  7 active torsions:
REMARK  status: ('A' for Active; 'I' for Inactive)
REMARK    1  A    between atoms: C_3  and  N_4 
REMARK       I    between atoms: N_4  and  C_5 
REMARK    2  A    between atoms: C_5  and  C_6 
REMARK    3  A    between atoms: C_7  and  C_8 
REMARK    4  A    between atoms: C_19  and  C_20 
REMARK    5  A    between atoms: C_20  and  C_21 
REMARK    6  A    between atoms: C_21  and  C_22 
REMARK    7  A    between atoms: C_22  and  O_23 
ROOT
HETATM    1  C   UNL     1       7.366  30.881  58.759  1.00  0.00     0.062 C 
HETATM    2  C   UNL     1       6.268  29.959  58.214  1.00  0.00     0.202 C 
HETATM    3  N   UNL     1       6.850  28.855  57.439  1.00  0.00    -0.083 N 
HETATM    4  C   UNL     1       8.142  28.840  56.991  1.00  0.00     0.726 A 
HETATM    5  N   UNL     1       8.984  29.815  57.378  1.00  0.00    -0.192 N 
HETATM    6  N   UNL     1       6.156  27.792  56.980  1.00  0.00    -0.140 NA
HETATM    7  C   UNL     1       7.079  27.210  56.202  1.00  0.00     0.166 A 
HETATM    8  N   UNL     1       8.316  27.821  56.190  1.00  0.00    -0.046 NA
HETATM    9  C   UNL     1       8.637  30.813  58.282  1.00  0.00     0.037 C 
HETATM   10  C   UNL     1       9.741  31.787  58.615  1.00  0.00     0.070 C 
HETATM   11  H   UNL     1       9.943  29.792  57.040  1.00  0.00     0.184 HD
ENDROOT
BRANCH   1  12
HETATM   12  C   UNL     1       6.901  31.843  59.806  1.00  0.00     0.256 C 
HETATM   13  N   UNL     1       6.863  31.317  61.077  1.00  0.00    -0.323 N 
HETATM   14  H   UNL     1       6.843  30.306  61.137  1.00  0.00     0.169 HD
HETATM   15  O   UNL     1       6.463  32.936  59.475  1.00  0.00    -0.267 OA
BRANCH  13  16
HETATM   16  C   UNL     1       6.683  32.001  62.302  1.00  0.00     0.041 A 
HETATM   17  C   UNL     1       5.453  32.383  62.870  1.00  0.00    -0.035 A 
HETATM   18  C   UNL     1       4.105  32.178  62.236  1.00  0.00     0.050 C 
HETATM   19  C   UNL     1       5.459  33.053  64.113  1.00  0.00     0.009 A 
HETATM   20  C   UNL     1       6.648  33.393  64.753  1.00  0.00     0.001 A 
HETATM   21  C   UNL     1       7.860  33.068  64.163  1.00  0.00     0.002 A 
HETATM   22  C   UNL     1       7.876  32.382  62.947  1.00  0.00     0.030 A 
ENDBRANCH  13  16
ENDBRANCH   1  12
BRANCH   2  23
HETATM   23  C   UNL     1       5.245  30.681  57.333  1.00  0.00    -0.027 A 
HETATM   24  C   UNL     1       5.624  31.726  56.469  1.00  0.00     0.028 A 
HETATM   25  C   UNL     1       4.671  32.359  55.669  1.00  0.00     0.011 A 
HETATM   26 BR   UNL     1       5.201  33.761  54.518  1.00  0.00    -0.051 Br
HETATM   27  C   UNL     1       3.336  31.966  55.712  1.00  0.00     0.019 A 
HETATM   28  C   UNL     1       2.949  30.930  56.559  1.00  0.00     0.002 A 
HETATM   29  C   UNL     1       3.895  30.291  57.363  1.00  0.00     0.010 A 
ENDBRANCH   2  23
BRANCH   7  30
HETATM   30  C   UNL     1       6.776  26.070  55.301  1.00  0.00     0.085 C 
BRANCH  30  31
HETATM   31  C   UNL     1       7.278  26.296  53.872  1.00  0.00     0.034 C 
BRANCH  31  32
HETATM   32  C   UNL     1       6.532  27.380  53.095  1.00  0.00     0.164 C 
BRANCH  32  33
HETATM   33  O   UNL     1       7.110  28.660  53.306  1.00  0.00    -0.401 OA
HETATM   34  H   UNL     1       7.744  28.801  52.573  1.00  0.00     0.209 HD
ENDBRANCH  32  33
ENDBRANCH  31  32
ENDBRANCH  30  31
ENDBRANCH   7  30
TORSDOF 7
ENDMDL
MODEL 10
REMARK VINA RESULT:      -7.9      2.481      3.900
REMARK  7 active torsions:
REMARK  status: ('A' for Active; 'I' for Inactive)
REMARK    1  A    between atoms: C_3  and  N_4 
REMARK       I    between atoms: N_4  and  C_5 
REMARK    2  A    between atoms: C_5  and  C_6 
REMARK    3  A    between atoms: C_7  and  C_8 
REMARK    4  A    between atoms: C_19  and  C_20 
REMARK    5  A    between atoms: C_20  and  C_21 
REMARK    6  A    between atoms: C_21  and  C_22 
REMARK    7  A    between atoms: C_22  and  O_23 
ROOT
HETATM    1  C   UNL     1       6.127  26.192  55.512  1.00  0.00     0.062 C 
HETATM    2  C   UNL     1       6.149  27.334  54.489  1.00  0.00     0.202 C 
HETATM    3  N   UNL     1       5.303  28.450  54.932  1.00  0.00    -0.083 N 
HETATM    4  C   UNL     1       4.376  28.349  55.934  1.00  0.00     0.726 A 
HETATM    5  N   UNL     1       4.308  27.216  56.655  1.00  0.00    -0.192 N 
HETATM    6  N   UNL     1       5.253  29.659  54.333  1.00  0.00    -0.140 NA
HETATM    7  C   UNL     1       4.222  30.216  54.984  1.00  0.00     0.166 A 
HETATM    8  N   UNL     1       3.662  29.444  55.981  1.00  0.00    -0.046 NA
HETATM    9  C   UNL     1       5.188  26.151  56.494  1.00  0.00     0.037 C 
HETATM   10  C   UNL     1       4.965  24.990  57.433  1.00  0.00     0.070 C 
HETATM   11  H   UNL     1       3.617  27.154  57.398  1.00  0.00     0.184 HD
ENDROOT
BRANCH   1  12
HETATM   12  C   UNL     1       7.187  25.157  55.306  1.00  0.00     0.256 C 
HETATM   13  N   UNL     1       6.704  23.877  55.165  1.00  0.00    -0.323 N 
HETATM   14  H   UNL     1       5.767  23.716  55.512  1.00  0.00     0.169 HD
HETATM   15  O   UNL     1       8.366  25.465  55.418  1.00  0.00    -0.267 OA
BRANCH  13  16
HETATM   16  C   UNL     1       7.403  22.719  54.748  1.00  0.00     0.041 A 
HETATM   17  C   UNL     1       8.100  21.823  55.580  1.00  0.00    -0.035 A 
HETATM   18  C   UNL     1       8.273  21.976  57.066  1.00  0.00     0.050 C 
HETATM   19  C   UNL     1       8.735  20.707  54.993  1.00  0.00     0.009 A 
HETATM   20  C   UNL     1       8.734  20.508  53.615  1.00  0.00     0.001 A 
HETATM   21  C   UNL     1       8.096  21.425  52.792  1.00  0.00     0.002 A 
HETATM   22  C   UNL     1       7.441  22.521  53.354  1.00  0.00     0.030 A 
ENDBRANCH  13  16
ENDBRANCH   1  12
BRANCH   2  23
HETATM   23  C   UNL     1       5.695  26.910  53.090  1.00  0.00    -0.027 A 
HETATM   24  C   UNL     1       5.790  27.781  51.988  1.00  0.00     0.028 A 
HETATM   25  C   UNL     1       5.379  27.363  50.722  1.00  0.00     0.011 A 
HETATM   26 BR   UNL     1       5.514  28.549  49.257  1.00  0.00    -0.051 Br
HETATM   27  C   UNL     1       4.870  26.081  50.529  1.00  0.00     0.019 A 
HETATM   28  C   UNL     1       4.775  25.208  51.611  1.00  0.00     0.002 A 
HETATM   29  C   UNL     1       5.185  25.617  52.881  1.00  0.00     0.010 A 
ENDBRANCH   2  23
BRANCH   7  30
HETATM   30  C   UNL     1       3.619  31.512  54.586  1.00  0.00     0.085 C 
BRANCH  30  31
HETATM   31  C   UNL     1       2.456  31.927  55.492  1.00  0.00     0.034 C 
BRANCH  31  32
HETATM   32  C   UNL     1       1.435  32.857  54.838  1.00  0.00     0.164 C 
BRANCH  32  33
HETATM   33  O   UNL     1       1.371  34.108  55.506  1.00  0.00    -0.401 OA
HETATM   34  H   UNL     1       1.677  34.781  54.863  1.00  0.00     0.209 HD
ENDBRANCH  32  33
ENDBRANCH  31  32
ENDBRANCH  30  31
ENDBRANCH   7  30
TORSDOF 7
ENDMDL
