MODEL 1
REMARK VINA RESULT:      -8.2      0.000      0.000
REMARK  6 active torsions:
REMARK  status: ('A' for Active; 'I' for Inactive)
REMARK    1  A    between atoms: N_2  and  C_4 
REMARK    2  A    between atoms: C_4  and  C_5 
REMARK    3  A    between atoms: C_5  and  N_6 
REMARK    4  A    between atoms: C_5  and  C_21 
REMARK       I    between atoms: N_6  and  C_7 
REMARK       I    between atoms: C_7  and  N_8 
REMARK    5  A    between atoms: N_8  and  C_9 
REMARK    6  A    between atoms: C_12  and  C_13 
ROOT
HETATM    1  N   UNL     1       6.044  27.806  55.220  1.00  0.00    -0.333 N 
HETATM    2  C   UNL     1       4.923  27.577  54.476  1.00  0.00     0.322 C 
HETATM    3  N   UNL     1       4.917  26.495  53.657  1.00  0.00    -0.287 N 
HETATM    4  O   UNL     1       3.940  28.309  54.556  1.00  0.00    -0.247 OA
HETATM    5  H   UNL     1       6.880  27.372  54.832  1.00  0.00     0.165 HD
HETATM    6  H   UNL     1       4.108  26.384  53.060  1.00  0.00     0.172 HD
ENDROOT
BRANCH   1   7
HETATM    7  C   UNL     1       6.206  29.052  55.956  1.00  0.00     0.145 C 
BRANCH   7   8
HETATM    8  C   UNL     1       5.232  29.199  57.172  1.00  0.00     0.263 C 
BRANCH   8   9
HETATM    9  N   UNL     1       4.172  30.295  56.997  1.00  0.00    -0.076 N 
HETATM   10  C   UNL     1       4.593  31.393  56.061  1.00  0.00     0.269 C 
HETATM   11  H   UNL     1       3.340  29.848  56.588  1.00  0.00     0.279 HD
HETATM   12  C   UNL     1       3.749  30.850  58.328  1.00  0.00     0.269 C 
ENDBRANCH   8   9
ENDBRANCH   7   8
BRANCH   7  13
HETATM   13  C   UNL     1       7.646  29.290  56.397  1.00  0.00    -0.034 A 
HETATM   14  C   UNL     1       7.985  29.674  57.704  1.00  0.00     0.009 A 
HETATM   15  C   UNL     1       9.313  29.923  58.055  1.00  0.00     0.001 A 
HETATM   16  C   UNL     1      10.322  29.797  57.104  1.00  0.00     0.000 A 
HETATM   17  C   UNL     1      10.005  29.418  55.802  1.00  0.00     0.001 A 
HETATM   18  C   UNL     1       8.679  29.164  55.451  1.00  0.00     0.009 A 
ENDBRANCH   7  13
ENDBRANCH   1   7
BRANCH   3  19
HETATM   19  C   UNL     1       5.884  25.535  53.590  1.00  0.00     0.175 A 
HETATM   20  S   UNL     1       6.828  25.558  52.175  1.00  0.00    -0.061 SA
HETATM   21  C   UNL     1       7.708  24.207  52.770  1.00  0.00     0.086 A 
HETATM   22  C   UNL     1       7.205  23.824  54.001  1.00  0.00     0.078 A 
HETATM   23  N   UNL     1       6.155  24.605  54.473  1.00  0.00    -0.223 NA
BRANCH  22  24
HETATM   24  C   UNL     1       7.677  22.677  54.758  1.00  0.00     0.011 A 
HETATM   25  C   UNL     1       7.997  22.825  56.104  1.00  0.00     0.130 A 
HETATM   26  N   UNL     1       8.455  21.833  56.905  1.00  0.00    -0.272 NA
HETATM   27  C   UNL     1       8.591  20.617  56.332  1.00  0.00     0.116 A 
HETATM   28  C   UNL     1       8.298  20.359  55.001  1.00  0.00     0.020 A 
HETATM   29  C   UNL     1       7.837  21.407  54.203  1.00  0.00     0.017 A 
ENDBRANCH  22  24
ENDBRANCH   3  19
TORSDOF 6
ENDMDL
MODEL 2
REMARK VINA RESULT:      -7.9      2.581      6.735
REMARK  6 active torsions:
REMARK  status: ('A' for Active; 'I' for Inactive)
REMARK    1  A    between atoms: N_2  and  C_4 
REMARK    2  A    between atoms: C_4  and  C_5 
REMARK    3  A    between atoms: C_5  and  N_6 
REMARK    4  A    between atoms: C_5  and  C_21 
REMARK       I    between atoms: N_6  and  C_7 
REMARK       I    between atoms: C_7  and  N_8 
REMARK    5  A    between atoms: N_8  and  C_9 
REMARK    6  A    between atoms: C_12  and  C_13 
ROOT
HETATM    1  N   UNL     1       5.149  27.490  53.793  1.00  0.00    -0.333 N 
HETATM    2  C   UNL     1       4.034  28.275  53.830  1.00  0.00     0.322 C 
HETATM    3  N   UNL     1       3.924  29.173  54.842  1.00  0.00    -0.287 N 
HETATM    4  O   UNL     1       3.163  28.195  52.967  1.00  0.00    -0.247 OA
HETATM    5  H   UNL     1       5.603  27.394  54.699  1.00  0.00     0.165 HD
HETATM    6  H   UNL     1       3.059  29.693  54.894  1.00  0.00     0.172 HD
ENDROOT
BRANCH   1   7
HETATM    7  C   UNL     1       5.238  26.368  52.868  1.00  0.00     0.145 C 
BRANCH   7   8
HETATM    8  C   UNL     1       5.691  26.773  51.427  1.00  0.00     0.263 C 
BRANCH   8   9
HETATM    9  N   UNL     1       4.535  27.145  50.487  1.00  0.00    -0.076 N 
HETATM   10  C   UNL     1       4.329  26.160  49.371  1.00  0.00     0.269 C 
HETATM   11  H   UNL     1       3.676  27.150  51.054  1.00  0.00     0.279 HD
HETATM   12  C   UNL     1       4.705  28.540  49.954  1.00  0.00     0.269 C 
ENDBRANCH   8   9
ENDBRANCH   7   8
BRANCH   7  13
HETATM   13  C   UNL     1       6.108  25.236  53.400  1.00  0.00    -0.034 A 
HETATM   14  C   UNL     1       6.142  24.880  54.759  1.00  0.00     0.009 A 
HETATM   15  C   UNL     1       6.984  23.863  55.211  1.00  0.00     0.001 A 
HETATM   16  C   UNL     1       7.809  23.190  54.315  1.00  0.00     0.000 A 
HETATM   17  C   UNL     1       7.791  23.529  52.965  1.00  0.00     0.001 A 
HETATM   18  C   UNL     1       6.945  24.541  52.509  1.00  0.00     0.009 A 
ENDBRANCH   7  13
ENDBRANCH   1   7
BRANCH   3  19
HETATM   19  C   UNL     1       4.884  29.454  55.770  1.00  0.00     0.175 A 
HETATM   20  S   UNL     1       4.299  29.996  57.272  1.00  0.00    -0.061 SA
HETATM   21  C   UNL     1       5.921  30.130  57.827  1.00  0.00     0.086 A 
HETATM   22  C   UNL     1       6.794  29.766  56.817  1.00  0.00     0.078 A 
HETATM   23  N   UNL     1       6.184  29.367  55.632  1.00  0.00    -0.223 NA
BRANCH  22  24
HETATM   24  C   UNL     1       8.241  29.822  56.927  1.00  0.00     0.011 A 
HETATM   25  C   UNL     1       8.825  30.344  58.077  1.00  0.00     0.130 A 
HETATM   26  N   UNL     1      10.159  30.456  58.286  1.00  0.00    -0.272 NA
HETATM   27  C   UNL     1      10.959  30.011  57.293  1.00  0.00     0.116 A 
HETATM   28  C   UNL     1      10.483  29.471  56.109  1.00  0.00     0.020 A 
HETATM   29  C   UNL     1       9.103  29.378  55.923  1.00  0.00     0.017 A 
ENDBRANCH  22  24
ENDBRANCH   3  19
TORSDOF 6
ENDMDL
MODEL 3
REMARK VINA RESULT:      -7.8      4.097      6.402
REMARK  6 active torsions:
REMARK  status: ('A' for Active; 'I' for Inactive)
REMARK    1  A    between atoms: N_2  and  C_4 
REMARK    2  A    between atoms: C_4  and  C_5 
REMARK    3  A    between atoms: C_5  and  N_6 
REMARK    4  A    between atoms: C_5  and  C_21 
REMARK       I    between atoms: N_6  and  C_7 
REMARK       I    between atoms: C_7  and  N_8 
REMARK    5  A    between atoms: N_8  and  C_9 
REMARK    6  A    between atoms: C_12  and  C_13 
ROOT
HETATM    1  N   UNL     1       4.700  28.165  51.569  1.00  0.00    -0.333 N 
HETATM    2  C   UNL     1       3.756  28.268  52.549  1.00  0.00     0.322 C 
HETATM    3  N   UNL     1       3.953  27.568  53.694  1.00  0.00    -0.287 N 
HETATM    4  O   UNL     1       2.769  28.988  52.416  1.00  0.00    -0.247 OA
HETATM    5  H   UNL     1       5.257  27.316  51.635  1.00  0.00     0.165 HD
HETATM    6  H   UNL     1       3.209  27.598  54.378  1.00  0.00     0.172 HD
ENDROOT
BRANCH   1   7
HETATM    7  C   UNL     1       4.457  28.714  50.242  1.00  0.00     0.145 C 
BRANCH   7   8
HETATM    8  C   UNL     1       5.743  29.262  49.540  1.00  0.00     0.263 C 
BRANCH   8   9
HETATM    9  N   UNL     1       5.729  30.778  49.298  1.00  0.00    -0.076 N 
HETATM   10  C   UNL     1       5.347  31.575  50.514  1.00  0.00     0.269 C 
HETATM   11  H   UNL     1       6.687  31.051  49.041  1.00  0.00     0.279 HD
HETATM   12  C   UNL     1       4.855  31.126  48.126  1.00  0.00     0.269 C 
ENDBRANCH   8   9
ENDBRANCH   7   8
BRANCH   7  13
HETATM   13  C   UNL     1       3.727  27.738  49.328  1.00  0.00    -0.034 A 
HETATM   14  C   UNL     1       2.448  27.997  48.807  1.00  0.00     0.009 A 
HETATM   15  C   UNL     1       1.798  27.057  48.006  1.00  0.00     0.001 A 
HETATM   16  C   UNL     1       2.412  25.841  47.717  1.00  0.00     0.000 A 
HETATM   17  C   UNL     1       3.679  25.566  48.224  1.00  0.00     0.001 A 
HETATM   18  C   UNL     1       4.333  26.506  49.021  1.00  0.00     0.009 A 
ENDBRANCH   7  13
ENDBRANCH   1   7
BRANCH   3  19
HETATM   19  C   UNL     1       5.072  26.854  54.014  1.00  0.00     0.175 A 
HETATM   20  S   UNL     1       6.349  27.768  54.666  1.00  0.00    -0.061 SA
HETATM   21  C   UNL     1       7.284  26.331  54.785  1.00  0.00     0.086 A 
HETATM   22  C   UNL     1       6.558  25.257  54.301  1.00  0.00     0.078 A 
HETATM   23  N   UNL     1       5.274  25.568  53.865  1.00  0.00    -0.223 NA
BRANCH  22  24
HETATM   24  C   UNL     1       7.071  23.902  54.197  1.00  0.00     0.011 A 
HETATM   25  C   UNL     1       7.229  23.135  55.348  1.00  0.00     0.130 A 
HETATM   26  N   UNL     1       7.706  21.868  55.374  1.00  0.00    -0.272 NA
HETATM   27  C   UNL     1       8.034  21.328  54.180  1.00  0.00     0.116 A 
HETATM   28  C   UNL     1       7.913  22.002  52.974  1.00  0.00     0.020 A 
HETATM   29  C   UNL     1       7.427  23.309  52.985  1.00  0.00     0.017 A 
ENDBRANCH  22  24
ENDBRANCH   3  19
TORSDOF 6
ENDMDL
MODEL 4
REMARK VINA RESULT:      -7.8      3.903      6.973
REMARK  6 active torsions:
REMARK  status: ('A' for Active; 'I' for Inactive)
REMARK    1  A    between atoms: N_2  and  C_4 
REMARK    2  A    between atoms: C_4  and  C_5 
REMARK    3  A    between atoms: C_5  and  N_6 
REMARK    4  A    between atoms: C_5  and  C_21 
REMARK       I    between atoms: N_6  and  C_7 
REMARK       I    between atoms: C_7  and  N_8 
REMARK    5  A    between atoms: N_8  and  C_9 
REMARK    6  A    between atoms: C_12  and  C_13 
ROOT
HETATM    1  N   UNL     1       6.177  27.032  53.911  1.00  0.00    -0.333 N 
HETATM    2  C   UNL     1       6.907  28.145  53.614  1.00  0.00     0.322 C 
HETATM    3  N   UNL     1       6.500  28.910  52.570  1.00  0.00    -0.287 N 
HETATM    4  O   UNL     1       7.890  28.464  54.278  1.00  0.00    -0.247 OA
HETATM    5  H   UNL     1       5.630  26.687  53.124  1.00  0.00     0.165 HD
HETATM    6  H   UNL     1       7.094  29.689  52.319  1.00  0.00     0.172 HD
ENDROOT
BRANCH   1   7
HETATM    7  C   UNL     1       6.668  26.055  54.874  1.00  0.00     0.145 C 
BRANCH   7   8
HETATM    8  C   UNL     1       5.688  25.796  56.065  1.00  0.00     0.263 C 
BRANCH   8   9
HETATM    9  N   UNL     1       6.100  26.481  57.376  1.00  0.00    -0.076 N 
HETATM   10  C   UNL     1       5.996  27.979  57.329  1.00  0.00     0.269 C 
HETATM   11  H   UNL     1       5.452  26.152  58.105  1.00  0.00     0.279 HD
HETATM   12  C   UNL     1       7.475  26.047  57.800  1.00  0.00     0.269 C 
ENDBRANCH   8   9
ENDBRANCH   7   8
BRANCH   7  13
HETATM   13  C   UNL     1       7.071  24.739  54.221  1.00  0.00    -0.034 A 
HETATM   14  C   UNL     1       7.146  23.530  54.933  1.00  0.00     0.009 A 
HETATM   15  C   UNL     1       7.560  22.354  54.305  1.00  0.00     0.001 A 
HETATM   16  C   UNL     1       7.910  22.368  52.958  1.00  0.00     0.000 A 
HETATM   17  C   UNL     1       7.843  23.556  52.235  1.00  0.00     0.001 A 
HETATM   18  C   UNL     1       7.424  24.732  52.860  1.00  0.00     0.009 A 
ENDBRANCH   7  13
ENDBRANCH   1   7
BRANCH   3  19
HETATM   19  C   UNL     1       5.351  28.740  51.853  1.00  0.00     0.175 A 
HETATM   20  S   UNL     1       3.971  29.484  52.512  1.00  0.00    -0.061 SA
HETATM   21  C   UNL     1       3.046  28.876  51.197  1.00  0.00     0.086 A 
HETATM   22  C   UNL     1       3.856  28.133  50.357  1.00  0.00     0.078 A 
HETATM   23  N   UNL     1       5.192  28.067  50.740  1.00  0.00    -0.223 NA
BRANCH  22  24
HETATM   24  C   UNL     1       3.383  27.424  49.181  1.00  0.00     0.011 A 
HETATM   25  C   UNL     1       4.234  26.541  48.521  1.00  0.00     0.130 A 
HETATM   26  N   UNL     1       3.908  25.835  47.412  1.00  0.00    -0.272 NA
HETATM   27  C   UNL     1       2.654  26.010  46.939  1.00  0.00     0.116 A 
HETATM   28  C   UNL     1       1.727  26.861  47.520  1.00  0.00     0.020 A 
HETATM   29  C   UNL     1       2.099  27.580  48.657  1.00  0.00     0.017 A 
ENDBRANCH  22  24
ENDBRANCH   3  19
TORSDOF 6
ENDMDL
MODEL 5
REMARK VINA RESULT:      -7.7      2.756      7.313
REMARK  6 active torsions:
REMARK  status: ('A' for Active; 'I' for Inactive)
REMARK    1  A    between atoms: N_2  and  C_4 
REMARK    2  A    between atoms: C_4  and  C_5 
REMARK    3  A    between atoms: C_5  and  N_6 
REMARK    4  A    between atoms: C_5  and  C_21 
REMARK       I    between atoms: N_6  and  C_7 
REMARK       I    between atoms: C_7  and  N_8 
REMARK    5  A    between atoms: N_8  and  C_9 
REMARK    6  A    between atoms: C_12  and  C_13 
ROOT
HETATM    1  N   UNL     1       7.435  27.315  55.854  1.00  0.00    -0.333 N 
HETATM    2  C   UNL     1       7.910  28.010  54.781  1.00  0.00     0.322 C 
HETATM    3  N   UNL     1       8.605  29.151  55.021  1.00  0.00    -0.287 N 
HETATM    4  O   UNL     1       7.737  27.613  53.631  1.00  0.00    -0.247 OA
HETATM    5  H   UNL     1       7.330  27.887  56.690  1.00  0.00     0.165 HD
HETATM    6  H   UNL     1       8.884  29.690  54.213  1.00  0.00     0.172 HD
ENDROOT
BRANCH   1   7
HETATM    7  C   UNL     1       6.508  26.207  55.671  1.00  0.00     0.145 C 
BRANCH   7   8
HETATM    8  C   UNL     1       5.311  26.536  54.720  1.00  0.00     0.263 C 
BRANCH   8   9
HETATM    9  N   UNL     1       4.831  27.993  54.797  1.00  0.00    -0.076 N 
HETATM   10  C   UNL     1       4.171  28.339  56.102  1.00  0.00     0.269 C 
HETATM   11  H   UNL     1       5.665  28.590  54.708  1.00  0.00     0.279 HD
HETATM   12  C   UNL     1       3.940  28.327  53.634  1.00  0.00     0.269 C 
ENDBRANCH   8   9
ENDBRANCH   7   8
BRANCH   7  13
HETATM   13  C   UNL     1       7.204  24.926  55.227  1.00  0.00    -0.034 A 
HETATM   14  C   UNL     1       6.861  24.248  54.045  1.00  0.00     0.009 A 
HETATM   15  C   UNL     1       7.496  23.055  53.696  1.00  0.00     0.001 A 
HETATM   16  C   UNL     1       8.479  22.518  54.523  1.00  0.00     0.000 A 
HETATM   17  C   UNL     1       8.832  23.176  55.698  1.00  0.00     0.001 A 
HETATM   18  C   UNL     1       8.202  24.371  56.047  1.00  0.00     0.009 A 
ENDBRANCH   7  13
ENDBRANCH   1   7
BRANCH   3  19
HETATM   19  C   UNL     1       8.983  29.614  56.248  1.00  0.00     0.175 A 
HETATM   20  S   UNL     1      10.661  29.635  56.527  1.00  0.00    -0.061 SA
HETATM   21  C   UNL     1      10.366  30.261  58.100  1.00  0.00     0.086 A 
HETATM   22  C   UNL     1       9.005  30.393  58.306  1.00  0.00     0.078 A 
HETATM   23  N   UNL     1       8.211  30.024  57.224  1.00  0.00    -0.223 NA
BRANCH  22  24
HETATM   24  C   UNL     1       8.404  30.835  59.552  1.00  0.00     0.011 A 
HETATM   25  C   UNL     1       7.208  31.548  59.526  1.00  0.00     0.130 A 
HETATM   26  N   UNL     1       6.563  32.019  60.619  1.00  0.00    -0.272 NA
HETATM   27  C   UNL     1       7.138  31.753  61.813  1.00  0.00     0.116 A 
HETATM   28  C   UNL     1       8.324  31.050  61.953  1.00  0.00     0.020 A 
HETATM   29  C   UNL     1       8.967  30.587  60.805  1.00  0.00     0.017 A 
ENDBRANCH  22  24
ENDBRANCH   3  19
TORSDOF 6
ENDMDL
MODEL 6
REMARK VINA RESULT:      -7.6      6.774     11.281
REMARK  6 active torsions:
REMARK  status: ('A' for Active; 'I' for Inactive)
REMARK    1  A    between atoms: N_2  and  C_4 
REMARK    2  A    between atoms: C_4  and  C_5 
REMARK    3  A    between atoms: C_5  and  N_6 
REMARK    4  A    between atoms: C_5  and  C_21 
REMARK       I    between atoms: N_6  and  C_7 
REMARK       I    between atoms: C_7  and  N_8 
REMARK    5  A    between atoms: N_8  and  C_9 
REMARK    6  A    between atoms: C_12  and  C_13 
ROOT
HETATM    1  N   UNL     1       4.869  32.683  60.634  1.00  0.00    -0.333 N 
HETATM    2  C   UNL     1       3.532  32.419  60.563  1.00  0.00     0.322 C 
HETATM    3  N   UNL     1       2.745  32.859  61.577  1.00  0.00    -0.287 N 
HETATM    4  O   UNL     1       3.046  31.822  59.605  1.00  0.00    -0.247 OA
HETATM    5  H   UNL     1       5.196  32.855  61.583  1.00  0.00     0.165 HD
HETATM    6  H   UNL     1       1.771  32.590  61.544  1.00  0.00     0.172 HD
ENDROOT
BRANCH   1   7
HETATM    7  C   UNL     1       5.800  32.066  59.699  1.00  0.00     0.145 C 
BRANCH   7   8
HETATM    8  C   UNL     1       5.774  32.702  58.270  1.00  0.00     0.263 C 
BRANCH   8   9
HETATM    9  N   UNL     1       5.061  31.845  57.214  1.00  0.00    -0.076 N 
HETATM   10  C   UNL     1       5.804  30.587  56.862  1.00  0.00     0.269 C 
HETATM   11  H   UNL     1       4.155  31.563  57.616  1.00  0.00     0.279 HD
HETATM   12  C   UNL     1       4.751  32.653  55.986  1.00  0.00     0.269 C 
ENDBRANCH   8   9
ENDBRANCH   7   8
BRANCH   7  13
HETATM   13  C   UNL     1       7.226  32.020  60.234  1.00  0.00    -0.034 A 
HETATM   14  C   UNL     1       8.347  31.909  59.396  1.00  0.00     0.009 A 
HETATM   15  C   UNL     1       9.634  31.829  59.930  1.00  0.00     0.001 A 
HETATM   16  C   UNL     1       9.821  31.851  61.310  1.00  0.00     0.000 A 
HETATM   17  C   UNL     1       8.721  31.960  62.157  1.00  0.00     0.001 A 
HETATM   18  C   UNL     1       7.434  32.046  61.625  1.00  0.00     0.009 A 
ENDBRANCH   7  13
ENDBRANCH   1   7
BRANCH   3  19
HETATM   19  C   UNL     1       3.144  33.651  62.614  1.00  0.00     0.175 A 
HETATM   20  S   UNL     1       2.786  35.304  62.439  1.00  0.00    -0.061 SA
HETATM   21  C   UNL     1       3.523  35.600  63.964  1.00  0.00     0.086 A 
HETATM   22  C   UNL     1       4.005  34.414  64.490  1.00  0.00     0.078 A 
HETATM   23  N   UNL     1       3.773  33.289  63.705  1.00  0.00    -0.223 NA
BRANCH  22  24
HETATM   24  C   UNL     1       4.740  34.312  65.738  1.00  0.00     0.011 A 
HETATM   25  C   UNL     1       4.053  34.346  66.948  1.00  0.00     0.130 A 
HETATM   26  N   UNL     1       4.631  34.269  68.170  1.00  0.00    -0.272 NA
HETATM   27  C   UNL     1       5.976  34.139  68.188  1.00  0.00     0.116 A 
HETATM   28  C   UNL     1       6.757  34.091  67.043  1.00  0.00     0.020 A 
HETATM   29  C   UNL     1       6.128  34.181  65.800  1.00  0.00     0.017 A 
ENDBRANCH  22  24
ENDBRANCH   3  19
TORSDOF 6
ENDMDL
MODEL 7
REMARK VINA RESULT:      -7.5      2.391      7.577
REMARK  6 active torsions:
REMARK  status: ('A' for Active; 'I' for Inactive)
REMARK    1  A    between atoms: N_2  and  C_4 
REMARK    2  A    between atoms: C_4  and  C_5 
REMARK    3  A    between atoms: C_5  and  N_6 
REMARK    4  A    between atoms: C_5  and  C_21 
REMARK       I    between atoms: N_6  and  C_7 
REMARK       I    between atoms: C_7  and  N_8 
REMARK    5  A    between atoms: N_8  and  C_9 
REMARK    6  A    between atoms: C_12  and  C_13 
ROOT
HETATM    1  N   UNL     1       6.652  26.778  55.066  1.00  0.00    -0.333 N 
HETATM    2  C   UNL     1       7.566  27.415  54.279  1.00  0.00     0.322 C 
HETATM    3  N   UNL     1       8.031  28.620  54.696  1.00  0.00    -0.287 N 
HETATM    4  O   UNL     1       7.978  26.911  53.237  1.00  0.00    -0.247 OA
HETATM    5  H   UNL     1       6.144  27.408  55.683  1.00  0.00     0.165 HD
HETATM    6  H   UNL     1       8.651  29.109  54.064  1.00  0.00     0.172 HD
ENDROOT
BRANCH   1   7
HETATM    7  C   UNL     1       5.955  25.592  54.586  1.00  0.00     0.145 C 
BRANCH   7   8
HETATM    8  C   UNL     1       5.053  25.854  53.335  1.00  0.00     0.263 C 
BRANCH   8   9
HETATM    9  N   UNL     1       4.971  27.329  52.919  1.00  0.00    -0.076 N 
HETATM   10  C   UNL     1       3.727  28.020  53.401  1.00  0.00     0.269 C 
HETATM   11  H   UNL     1       5.774  27.809  53.349  1.00  0.00     0.279 HD
HETATM   12  C   UNL     1       5.131  27.477  51.432  1.00  0.00     0.269 C 
ENDBRANCH   8   9
ENDBRANCH   7   8
BRANCH   7  13
HETATM   13  C   UNL     1       6.897  24.422  54.327  1.00  0.00    -0.034 A 
HETATM   14  C   UNL     1       6.950  23.750  53.095  1.00  0.00     0.009 A 
HETATM   15  C   UNL     1       7.798  22.656  52.914  1.00  0.00     0.001 A 
HETATM   16  C   UNL     1       8.602  22.214  53.961  1.00  0.00     0.000 A 
HETATM   17  C   UNL     1       8.563  22.868  55.190  1.00  0.00     0.001 A 
HETATM   18  C   UNL     1       7.719  23.964  55.372  1.00  0.00     0.009 A 
ENDBRANCH   7  13
ENDBRANCH   1   7
BRANCH   3  19
HETATM   19  C   UNL     1       7.761  29.211  55.895  1.00  0.00     0.175 A 
HETATM   20  S   UNL     1       8.959  29.011  57.085  1.00  0.00    -0.061 SA
HETATM   21  C   UNL     1       7.993  29.923  58.176  1.00  0.00     0.086 A 
HETATM   22  C   UNL     1       6.815  30.301  57.557  1.00  0.00     0.078 A 
HETATM   23  N   UNL     1       6.693  29.891  56.233  1.00  0.00    -0.223 NA
BRANCH  22  24
HETATM   24  C   UNL     1       5.743  31.029  58.212  1.00  0.00     0.011 A 
HETATM   25  C   UNL     1       4.418  30.723  57.912  1.00  0.00     0.130 A 
HETATM   26  N   UNL     1       3.340  31.340  58.451  1.00  0.00    -0.272 NA
HETATM   27  C   UNL     1       3.596  32.314  59.351  1.00  0.00     0.116 A 
HETATM   28  C   UNL     1       4.876  32.697  59.724  1.00  0.00     0.020 A 
HETATM   29  C   UNL     1       5.965  32.045  59.142  1.00  0.00     0.017 A 
ENDBRANCH  22  24
ENDBRANCH   3  19
TORSDOF 6
ENDMDL
MODEL 8
REMARK VINA RESULT:      -7.4      7.162     10.636
REMARK  6 active torsions:
REMARK  status: ('A' for Active; 'I' for Inactive)
REMARK    1  A    between atoms: N_2  and  C_4 
REMARK    2  A    between atoms: C_4  and  C_5 
REMARK    3  A    between atoms: C_5  and  N_6 
REMARK    4  A    between atoms: C_5  and  C_21 
REMARK       I    between atoms: N_6  and  C_7 
REMARK       I    between atoms: C_7  and  N_8 
REMARK    5  A    between atoms: N_8  and  C_9 
REMARK    6  A    between atoms: C_12  and  C_13 
ROOT
HETATM    1  N   UNL     1       4.354  34.453  62.965  1.00  0.00    -0.333 N 
HETATM    2  C   UNL     1       3.225  33.699  62.831  1.00  0.00     0.322 C 
HETATM    3  N   UNL     1       3.077  32.978  61.691  1.00  0.00    -0.287 N 
HETATM    4  O   UNL     1       2.377  33.650  63.718  1.00  0.00    -0.247 OA
HETATM    5  H   UNL     1       4.789  34.689  62.075  1.00  0.00     0.165 HD
HETATM    6  H   UNL     1       2.202  32.484  61.578  1.00  0.00     0.172 HD
ENDROOT
BRANCH   1   7
HETATM    7  C   UNL     1       4.484  35.410  64.056  1.00  0.00     0.145 C 
BRANCH   7   8
HETATM    8  C   UNL     1       5.145  34.813  65.342  1.00  0.00     0.263 C 
BRANCH   8   9
HETATM    9  N   UNL     1       4.141  34.375  66.418  1.00  0.00    -0.076 N 
HETATM   10  C   UNL     1       3.042  35.372  66.655  1.00  0.00     0.269 C 
HETATM   11  H   UNL     1       3.701  33.506  66.083  1.00  0.00     0.279 HD
HETATM   12  C   UNL     1       4.845  34.030  67.700  1.00  0.00     0.269 C 
ENDBRANCH   8   9
ENDBRANCH   7   8
BRANCH   7  13
HETATM   13  C   UNL     1       5.198  36.688  63.635  1.00  0.00    -0.034 A 
HETATM   14  C   UNL     1       5.365  37.784  64.497  1.00  0.00     0.009 A 
HETATM   15  C   UNL     1       5.990  38.952  64.058  1.00  0.00     0.001 A 
HETATM   16  C   UNL     1       6.453  39.046  62.748  1.00  0.00     0.000 A 
HETATM   17  C   UNL     1       6.296  37.970  61.878  1.00  0.00     0.001 A 
HETATM   18  C   UNL     1       5.676  36.800  62.317  1.00  0.00     0.009 A 
ENDBRANCH   7  13
ENDBRANCH   1   7
BRANCH   3  19
HETATM   19  C   UNL     1       4.010  32.839  60.705  1.00  0.00     0.175 A 
HETATM   20  S   UNL     1       3.490  33.290  59.149  1.00  0.00    -0.061 SA
HETATM   21  C   UNL     1       5.039  32.868  58.536  1.00  0.00     0.086 A 
HETATM   22  C   UNL     1       5.837  32.395  59.562  1.00  0.00     0.078 A 
HETATM   23  N   UNL     1       5.236  32.390  60.817  1.00  0.00    -0.223 NA
BRANCH  22  24
HETATM   24  C   UNL     1       7.188  31.892  59.384  1.00  0.00     0.011 A 
HETATM   25  C   UNL     1       7.436  30.904  58.435  1.00  0.00     0.130 A 
HETATM   26  N   UNL     1       8.648  30.354  58.188  1.00  0.00    -0.272 NA
HETATM   27  C   UNL     1       9.679  30.824  58.923  1.00  0.00     0.116 A 
HETATM   28  C   UNL     1       9.545  31.808  59.891  1.00  0.00     0.020 A 
HETATM   29  C   UNL     1       8.279  32.347  60.126  1.00  0.00     0.017 A 
ENDBRANCH  22  24
ENDBRANCH   3  19
TORSDOF 6
ENDMDL
MODEL 9
REMARK VINA RESULT:      -7.3      2.969      6.954
REMARK  6 active torsions:
REMARK  status: ('A' for Active; 'I' for Inactive)
REMARK    1  A    between atoms: N_2  and  C_4 
REMARK    2  A    between atoms: C_4  and  C_5 
REMARK    3  A    between atoms: C_5  and  N_6 
REMARK    4  A    between atoms: C_5  and  C_21 
REMARK       I    between atoms: N_6  and  C_7 
REMARK       I    between atoms: C_7  and  N_8 
REMARK    5  A    between atoms: N_8  and  C_9 
REMARK    6  A    between atoms: C_12  and  C_13 
ROOT
HETATM    1  N   UNL     1       5.537  27.847  54.607  1.00  0.00    -0.333 N 
HETATM    2  C   UNL     1       4.296  28.256  54.215  1.00  0.00     0.322 C 
HETATM    3  N   UNL     1       3.791  29.382  54.781  1.00  0.00    -0.287 N 
HETATM    4  O   UNL     1       3.658  27.644  53.361  1.00  0.00    -0.247 OA
HETATM    5  H   UNL     1       5.806  28.201  55.523  1.00  0.00     0.165 HD
HETATM    6  H   UNL     1       2.842  29.628  54.533  1.00  0.00     0.172 HD
ENDROOT
BRANCH   1   7
HETATM    7  C   UNL     1       6.052  26.545  54.205  1.00  0.00     0.145 C 
BRANCH   7   8
HETATM    8  C   UNL     1       6.720  26.541  52.790  1.00  0.00     0.263 C 
BRANCH   8   9
HETATM    9  N   UNL     1       5.952  25.730  51.736  1.00  0.00    -0.076 N 
HETATM   10  C   UNL     1       5.277  26.582  50.699  1.00  0.00     0.269 C 
HETATM   11  H   UNL     1       6.641  25.141  51.248  1.00  0.00     0.279 HD
HETATM   12  C   UNL     1       4.975  24.793  52.388  1.00  0.00     0.269 C 
ENDBRANCH   8   9
ENDBRANCH   7   8
BRANCH   7  13
HETATM   13  C   UNL     1       6.994  25.942  55.239  1.00  0.00    -0.034 A 
HETATM   14  C   UNL     1       7.512  24.641  55.126  1.00  0.00     0.009 A 
HETATM   15  C   UNL     1       8.339  24.112  56.118  1.00  0.00     0.001 A 
HETATM   16  C   UNL     1       8.657  24.871  57.241  1.00  0.00     0.000 A 
HETATM   17  C   UNL     1       8.152  26.162  57.371  1.00  0.00     0.001 A 
HETATM   18  C   UNL     1       7.329  26.695  56.379  1.00  0.00     0.009 A 
ENDBRANCH   7  13
ENDBRANCH   1   7
BRANCH   3  19
HETATM   19  C   UNL     1       4.458  30.220  55.627  1.00  0.00     0.175 A 
HETATM   20  S   UNL     1       4.221  31.879  55.334  1.00  0.00    -0.061 SA
HETATM   21  C   UNL     1       5.271  32.235  56.647  1.00  0.00     0.086 A 
HETATM   22  C   UNL     1       5.741  31.060  57.205  1.00  0.00     0.078 A 
HETATM   23  N   UNL     1       5.258  29.897  56.613  1.00  0.00    -0.223 NA
BRANCH  22  24
HETATM   24  C   UNL     1       6.699  30.996  58.295  1.00  0.00     0.011 A 
HETATM   25  C   UNL     1       7.595  29.933  58.363  1.00  0.00     0.130 A 
HETATM   26  N   UNL     1       8.523  29.763  59.335  1.00  0.00    -0.272 NA
HETATM   27  C   UNL     1       8.569  30.717  60.291  1.00  0.00     0.116 A 
HETATM   28  C   UNL     1       7.726  31.818  60.317  1.00  0.00     0.020 A 
HETATM   29  C   UNL     1       6.776  31.957  59.304  1.00  0.00     0.017 A 
ENDBRANCH  22  24
ENDBRANCH   3  19
TORSDOF 6
ENDMDL
MODEL 10
REMARK VINA RESULT:      -7.3      2.631      7.360
REMARK  6 active torsions:
REMARK  status: ('A' for Active; 'I' for Inactive)
REMARK    1  A    between atoms: N_2  and  C_4 
REMARK    2  A    between atoms: C_4  and  C_5 
REMARK    3  A    between atoms: C_5  and  N_6 
REMARK    4  A    between atoms: C_5  and  C_21 
REMARK       I    between atoms: N_6  and  C_7 
REMARK       I    between atoms: C_7  and  N_8 
REMARK    5  A    between atoms: N_8  and  C_9 
REMARK    6  A    between atoms: C_12  and  C_13 
ROOT
HETATM    1  N   UNL     1       6.328  26.938  55.169  1.00  0.00    -0.333 N 
HETATM    2  C   UNL     1       7.315  27.564  54.464  1.00  0.00     0.322 C 
HETATM    3  N   UNL     1       7.680  28.810  54.856  1.00  0.00    -0.287 N 
HETATM    4  O   UNL     1       7.875  27.015  53.519  1.00  0.00    -0.247 OA
HETATM    5  H   UNL     1       5.723  27.583  55.673  1.00  0.00     0.165 HD
HETATM    6  H   UNL     1       8.360  29.286  54.279  1.00  0.00     0.172 HD
ENDROOT
BRANCH   1   7
HETATM    7  C   UNL     1       5.741  25.696  54.683  1.00  0.00     0.145 C 
BRANCH   7   8
HETATM    8  C   UNL     1       4.917  25.862  53.363  1.00  0.00     0.263 C 
BRANCH   8   9
HETATM    9  N   UNL     1       4.888  27.298  52.819  1.00  0.00    -0.076 N 
HETATM   10  C   UNL     1       3.635  28.048  53.172  1.00  0.00     0.269 C 
HETATM   11  H   UNL     1       5.678  27.800  53.249  1.00  0.00     0.279 HD
HETATM   12  C   UNL     1       5.130  27.314  51.336  1.00  0.00     0.269 C 
ENDBRANCH   8   9
ENDBRANCH   7   8
BRANCH   7  13
HETATM   13  C   UNL     1       6.767  24.581  54.533  1.00  0.00    -0.034 A 
HETATM   14  C   UNL     1       7.652  24.220  55.563  1.00  0.00     0.009 A 
HETATM   15  C   UNL     1       8.605  23.219  55.369  1.00  0.00     0.001 A 
HETATM   16  C   UNL     1       8.694  22.567  54.143  1.00  0.00     0.000 A 
HETATM   17  C   UNL     1       7.827  22.911  53.109  1.00  0.00     0.001 A 
HETATM   18  C   UNL     1       6.869  23.908  53.302  1.00  0.00     0.009 A 
ENDBRANCH   7  13
ENDBRANCH   1   7
BRANCH   3  19
HETATM   19  C   UNL     1       7.236  29.461  55.970  1.00  0.00     0.175 A 
HETATM   20  S   UNL     1       5.630  30.015  55.891  1.00  0.00    -0.061 SA
HETATM   21  C   UNL     1       5.799  30.658  57.476  1.00  0.00     0.086 A 
HETATM   22  C   UNL     1       7.078  30.418  57.946  1.00  0.00     0.078 A 
HETATM   23  N   UNL     1       7.901  29.716  57.070  1.00  0.00    -0.223 NA
BRANCH  22  24
HETATM   24  C   UNL     1       7.581  30.881  59.228  1.00  0.00     0.011 A 
HETATM   25  C   UNL     1       6.912  31.899  59.902  1.00  0.00     0.130 A 
HETATM   26  N   UNL     1       7.292  32.417  61.094  1.00  0.00    -0.272 NA
HETATM   27  C   UNL     1       8.398  31.882  61.654  1.00  0.00     0.116 A 
HETATM   28  C   UNL     1       9.137  30.864  61.070  1.00  0.00     0.020 A 
HETATM   29  C   UNL     1       8.722  30.359  59.837  1.00  0.00     0.017 A 
ENDBRANCH  22  24
ENDBRANCH   3  19
TORSDOF 6
ENDMDL
