MODEL 1
REMARK VINA RESULT:     -11.7      0.000      0.000
REMARK  7 active torsions:
REMARK  status: ('A' for Active; 'I' for Inactive)
REMARK    1  A    between atoms: N_8  and  C_9 
REMARK    2  A    between atoms: C_9  and  C_10 
REMARK    3  A    between atoms: C_13  and  C_14 
REMARK       I    between atoms: C_14  and  N_15 
REMARK    4  A    between atoms: N_15  and  N_16 
REMARK    5  A    between atoms: C_17  and  C_18 
REMARK    6  A    between atoms: C_19  and  O_20 
REMARK    7  A    between atoms: C_22  and  O_23 
ROOT
HETATM    1  C   UNL     1       7.319  28.403  55.525  1.00  0.00    -0.040 A 
HETATM    2  C   UNL     1       6.316  28.590  56.486  1.00  0.00     0.010 A 
HETATM    3  C   UNL     1       6.603  29.215  57.702  1.00  0.00     0.017 A 
HETATM    4  C   UNL     1       7.899  29.666  57.980  1.00  0.00     0.033 A 
HETATM    5  C   UNL     1       8.900  29.503  57.015  1.00  0.00     0.017 A 
HETATM    6  C   UNL     1       8.612  28.871  55.800  1.00  0.00     0.010 A 
ENDROOT
BRANCH   4   7
HETATM    7  C   UNL     1       8.142  30.349  59.285  1.00  0.00     0.271 C 
HETATM    8  N   UNL     1       7.153  31.223  59.714  1.00  0.00    -0.243 N 
HETATM    9  H   UNL     1       6.366  31.461  59.125  1.00  0.00     0.192 HD
HETATM   10  O   UNL     1       9.185  30.131  59.897  1.00  0.00    -0.266 OA
BRANCH   8  11
HETATM   11  N   UNL     1       7.299  31.843  60.917  1.00  0.00    -0.183 NA
HETATM   12  C   UNL     1       6.231  31.952  61.640  1.00  0.00     0.153 C 
BRANCH  12  13
HETATM   13  C   UNL     1       6.288  32.596  62.968  1.00  0.00     0.016 A 
HETATM   14  C   UNL     1       5.129  32.937  63.680  1.00  0.00     0.080 A 
HETATM   15  C   UNL     1       5.224  33.551  64.927  1.00  0.00     0.074 A 
HETATM   16  C   UNL     1       6.481  33.827  65.456  1.00  0.00     0.068 A 
HETATM   17  C   UNL     1       7.639  33.495  64.760  1.00  0.00     0.037 A 
HETATM   18  C   UNL     1       7.547  32.877  63.511  1.00  0.00     0.018 A 
BRANCH  14  19
HETATM   19  O   UNL     1       3.863  32.698  63.219  1.00  0.00    -0.360 OA
HETATM   20  H   UNL     1       3.222  33.192  63.782  1.00  0.00     0.217 HD
ENDBRANCH  14  19
BRANCH  16  21
HETATM   21  O   UNL     1       6.623  34.431  66.670  1.00  0.00    -0.361 OA
HETATM   22  H   UNL     1       6.062  35.225  66.687  1.00  0.00     0.217 HD
ENDBRANCH  16  21
ENDBRANCH  12  13
ENDBRANCH   8  11
ENDBRANCH   4   7
BRANCH   1  23
HETATM   23  C   UNL     1       6.994  27.748  54.201  1.00  0.00     0.171 C 
BRANCH  23  24
HETATM   24  N   UNL     1       7.299  26.337  54.190  1.00  0.00    -0.309 N 
HETATM   25  C   UNL     1       7.693  25.567  55.287  1.00  0.00     0.050 A 
HETATM   26  C   UNL     1       7.918  24.291  54.822  1.00  0.00     0.017 A 
HETATM   27  C   UNL     1       7.858  25.870  56.630  1.00  0.00     0.031 A 
HETATM   28  C   UNL     1       7.670  24.252  53.463  1.00  0.00     0.045 A 
HETATM   29  C   UNL     1       8.316  23.236  55.588  1.00  0.00    -0.023 A 
HETATM   30  C   UNL     1       7.831  23.054  52.771  1.00  0.00     0.018 A 
HETATM   31  C   UNL     1       7.262  25.565  53.003  1.00  0.00     0.259 A 
HETATM   32  C   UNL     1       8.244  21.936  53.524  1.00  0.00     0.002 A 
HETATM   33  C   UNL     1       8.485  22.014  54.912  1.00  0.00     0.012 A 
HETATM   34  O   UNL     1       6.942  25.969  51.892  1.00  0.00    -0.267 OA
HETATM   35  C   UNL     1       8.502  23.507  56.957  1.00  0.00     0.012 A 
HETATM   36  C   UNL     1       8.273  24.807  57.460  1.00  0.00     0.003 A 
ENDBRANCH  23  24
ENDBRANCH   1  23
TORSDOF 7
ENDMDL
MODEL 2
REMARK VINA RESULT:     -11.6      2.446     11.166
REMARK  7 active torsions:
REMARK  status: ('A' for Active; 'I' for Inactive)
REMARK    1  A    between atoms: N_8  and  C_9 
REMARK    2  A    between atoms: C_9  and  C_10 
REMARK    3  A    between atoms: C_13  and  C_14 
REMARK       I    between atoms: C_14  and  N_15 
REMARK    4  A    between atoms: N_15  and  N_16 
REMARK    5  A    between atoms: C_17  and  C_18 
REMARK    6  A    between atoms: C_19  and  O_20 
REMARK    7  A    between atoms: C_22  and  O_23 
ROOT
HETATM    1  C   UNL     1       6.407  31.048  58.243  1.00  0.00    -0.040 A 
HETATM    2  C   UNL     1       7.673  30.484  58.457  1.00  0.00     0.010 A 
HETATM    3  C   UNL     1       7.911  29.139  58.166  1.00  0.00     0.017 A 
HETATM    4  C   UNL     1       6.888  28.331  57.656  1.00  0.00     0.033 A 
HETATM    5  C   UNL     1       5.628  28.893  57.418  1.00  0.00     0.017 A 
HETATM    6  C   UNL     1       5.390  30.239  57.715  1.00  0.00     0.010 A 
ENDROOT
BRANCH   4   7
HETATM    7  C   UNL     1       7.206  26.907  57.341  1.00  0.00     0.271 C 
HETATM    8  N   UNL     1       6.304  26.245  56.519  1.00  0.00    -0.243 N 
HETATM    9  H   UNL     1       5.431  26.672  56.240  1.00  0.00     0.192 HD
HETATM   10  O   UNL     1       8.211  26.390  57.822  1.00  0.00    -0.266 OA
BRANCH   8  11
HETATM   11  N   UNL     1       6.562  24.957  56.161  1.00  0.00    -0.183 NA
HETATM   12  C   UNL     1       7.368  24.790  55.161  1.00  0.00     0.153 C 
BRANCH  12  13
HETATM   13  C   UNL     1       7.722  23.431  54.705  1.00  0.00     0.016 A 
HETATM   14  C   UNL     1       8.148  22.434  55.595  1.00  0.00     0.080 A 
HETATM   15  C   UNL     1       8.481  21.166  55.125  1.00  0.00     0.074 A 
HETATM   16  C   UNL     1       8.392  20.900  53.762  1.00  0.00     0.068 A 
HETATM   17  C   UNL     1       7.971  21.879  52.867  1.00  0.00     0.037 A 
HETATM   18  C   UNL     1       7.633  23.151  53.337  1.00  0.00     0.018 A 
BRANCH  14  19
HETATM   19  O   UNL     1       8.263  22.628  56.945  1.00  0.00    -0.360 OA
HETATM   20  H   UNL     1       7.710  23.402  57.202  1.00  0.00     0.217 HD
ENDBRANCH  14  19
BRANCH  16  21
HETATM   21  O   UNL     1       8.712  19.675  53.256  1.00  0.00    -0.361 OA
HETATM   22  H   UNL     1       9.548  19.753  52.766  1.00  0.00     0.217 HD
ENDBRANCH  16  21
ENDBRANCH  12  13
ENDBRANCH   8  11
ENDBRANCH   4   7
BRANCH   1  23
HETATM   23  C   UNL     1       6.165  32.512  58.535  1.00  0.00     0.171 C 
BRANCH  23  24
HETATM   24  N   UNL     1       5.897  32.762  59.932  1.00  0.00    -0.309 N 
HETATM   25  C   UNL     1       6.815  32.662  60.981  1.00  0.00     0.050 A 
HETATM   26  C   UNL     1       6.130  32.946  62.141  1.00  0.00     0.017 A 
HETATM   27  C   UNL     1       8.168  32.364  61.014  1.00  0.00     0.031 A 
HETATM   28  C   UNL     1       4.810  33.221  61.835  1.00  0.00     0.045 A 
HETATM   29  C   UNL     1       6.675  32.957  63.391  1.00  0.00    -0.023 A 
HETATM   30  C   UNL     1       3.921  33.539  62.859  1.00  0.00     0.018 A 
HETATM   31  C   UNL     1       4.609  33.114  60.403  1.00  0.00     0.259 A 
HETATM   32  C   UNL     1       4.441  33.561  64.168  1.00  0.00     0.002 A 
HETATM   33  C   UNL     1       5.796  33.277  64.442  1.00  0.00     0.012 A 
HETATM   34  O   UNL     1       3.612  33.284  59.712  1.00  0.00    -0.267 OA
HETATM   35  C   UNL     1       8.047  32.651  63.465  1.00  0.00     0.012 A 
HETATM   36  C   UNL     1       8.773  32.361  62.289  1.00  0.00     0.003 A 
ENDBRANCH  23  24
ENDBRANCH   1  23
TORSDOF 7
ENDMDL
MODEL 3
REMARK VINA RESULT:     -11.0      2.365     11.265
REMARK  7 active torsions:
REMARK  status: ('A' for Active; 'I' for Inactive)
REMARK    1  A    between atoms: N_8  and  C_9 
REMARK    2  A    between atoms: C_9  and  C_10 
REMARK    3  A    between atoms: C_13  and  C_14 
REMARK       I    between atoms: C_14  and  N_15 
REMARK    4  A    between atoms: N_15  and  N_16 
REMARK    5  A    between atoms: C_17  and  C_18 
REMARK    6  A    between atoms: C_19  and  O_20 
REMARK    7  A    between atoms: C_22  and  O_23 
ROOT
HETATM    1  C   UNL     1       6.025  31.318  58.279  1.00  0.00    -0.040 A 
HETATM    2  C   UNL     1       4.825  30.655  57.986  1.00  0.00     0.010 A 
HETATM    3  C   UNL     1       4.834  29.333  57.533  1.00  0.00     0.017 A 
HETATM    4  C   UNL     1       6.043  28.649  57.364  1.00  0.00     0.033 A 
HETATM    5  C   UNL     1       7.244  29.298  57.676  1.00  0.00     0.017 A 
HETATM    6  C   UNL     1       7.233  30.623  58.124  1.00  0.00     0.010 A 
ENDROOT
BRANCH   4   7
HETATM    7  C   UNL     1       5.992  27.231  56.901  1.00  0.00     0.271 C 
HETATM    8  N   UNL     1       7.215  26.591  56.749  1.00  0.00    -0.243 N 
HETATM    9  H   UNL     1       8.089  27.091  56.845  1.00  0.00     0.192 HD
HETATM   10  O   UNL     1       4.905  26.711  56.663  1.00  0.00    -0.266 OA
BRANCH   8  11
HETATM   11  N   UNL     1       7.230  25.283  56.372  1.00  0.00    -0.183 NA
HETATM   12  C   UNL     1       7.817  25.016  55.249  1.00  0.00     0.153 C 
BRANCH  12  13
HETATM   13  C   UNL     1       7.899  23.626  54.759  1.00  0.00     0.016 A 
HETATM   14  C   UNL     1       8.124  22.544  55.623  1.00  0.00     0.080 A 
HETATM   15  C   UNL     1       8.203  21.247  55.121  1.00  0.00     0.074 A 
HETATM   16  C   UNL     1       8.061  21.036  53.753  1.00  0.00     0.068 A 
HETATM   17  C   UNL     1       7.838  22.100  52.884  1.00  0.00     0.037 A 
HETATM   18  C   UNL     1       7.756  23.402  53.385  1.00  0.00     0.018 A 
BRANCH  14  19
HETATM   19  O   UNL     1       8.276  22.679  56.976  1.00  0.00    -0.360 OA
HETATM   20  H   UNL     1       7.651  23.369  57.298  1.00  0.00     0.217 HD
ENDBRANCH  14  19
BRANCH  16  21
HETATM   21  O   UNL     1       8.135  19.785  53.216  1.00  0.00    -0.361 OA
HETATM   22  H   UNL     1       7.871  19.142  53.896  1.00  0.00     0.217 HD
ENDBRANCH  16  21
ENDBRANCH  12  13
ENDBRANCH   8  11
ENDBRANCH   4   7
BRANCH   1  23
HETATM   23  C   UNL     1       6.005  32.740  58.793  1.00  0.00     0.171 C 
BRANCH  23  24
HETATM   24  N   UNL     1       6.179  32.814  60.225  1.00  0.00    -0.309 N 
HETATM   25  C   UNL     1       5.178  33.062  61.168  1.00  0.00     0.050 A 
HETATM   26  C   UNL     1       5.787  33.086  62.402  1.00  0.00     0.017 A 
HETATM   27  C   UNL     1       3.810  33.251  61.051  1.00  0.00     0.031 A 
HETATM   28  C   UNL     1       7.142  32.859  62.246  1.00  0.00     0.045 A 
HETATM   29  C   UNL     1       5.148  33.297  63.588  1.00  0.00    -0.023 A 
HETATM   30  C   UNL     1       7.967  32.837  63.368  1.00  0.00     0.018 A 
HETATM   31  C   UNL     1       7.446  32.674  60.840  1.00  0.00     0.259 A 
HETATM   32  C   UNL     1       7.349  33.052  64.616  1.00  0.00     0.002 A 
HETATM   33  C   UNL     1       5.961  33.280  64.736  1.00  0.00     0.012 A 
HETATM   34  O   UNL     1       8.503  32.441  60.266  1.00  0.00    -0.267 OA
HETATM   35  C   UNL     1       3.758  33.502  63.508  1.00  0.00     0.012 A 
HETATM   36  C   UNL     1       3.108  33.476  62.255  1.00  0.00     0.003 A 
ENDBRANCH  23  24
ENDBRANCH   1  23
TORSDOF 7
ENDMDL
MODEL 4
REMARK VINA RESULT:     -10.7      1.606      1.676
REMARK  7 active torsions:
REMARK  status: ('A' for Active; 'I' for Inactive)
REMARK    1  A    between atoms: N_8  and  C_9 
REMARK    2  A    between atoms: C_9  and  C_10 
REMARK    3  A    between atoms: C_13  and  C_14 
REMARK       I    between atoms: C_14  and  N_15 
REMARK    4  A    between atoms: N_15  and  N_16 
REMARK    5  A    between atoms: C_17  and  C_18 
REMARK    6  A    between atoms: C_19  and  O_20 
REMARK    7  A    between atoms: C_22  and  O_23 
ROOT
HETATM    1  C   UNL     1       5.641  27.951  55.336  1.00  0.00    -0.040 A 
HETATM    2  C   UNL     1       4.775  28.214  56.407  1.00  0.00     0.010 A 
HETATM    3  C   UNL     1       5.096  29.185  57.359  1.00  0.00     0.017 A 
HETATM    4  C   UNL     1       6.289  29.911  57.259  1.00  0.00     0.033 A 
HETATM    5  C   UNL     1       7.147  29.669  56.179  1.00  0.00     0.017 A 
HETATM    6  C   UNL     1       6.827  28.693  55.230  1.00  0.00     0.010 A 
ENDROOT
BRANCH   4   7
HETATM    7  C   UNL     1       6.568  30.953  58.290  1.00  0.00     0.271 C 
HETATM    8  N   UNL     1       5.504  31.306  59.110  1.00  0.00    -0.243 N 
HETATM    9  H   UNL     1       4.571  30.953  58.946  1.00  0.00     0.192 HD
HETATM   10  O   UNL     1       7.688  31.454  58.357  1.00  0.00    -0.266 OA
BRANCH   8  11
HETATM   11  N   UNL     1       5.709  32.219  60.098  1.00  0.00    -0.183 NA
HETATM   12  C   UNL     1       4.679  32.528  60.818  1.00  0.00     0.153 C 
BRANCH  12  13
HETATM   13  C   UNL     1       4.802  33.499  61.924  1.00  0.00     0.016 A 
HETATM   14  C   UNL     1       3.782  33.686  62.868  1.00  0.00     0.080 A 
HETATM   15  C   UNL     1       3.932  34.617  63.892  1.00  0.00     0.074 A 
HETATM   16  C   UNL     1       5.103  35.365  63.967  1.00  0.00     0.068 A 
HETATM   17  C   UNL     1       6.123  35.191  63.036  1.00  0.00     0.037 A 
HETATM   18  C   UNL     1       5.977  34.255  62.010  1.00  0.00     0.018 A 
BRANCH  14  19
HETATM   19  O   UNL     1       2.604  32.988  62.853  1.00  0.00    -0.360 OA
HETATM   20  H   UNL     1       1.943  33.472  63.401  1.00  0.00     0.217 HD
ENDBRANCH  14  19
BRANCH  16  21
HETATM   21  O   UNL     1       5.292  36.291  64.948  1.00  0.00    -0.361 OA
HETATM   22  H   UNL     1       6.242  36.337  65.150  1.00  0.00     0.217 HD
ENDBRANCH  16  21
ENDBRANCH  12  13
ENDBRANCH   8  11
ENDBRANCH   4   7
BRANCH   1  23
HETATM   23  C   UNL     1       5.274  26.917  54.295  1.00  0.00     0.171 C 
BRANCH  23  24
HETATM   24  N   UNL     1       6.158  25.775  54.312  1.00  0.00    -0.309 N 
HETATM   25  C   UNL     1       6.928  25.340  55.394  1.00  0.00     0.050 A 
HETATM   26  C   UNL     1       7.647  24.249  54.962  1.00  0.00     0.017 A 
HETATM   27  C   UNL     1       7.047  25.795  56.698  1.00  0.00     0.031 A 
HETATM   28  C   UNL     1       7.339  23.996  53.639  1.00  0.00     0.045 A 
HETATM   29  C   UNL     1       8.519  23.531  55.726  1.00  0.00    -0.023 A 
HETATM   30  C   UNL     1       7.950  22.928  52.985  1.00  0.00     0.018 A 
HETATM   31  C   UNL     1       6.369  24.966  53.169  1.00  0.00     0.259 A 
HETATM   32  C   UNL     1       8.861  22.160  53.737  1.00  0.00     0.002 A 
HETATM   33  C   UNL     1       9.149  22.447  55.088  1.00  0.00     0.012 A 
HETATM   34  O   UNL     1       5.823  25.102  52.081  1.00  0.00    -0.267 OA
HETATM   35  C   UNL     1       8.672  23.968  57.056  1.00  0.00     0.012 A 
HETATM   36  C   UNL     1       7.942  25.082  57.525  1.00  0.00     0.003 A 
ENDBRANCH  23  24
ENDBRANCH   1  23
TORSDOF 7
ENDMDL
MODEL 5
REMARK VINA RESULT:     -10.4      2.546      3.868
REMARK  7 active torsions:
REMARK  status: ('A' for Active; 'I' for Inactive)
REMARK    1  A    between atoms: N_8  and  C_9 
REMARK    2  A    between atoms: C_9  and  C_10 
REMARK    3  A    between atoms: C_13  and  C_14 
REMARK       I    between atoms: C_14  and  N_15 
REMARK    4  A    between atoms: N_15  and  N_16 
REMARK    5  A    between atoms: C_17  and  C_18 
REMARK    6  A    between atoms: C_19  and  O_20 
REMARK    7  A    between atoms: C_22  and  O_23 
ROOT
HETATM    1  C   UNL     1       4.704  31.219  56.884  1.00  0.00    -0.040 A 
HETATM    2  C   UNL     1       5.400  32.292  57.459  1.00  0.00     0.010 A 
HETATM    3  C   UNL     1       5.125  32.699  58.767  1.00  0.00     0.017 A 
HETATM    4  C   UNL     1       4.149  32.043  59.525  1.00  0.00     0.033 A 
HETATM    5  C   UNL     1       3.465  30.957  58.965  1.00  0.00     0.017 A 
HETATM    6  C   UNL     1       3.738  30.553  57.653  1.00  0.00     0.010 A 
ENDROOT
BRANCH   4   7
HETATM    7  C   UNL     1       3.914  32.505  60.925  1.00  0.00     0.271 C 
HETATM    8  N   UNL     1       4.694  31.909  61.906  1.00  0.00    -0.243 N 
HETATM    9  H   UNL     1       5.308  31.133  61.695  1.00  0.00     0.192 HD
HETATM   10  O   UNL     1       3.054  33.354  61.146  1.00  0.00    -0.266 OA
BRANCH   8  11
HETATM   11  N   UNL     1       4.556  32.320  63.197  1.00  0.00    -0.183 NA
HETATM   12  C   UNL     1       5.447  33.151  63.633  1.00  0.00     0.153 C 
BRANCH  12  13
HETATM   13  C   UNL     1       5.377  33.668  65.015  1.00  0.00     0.016 A 
HETATM   14  C   UNL     1       4.174  34.113  65.583  1.00  0.00     0.080 A 
HETATM   15  C   UNL     1       4.150  34.600  66.887  1.00  0.00     0.074 A 
HETATM   16  C   UNL     1       5.332  34.646  67.619  1.00  0.00     0.068 A 
HETATM   17  C   UNL     1       6.533  34.208  67.068  1.00  0.00     0.037 A 
HETATM   18  C   UNL     1       6.559  33.716  65.761  1.00  0.00     0.018 A 
BRANCH  14  19
HETATM   19  O   UNL     1       2.977  34.100  64.919  1.00  0.00    -0.360 OA
HETATM   20  H   UNL     1       2.274  33.798  65.540  1.00  0.00     0.217 HD
ENDBRANCH  14  19
BRANCH  16  21
HETATM   21  O   UNL     1       5.357  35.119  68.897  1.00  0.00    -0.361 OA
HETATM   22  H   UNL     1       6.162  35.652  69.013  1.00  0.00     0.217 HD
ENDBRANCH  16  21
ENDBRANCH  12  13
ENDBRANCH   8  11
ENDBRANCH   4   7
BRANCH   1  23
HETATM   23  C   UNL     1       5.026  30.767  55.477  1.00  0.00     0.171 C 
BRANCH  23  24
HETATM   24  N   UNL     1       5.423  29.381  55.417  1.00  0.00    -0.309 N 
HETATM   25  C   UNL     1       6.512  28.803  56.076  1.00  0.00     0.050 A 
HETATM   26  C   UNL     1       6.545  27.477  55.708  1.00  0.00     0.017 A 
HETATM   27  C   UNL     1       7.449  29.316  56.959  1.00  0.00     0.031 A 
HETATM   28  C   UNL     1       5.502  27.219  54.839  1.00  0.00     0.045 A 
HETATM   29  C   UNL     1       7.462  26.566  56.142  1.00  0.00    -0.023 A 
HETATM   30  C   UNL     1       5.335  25.932  54.332  1.00  0.00     0.018 A 
HETATM   31  C   UNL     1       4.740  28.432  54.618  1.00  0.00     0.259 A 
HETATM   32  C   UNL     1       6.262  24.958  54.752  1.00  0.00     0.002 A 
HETATM   33  C   UNL     1       7.313  25.258  55.644  1.00  0.00     0.012 A 
HETATM   34  O   UNL     1       3.744  28.649  53.938  1.00  0.00    -0.267 OA
HETATM   35  C   UNL     1       8.436  27.052  57.035  1.00  0.00     0.012 A 
HETATM   36  C   UNL     1       8.420  28.407  57.431  1.00  0.00     0.003 A 
ENDBRANCH  23  24
ENDBRANCH   1  23
TORSDOF 7
ENDMDL
MODEL 6
REMARK VINA RESULT:     -10.3      2.521     10.972
REMARK  7 active torsions:
REMARK  status: ('A' for Active; 'I' for Inactive)
REMARK    1  A    between atoms: N_8  and  C_9 
REMARK    2  A    between atoms: C_9  and  C_10 
REMARK    3  A    between atoms: C_13  and  C_14 
REMARK       I    between atoms: C_14  and  N_15 
REMARK    4  A    between atoms: N_15  and  N_16 
REMARK    5  A    between atoms: C_17  and  C_18 
REMARK    6  A    between atoms: C_19  and  O_20 
REMARK    7  A    between atoms: C_22  and  O_23 
ROOT
HETATM    1  C   UNL     1       4.696  32.348  58.413  1.00  0.00    -0.040 A 
HETATM    2  C   UNL     1       3.915  31.256  58.816  1.00  0.00     0.010 A 
HETATM    3  C   UNL     1       4.003  30.032  58.147  1.00  0.00     0.017 A 
HETATM    4  C   UNL     1       4.875  29.877  57.063  1.00  0.00     0.033 A 
HETATM    5  C   UNL     1       5.675  30.957  56.670  1.00  0.00     0.017 A 
HETATM    6  C   UNL     1       5.581  32.183  57.337  1.00  0.00     0.010 A 
ENDROOT
BRANCH   4   7
HETATM    7  C   UNL     1       4.946  28.541  56.402  1.00  0.00     0.271 C 
HETATM    8  N   UNL     1       5.972  27.704  56.820  1.00  0.00    -0.243 N 
HETATM    9  H   UNL     1       6.689  28.024  57.458  1.00  0.00     0.192 HD
HETATM   10  O   UNL     1       4.132  28.253  55.528  1.00  0.00    -0.266 OA
BRANCH   8  11
HETATM   11  N   UNL     1       6.063  26.455  56.285  1.00  0.00    -0.183 NA
HETATM   12  C   UNL     1       7.092  26.226  55.534  1.00  0.00     0.153 C 
BRANCH  12  13
HETATM   13  C   UNL     1       7.287  24.898  54.917  1.00  0.00     0.016 A 
HETATM   14  C   UNL     1       7.472  23.740  55.687  1.00  0.00     0.080 A 
HETATM   15  C   UNL     1       7.661  22.506  55.068  1.00  0.00     0.074 A 
HETATM   16  C   UNL     1       7.671  22.436  53.679  1.00  0.00     0.068 A 
HETATM   17  C   UNL     1       7.489  23.577  52.903  1.00  0.00     0.037 A 
HETATM   18  C   UNL     1       7.296  24.815  53.521  1.00  0.00     0.018 A 
BRANCH  14  19
HETATM   19  O   UNL     1       7.478  23.737  57.056  1.00  0.00    -0.360 OA
HETATM   20  H   UNL     1       7.820  24.605  57.372  1.00  0.00     0.217 HD
ENDBRANCH  14  19
BRANCH  16  21
HETATM   21  O   UNL     1       7.857  21.252  53.029  1.00  0.00    -0.361 OA
HETATM   22  H   UNL     1       7.027  21.010  52.586  1.00  0.00     0.217 HD
ENDBRANCH  16  21
ENDBRANCH  12  13
ENDBRANCH   8  11
ENDBRANCH   4   7
BRANCH   1  23
HETATM   23  C   UNL     1       4.613  33.661  59.159  1.00  0.00     0.171 C 
BRANCH  23  24
HETATM   24  N   UNL     1       5.206  33.591  60.473  1.00  0.00    -0.309 N 
HETATM   25  C   UNL     1       6.437  33.013  60.797  1.00  0.00     0.050 A 
HETATM   26  C   UNL     1       6.590  33.132  62.159  1.00  0.00     0.017 A 
HETATM   27  C   UNL     1       7.421  32.417  60.023  1.00  0.00     0.031 A 
HETATM   28  C   UNL     1       5.484  33.771  62.688  1.00  0.00     0.045 A 
HETATM   29  C   UNL     1       7.668  32.692  62.869  1.00  0.00    -0.023 A 
HETATM   30  C   UNL     1       5.418  34.004  64.060  1.00  0.00     0.018 A 
HETATM   31  C   UNL     1       4.551  34.092  61.625  1.00  0.00     0.259 A 
HETATM   32  C   UNL     1       6.510  33.563  64.833  1.00  0.00     0.002 A 
HETATM   33  C   UNL     1       7.624  32.916  64.257  1.00  0.00     0.012 A 
HETATM   34  O   UNL     1       3.466  34.659  61.646  1.00  0.00    -0.267 OA
HETATM   35  C   UNL     1       8.685  32.073  62.118  1.00  0.00     0.012 A 
HETATM   36  C   UNL     1       8.554  31.943  60.718  1.00  0.00     0.003 A 
ENDBRANCH  23  24
ENDBRANCH   1  23
TORSDOF 7
ENDMDL
MODEL 7
REMARK VINA RESULT:     -10.2      1.564      2.056
REMARK  7 active torsions:
REMARK  status: ('A' for Active; 'I' for Inactive)
REMARK    1  A    between atoms: N_8  and  C_9 
REMARK    2  A    between atoms: C_9  and  C_10 
REMARK    3  A    between atoms: C_13  and  C_14 
REMARK       I    between atoms: C_14  and  N_15 
REMARK    4  A    between atoms: N_15  and  N_16 
REMARK    5  A    between atoms: C_17  and  C_18 
REMARK    6  A    between atoms: C_19  and  O_20 
REMARK    7  A    between atoms: C_22  and  O_23 
ROOT
HETATM    1  C   UNL     1       8.660  29.397  56.297  1.00  0.00    -0.040 A 
HETATM    2  C   UNL     1       7.428  29.566  56.944  1.00  0.00     0.010 A 
HETATM    3  C   UNL     1       7.375  29.975  58.279  1.00  0.00     0.017 A 
HETATM    4  C   UNL     1       8.553  30.222  58.993  1.00  0.00     0.033 A 
HETATM    5  C   UNL     1       9.786  30.078  58.347  1.00  0.00     0.017 A 
HETATM    6  C   UNL     1       9.838  29.663  57.011  1.00  0.00     0.010 A 
ENDROOT
BRANCH   4   7
HETATM    7  C   UNL     1       8.436  30.680  60.409  1.00  0.00     0.271 C 
HETATM    8  N   UNL     1       7.172  31.083  60.821  1.00  0.00    -0.243 N 
HETATM    9  H   UNL     1       6.403  31.161  60.168  1.00  0.00     0.192 HD
HETATM   10  O   UNL     1       9.435  30.699  61.124  1.00  0.00    -0.266 OA
BRANCH   8  11
HETATM   11  N   UNL     1       6.994  31.470  62.114  1.00  0.00    -0.183 NA
HETATM   12  C   UNL     1       6.390  32.600  62.297  1.00  0.00     0.153 C 
BRANCH  12  13
HETATM   13  C   UNL     1       6.137  33.101  63.663  1.00  0.00     0.016 A 
HETATM   14  C   UNL     1       4.845  33.401  64.118  1.00  0.00     0.080 A 
HETATM   15  C   UNL     1       4.647  33.879  65.411  1.00  0.00     0.074 A 
HETATM   16  C   UNL     1       5.746  34.061  66.245  1.00  0.00     0.068 A 
HETATM   17  C   UNL     1       7.034  33.768  65.807  1.00  0.00     0.037 A 
HETATM   18  C   UNL     1       7.235  33.286  64.511  1.00  0.00     0.018 A 
BRANCH  14  19
HETATM   19  O   UNL     1       3.721  33.249  63.351  1.00  0.00    -0.360 OA
HETATM   20  H   UNL     1       3.289  34.129  63.245  1.00  0.00     0.217 HD
ENDBRANCH  14  19
BRANCH  16  21
HETATM   21  O   UNL     1       5.601  34.531  67.517  1.00  0.00    -0.361 OA
HETATM   22  H   UNL     1       5.415  35.484  67.474  1.00  0.00     0.217 HD
ENDBRANCH  16  21
ENDBRANCH  12  13
ENDBRANCH   8  11
ENDBRANCH   4   7
BRANCH   1  23
HETATM   23  C   UNL     1       8.708  28.980  54.844  1.00  0.00     0.171 C 
BRANCH  23  24
HETATM   24  N   UNL     1       7.758  27.938  54.534  1.00  0.00    -0.309 N 
HETATM   25  C   UNL     1       7.645  26.703  55.179  1.00  0.00     0.050 A 
HETATM   26  C   UNL     1       6.642  26.008  54.541  1.00  0.00     0.017 A 
HETATM   27  C   UNL     1       8.316  26.147  56.257  1.00  0.00     0.031 A 
HETATM   28  C   UNL     1       6.131  26.784  53.518  1.00  0.00     0.045 A 
HETATM   29  C   UNL     1       6.222  24.755  54.874  1.00  0.00    -0.023 A 
HETATM   30  C   UNL     1       5.097  26.283  52.729  1.00  0.00     0.018 A 
HETATM   31  C   UNL     1       6.827  28.055  53.474  1.00  0.00     0.259 A 
HETATM   32  C   UNL     1       4.632  24.989  53.037  1.00  0.00     0.002 A 
HETATM   33  C   UNL     1       5.178  24.228  54.092  1.00  0.00     0.012 A 
HETATM   34  O   UNL     1       6.688  29.028  52.743  1.00  0.00    -0.267 OA
HETATM   35  C   UNL     1       6.885  24.154  55.961  1.00  0.00     0.012 A 
HETATM   36  C   UNL     1       7.914  24.848  56.635  1.00  0.00     0.003 A 
ENDBRANCH  23  24
ENDBRANCH   1  23
TORSDOF 7
ENDMDL
MODEL 8
REMARK VINA RESULT:     -10.0      1.981      3.007
REMARK  7 active torsions:
REMARK  status: ('A' for Active; 'I' for Inactive)
REMARK    1  A    between atoms: N_8  and  C_9 
REMARK    2  A    between atoms: C_9  and  C_10 
REMARK    3  A    between atoms: C_13  and  C_14 
REMARK       I    between atoms: C_14  and  N_15 
REMARK    4  A    between atoms: N_15  and  N_16 
REMARK    5  A    between atoms: C_17  and  C_18 
REMARK    6  A    between atoms: C_19  and  O_20 
REMARK    7  A    between atoms: C_22  and  O_23 
ROOT
HETATM    1  C   UNL     1       6.739  28.876  55.683  1.00  0.00    -0.040 A 
HETATM    2  C   UNL     1       5.352  28.735  55.829  1.00  0.00     0.010 A 
HETATM    3  C   UNL     1       4.665  29.443  56.820  1.00  0.00     0.017 A 
HETATM    4  C   UNL     1       5.353  30.304  57.682  1.00  0.00     0.033 A 
HETATM    5  C   UNL     1       6.735  30.467  57.527  1.00  0.00     0.017 A 
HETATM    6  C   UNL     1       7.422  29.753  56.539  1.00  0.00     0.010 A 
ENDROOT
BRANCH   4   7
HETATM    7  C   UNL     1       4.565  31.053  58.705  1.00  0.00     0.271 C 
HETATM    8  N   UNL     1       5.288  31.600  59.757  1.00  0.00    -0.243 N 
HETATM    9  H   UNL     1       6.274  31.410  59.875  1.00  0.00     0.192 HD
HETATM   10  O   UNL     1       3.345  31.137  58.588  1.00  0.00    -0.266 OA
BRANCH   8  11
HETATM   11  N   UNL     1       4.630  32.332  60.698  1.00  0.00    -0.183 NA
HETATM   12  C   UNL     1       5.287  32.599  61.780  1.00  0.00     0.153 C 
BRANCH  12  13
HETATM   13  C   UNL     1       4.666  33.398  62.855  1.00  0.00     0.016 A 
HETATM   14  C   UNL     1       3.729  34.407  62.586  1.00  0.00     0.080 A 
HETATM   15  C   UNL     1       3.170  35.145  63.627  1.00  0.00     0.074 A 
HETATM   16  C   UNL     1       3.556  34.875  64.937  1.00  0.00     0.068 A 
HETATM   17  C   UNL     1       4.485  33.877  65.218  1.00  0.00     0.037 A 
HETATM   18  C   UNL     1       5.044  33.134  64.176  1.00  0.00     0.018 A 
BRANCH  14  19
HETATM   19  O   UNL     1       3.308  34.727  61.324  1.00  0.00    -0.360 OA
HETATM   20  H   UNL     1       3.511  33.975  60.721  1.00  0.00     0.217 HD
ENDBRANCH  14  19
BRANCH  16  21
HETATM   21  O   UNL     1       3.040  35.574  65.987  1.00  0.00    -0.361 OA
HETATM   22  H   UNL     1       2.228  35.129  66.284  1.00  0.00     0.217 HD
ENDBRANCH  16  21
ENDBRANCH  12  13
ENDBRANCH   8  11
ENDBRANCH   4   7
BRANCH   1  23
HETATM   23  C   UNL     1       7.471  28.126  54.592  1.00  0.00     0.171 C 
BRANCH  23  24
HETATM   24  N   UNL     1       7.644  26.726  54.901  1.00  0.00    -0.309 N 
HETATM   25  C   UNL     1       7.603  25.667  53.989  1.00  0.00     0.050 A 
HETATM   26  C   UNL     1       7.775  24.509  54.713  1.00  0.00     0.017 A 
HETATM   27  C   UNL     1       7.446  25.625  52.613  1.00  0.00     0.031 A 
HETATM   28  C   UNL     1       7.922  24.825  56.051  1.00  0.00     0.045 A 
HETATM   29  C   UNL     1       7.800  23.252  54.186  1.00  0.00    -0.023 A 
HETATM   30  C   UNL     1       8.112  23.805  56.980  1.00  0.00     0.018 A 
HETATM   31  C   UNL     1       7.845  26.263  56.224  1.00  0.00     0.259 A 
HETATM   32  C   UNL     1       8.142  22.488  56.479  1.00  0.00     0.002 A 
HETATM   33  C   UNL     1       7.991  22.203  55.105  1.00  0.00     0.012 A 
HETATM   34  O   UNL     1       7.934  26.963  57.225  1.00  0.00    -0.267 OA
HETATM   35  C   UNL     1       7.635  23.167  52.791  1.00  0.00     0.012 A 
HETATM   36  C   UNL     1       7.462  24.341  52.025  1.00  0.00     0.003 A 
ENDBRANCH  23  24
ENDBRANCH   1  23
TORSDOF 7
ENDMDL
MODEL 9
REMARK VINA RESULT:      -9.8      2.686     11.503
REMARK  7 active torsions:
REMARK  status: ('A' for Active; 'I' for Inactive)
REMARK    1  A    between atoms: N_8  and  C_9 
REMARK    2  A    between atoms: C_9  and  C_10 
REMARK    3  A    between atoms: C_13  and  C_14 
REMARK       I    between atoms: C_14  and  N_15 
REMARK    4  A    between atoms: N_15  and  N_16 
REMARK    5  A    between atoms: C_17  and  C_18 
REMARK    6  A    between atoms: C_19  and  O_20 
REMARK    7  A    between atoms: C_22  and  O_23 
ROOT
HETATM    1  C   UNL     1       4.046  32.068  59.049  1.00  0.00    -0.040 A 
HETATM    2  C   UNL     1       3.472  30.964  58.403  1.00  0.00     0.010 A 
HETATM    3  C   UNL     1       4.262  30.088  57.653  1.00  0.00     0.017 A 
HETATM    4  C   UNL     1       5.641  30.299  57.536  1.00  0.00     0.033 A 
HETATM    5  C   UNL     1       6.224  31.386  58.198  1.00  0.00     0.017 A 
HETATM    6  C   UNL     1       5.431  32.266  58.943  1.00  0.00     0.010 A 
ENDROOT
BRANCH   4   7
HETATM    7  C   UNL     1       6.439  29.318  56.744  1.00  0.00     0.271 C 
HETATM    8  N   UNL     1       5.972  28.010  56.737  1.00  0.00    -0.243 N 
HETATM    9  H   UNL     1       5.198  27.723  57.320  1.00  0.00     0.192 HD
HETATM   10  O   UNL     1       7.456  29.692  56.164  1.00  0.00    -0.266 OA
BRANCH   8  11
HETATM   11  N   UNL     1       6.634  27.079  55.996  1.00  0.00    -0.183 NA
HETATM   12  C   UNL     1       6.515  25.849  56.381  1.00  0.00     0.153 C 
BRANCH  12  13
HETATM   13  C   UNL     1       7.184  24.764  55.636  1.00  0.00     0.016 A 
HETATM   14  C   UNL     1       6.699  24.298  54.405  1.00  0.00     0.080 A 
HETATM   15  C   UNL     1       7.353  23.266  53.736  1.00  0.00     0.074 A 
HETATM   16  C   UNL     1       8.490  22.699  54.304  1.00  0.00     0.068 A 
HETATM   17  C   UNL     1       8.982  23.151  55.525  1.00  0.00     0.037 A 
HETATM   18  C   UNL     1       8.329  24.188  56.196  1.00  0.00     0.018 A 
BRANCH  14  19
HETATM   19  O   UNL     1       5.586  24.806  53.792  1.00  0.00    -0.360 OA
HETATM   20  H   UNL     1       5.406  24.282  52.977  1.00  0.00     0.217 HD
ENDBRANCH  14  19
BRANCH  16  21
HETATM   21  O   UNL     1       9.160  21.685  53.688  1.00  0.00    -0.361 OA
HETATM   22  H   UNL     1       8.759  21.536  52.814  1.00  0.00     0.217 HD
ENDBRANCH  16  21
ENDBRANCH  12  13
ENDBRANCH   8  11
ENDBRANCH   4   7
BRANCH   1  23
HETATM   23  C   UNL     1       3.188  32.996  59.880  1.00  0.00     0.171 C 
BRANCH  23  24
HETATM   24  N   UNL     1       3.840  33.412  61.099  1.00  0.00    -0.309 N 
HETATM   25  C   UNL     1       4.354  34.683  61.370  1.00  0.00     0.050 A 
HETATM   26  C   UNL     1       4.920  34.628  62.624  1.00  0.00     0.017 A 
HETATM   27  C   UNL     1       4.363  35.862  60.641  1.00  0.00     0.031 A 
HETATM   28  C   UNL     1       4.767  33.354  63.136  1.00  0.00     0.045 A 
HETATM   29  C   UNL     1       5.528  35.671  63.256  1.00  0.00    -0.023 A 
HETATM   30  C   UNL     1       5.264  33.061  64.404  1.00  0.00     0.018 A 
HETATM   31  C   UNL     1       4.066  32.522  62.177  1.00  0.00     0.259 A 
HETATM   32  C   UNL     1       5.903  34.110  65.094  1.00  0.00     0.002 A 
HETATM   33  C   UNL     1       6.039  35.400  64.539  1.00  0.00     0.012 A 
HETATM   34  O   UNL     1       3.717  31.349  62.227  1.00  0.00    -0.267 OA
HETATM   35  C   UNL     1       5.563  36.885  62.544  1.00  0.00     0.012 A 
HETATM   36  C   UNL     1       4.986  36.969  61.258  1.00  0.00     0.003 A 
ENDBRANCH  23  24
ENDBRANCH   1  23
TORSDOF 7
ENDMDL
MODEL 10
REMARK VINA RESULT:      -9.7      6.407     11.491
REMARK  7 active torsions:
REMARK  status: ('A' for Active; 'I' for Inactive)
REMARK    1  A    between atoms: N_8  and  C_9 
REMARK    2  A    between atoms: C_9  and  C_10 
REMARK    3  A    between atoms: C_13  and  C_14 
REMARK       I    between atoms: C_14  and  N_15 
REMARK    4  A    between atoms: N_15  and  N_16 
REMARK    5  A    between atoms: C_17  and  C_18 
REMARK    6  A    between atoms: C_19  and  O_20 
REMARK    7  A    between atoms: C_22  and  O_23 
ROOT
HETATM    1  C   UNL     1       4.726  26.769  52.524  1.00  0.00    -0.040 A 
HETATM    2  C   UNL     1       4.584  28.119  52.879  1.00  0.00     0.010 A 
HETATM    3  C   UNL     1       4.856  29.130  51.953  1.00  0.00     0.017 A 
HETATM    4  C   UNL     1       5.273  28.812  50.656  1.00  0.00     0.033 A 
HETATM    5  C   UNL     1       5.394  27.466  50.288  1.00  0.00     0.017 A 
HETATM    6  C   UNL     1       5.128  26.455  51.218  1.00  0.00     0.010 A 
ENDROOT
BRANCH   4   7
HETATM    7  C   UNL     1       5.525  29.931  49.702  1.00  0.00     0.271 C 
HETATM    8  N   UNL     1       4.561  30.130  48.722  1.00  0.00    -0.243 N 
HETATM    9  H   UNL     1       3.791  29.487  48.600  1.00  0.00     0.192 HD
HETATM   10  O   UNL     1       6.551  30.598  49.808  1.00  0.00    -0.266 OA
BRANCH   8  11
HETATM   11  N   UNL     1       4.714  31.164  47.849  1.00  0.00    -0.183 NA
HETATM   12  C   UNL     1       4.793  30.851  46.596  1.00  0.00     0.153 C 
BRANCH  12  13
HETATM   13  C   UNL     1       4.946  31.902  45.570  1.00  0.00     0.016 A 
HETATM   14  C   UNL     1       5.728  33.046  45.787  1.00  0.00     0.080 A 
HETATM   15  C   UNL     1       5.841  34.019  44.797  1.00  0.00     0.074 A 
HETATM   16  C   UNL     1       5.167  33.847  43.592  1.00  0.00     0.068 A 
HETATM   17  C   UNL     1       4.388  32.716  43.363  1.00  0.00     0.037 A 
HETATM   18  C   UNL     1       4.275  31.737  44.353  1.00  0.00     0.018 A 
BRANCH  14  19
HETATM   19  O   UNL     1       6.413  33.282  46.948  1.00  0.00    -0.360 OA
HETATM   20  H   UNL     1       5.922  32.867  47.695  1.00  0.00     0.217 HD
ENDBRANCH  14  19
BRANCH  16  21
HETATM   21  O   UNL     1       5.245  34.774  42.596  1.00  0.00    -0.361 OA
HETATM   22  H   UNL     1       6.129  34.723  42.196  1.00  0.00     0.217 HD
ENDBRANCH  16  21
ENDBRANCH  12  13
ENDBRANCH   8  11
ENDBRANCH   4   7
BRANCH   1  23
HETATM   23  C   UNL     1       4.405  25.681  53.524  1.00  0.00     0.171 C 
BRANCH  23  24
HETATM   24  N   UNL     1       5.529  25.355  54.369  1.00  0.00    -0.309 N 
HETATM   25  C   UNL     1       6.529  24.418  54.092  1.00  0.00     0.050 A 
HETATM   26  C   UNL     1       7.374  24.399  55.179  1.00  0.00     0.017 A 
HETATM   27  C   UNL     1       6.770  23.606  52.995  1.00  0.00     0.031 A 
HETATM   28  C   UNL     1       6.922  25.304  56.122  1.00  0.00     0.045 A 
HETATM   29  C   UNL     1       8.482  23.615  55.297  1.00  0.00    -0.023 A 
HETATM   30  C   UNL     1       7.625  25.459  57.314  1.00  0.00     0.018 A 
HETATM   31  C   UNL     1       5.720  25.954  55.638  1.00  0.00     0.259 A 
HETATM   32  C   UNL     1       8.778  24.665  57.480  1.00  0.00     0.002 A 
HETATM   33  C   UNL     1       9.210  23.754  56.493  1.00  0.00     0.012 A 
HETATM   34  O   UNL     1       5.008  26.816  56.140  1.00  0.00    -0.267 OA
HETATM   35  C   UNL     1       8.755  22.770  54.205  1.00  0.00     0.012 A 
HETATM   36  C   UNL     1       7.907  22.774  53.076  1.00  0.00     0.003 A 
ENDBRANCH  23  24
ENDBRANCH   1  23
TORSDOF 7
ENDMDL
