MODEL 1
REMARK VINA RESULT:      -9.9      0.000      0.000
REMARK  5 active torsions:
REMARK  status: ('A' for Active; 'I' for Inactive)
REMARK    1  A    between atoms: C_4  and  N_5 
REMARK       I    between atoms: C_6  and  N_7 
REMARK       I    between atoms: C_6  and  N_14 
REMARK       I    between atoms: N_7  and  C_8 
REMARK    2  A    between atoms: C_8  and  C_9 
REMARK    3  A    between atoms: N_14  and  C_15 
REMARK    4  A    between atoms: C_15  and  C_16 
REMARK    5  A    between atoms: C_16  and  C_17 
ROOT
HETATM    1  N   UNL     1       7.626  28.638  55.494  1.00  0.00     0.130 NA
HETATM    2  C   UNL     1       7.149  27.456  55.686  1.00  0.00     0.718 C 
HETATM    3  N   UNL     1       6.550  26.804  54.622  1.00  0.00    -0.157 N 
HETATM    4  C   UNL     1       6.398  27.231  53.301  1.00  0.00     0.243 C 
HETATM    5  O   UNL     1       6.882  28.251  52.821  1.00  0.00    -0.272 OA
HETATM    6  N   UNL     1       7.166  26.777  56.880  1.00  0.00    -0.223 N 
HETATM    7  H   UNL     1       6.127  25.928  54.860  1.00  0.00     0.187 HD
HETATM    8  H   UNL     1       7.817  27.229  57.528  1.00  0.00     0.177 HD
ENDROOT
BRANCH   1   9
HETATM    9  C   UNL     1       8.225  29.375  56.509  1.00  0.00     0.764 A 
HETATM   10  N   UNL     1       7.442  30.028  57.393  1.00  0.00    -0.065 NA
HETATM   11  C   UNL     1       8.076  30.696  58.378  1.00  0.00     0.051 A 
HETATM   12  C   UNL     1       7.224  31.413  59.381  1.00  0.00     0.071 C 
HETATM   13  C   UNL     1       9.452  30.735  58.480  1.00  0.00     0.054 A 
HETATM   14  C   UNL     1      10.165  30.044  57.520  1.00  0.00     0.051 A 
HETATM   15  N   UNL     1       9.565  29.357  56.531  1.00  0.00    -0.065 NA
HETATM   16  C   UNL     1      11.663  30.034  57.549  1.00  0.00     0.071 C 
ENDBRANCH   1   9
BRANCH   6  17
HETATM   17  C   UNL     1       7.048  25.344  57.081  1.00  0.00     0.142 C 
BRANCH  17  18
HETATM   18  C   UNL     1       8.430  24.684  57.015  1.00  0.00     0.061 C 
BRANCH  18  19
HETATM   19  C   UNL     1       8.355  23.245  56.620  1.00  0.00    -0.029 A 
HETATM   20  C   UNL     1       8.210  22.733  55.291  1.00  0.00    -0.002 A 
HETATM   21  C   UNL     1       8.175  21.342  55.379  1.00  0.00     0.042 A 
HETATM   22  C   UNL     1       8.100  23.328  54.016  1.00  0.00     0.014 A 
HETATM   23  C   UNL     1       8.035  20.514  54.258  1.00  0.00     0.030 A 
HETATM   24  N   UNL     1       8.296  21.018  56.710  1.00  0.00    -0.365 N 
HETATM   25  C   UNL     1       7.925  21.129  53.008  1.00  0.00     0.002 A 
HETATM   26  C   UNL     1       7.958  22.516  52.885  1.00  0.00     0.001 A 
HETATM   27  H   UNL     1       8.296  20.074  57.072  1.00  0.00     0.165 HD
HETATM   28  C   UNL     1       8.407  22.154  57.466  1.00  0.00     0.096 A 
ENDBRANCH  18  19
ENDBRANCH  17  18
ENDBRANCH   6  17
BRANCH   4  29
HETATM   29  C   UNL     1       5.596  26.239  52.423  1.00  0.00     0.031 C 
HETATM   30  C   UNL     1       4.862  25.208  53.295  1.00  0.00     0.025 C 
HETATM   31  C   UNL     1       4.546  27.014  51.606  1.00  0.00     0.025 C 
HETATM   32  C   UNL     1       6.548  25.529  51.449  1.00  0.00     0.025 C 
ENDBRANCH   4  29
TORSDOF 5
ENDMDL
MODEL 2
REMARK VINA RESULT:      -9.7      2.593      4.019
REMARK  5 active torsions:
REMARK  status: ('A' for Active; 'I' for Inactive)
REMARK    1  A    between atoms: C_4  and  N_5 
REMARK       I    between atoms: C_6  and  N_7 
REMARK       I    between atoms: C_6  and  N_14 
REMARK       I    between atoms: N_7  and  C_8 
REMARK    2  A    between atoms: C_8  and  C_9 
REMARK    3  A    between atoms: N_14  and  C_15 
REMARK    4  A    between atoms: C_15  and  C_16 
REMARK    5  A    between atoms: C_16  and  C_17 
ROOT
HETATM    1  N   UNL     1       4.608  28.471  52.913  1.00  0.00     0.130 NA
HETATM    2  C   UNL     1       4.511  27.279  52.429  1.00  0.00     0.718 C 
HETATM    3  N   UNL     1       4.313  27.133  51.068  1.00  0.00    -0.157 N 
HETATM    4  C   UNL     1       4.225  28.115  50.080  1.00  0.00     0.243 C 
HETATM    5  O   UNL     1       4.422  29.315  50.248  1.00  0.00    -0.272 OA
HETATM    6  N   UNL     1       4.571  26.117  53.161  1.00  0.00    -0.223 N 
HETATM    7  H   UNL     1       4.162  26.187  50.772  1.00  0.00     0.187 HD
HETATM    8  H   UNL     1       4.942  26.314  54.095  1.00  0.00     0.177 HD
ENDROOT
BRANCH   1   9
HETATM    9  C   UNL     1       4.786  28.712  54.269  1.00  0.00     0.764 A 
HETATM   10  N   UNL     1       3.898  29.496  54.917  1.00  0.00    -0.065 NA
HETATM   11  C   UNL     1       4.100  29.667  56.239  1.00  0.00     0.051 A 
HETATM   12  C   UNL     1       3.115  30.519  56.980  1.00  0.00     0.071 C 
HETATM   13  C   UNL     1       5.163  29.093  56.907  1.00  0.00     0.054 A 
HETATM   14  C   UNL     1       6.022  28.317  56.154  1.00  0.00     0.051 A 
HETATM   15  N   UNL     1       5.844  28.116  54.835  1.00  0.00    -0.065 NA
HETATM   16  C   UNL     1       7.207  27.658  56.793  1.00  0.00     0.071 C 
ENDBRANCH   1   9
BRANCH   6  17
HETATM   17  C   UNL     1       4.890  24.787  52.677  1.00  0.00     0.142 C 
BRANCH  17  18
HETATM   18  C   UNL     1       6.408  24.573  52.674  1.00  0.00     0.061 C 
BRANCH  18  19
HETATM   19  C   UNL     1       6.883  23.846  53.890  1.00  0.00    -0.029 A 
HETATM   20  C   UNL     1       7.505  22.557  53.922  1.00  0.00    -0.002 A 
HETATM   21  C   UNL     1       7.777  22.256  55.256  1.00  0.00     0.042 A 
HETATM   22  C   UNL     1       7.858  21.612  52.934  1.00  0.00     0.014 A 
HETATM   23  C   UNL     1       8.384  21.059  55.655  1.00  0.00     0.030 A 
HETATM   24  N   UNL     1       7.340  23.321  56.008  1.00  0.00    -0.365 N 
HETATM   25  C   UNL     1       8.721  20.140  54.657  1.00  0.00     0.002 A 
HETATM   26  C   UNL     1       8.465  20.410  53.315  1.00  0.00     0.001 A 
HETATM   27  H   UNL     1       7.404  23.375  57.015  1.00  0.00     0.165 HD
HETATM   28  C   UNL     1       6.802  24.284  55.198  1.00  0.00     0.096 A 
ENDBRANCH  18  19
ENDBRANCH  17  18
ENDBRANCH   6  17
BRANCH   4  29
HETATM   29  C   UNL     1       3.919  27.548  48.672  1.00  0.00     0.031 C 
HETATM   30  C   UNL     1       5.036  27.912  47.682  1.00  0.00     0.025 C 
HETATM   31  C   UNL     1       3.825  26.012  48.750  1.00  0.00     0.025 C 
HETATM   32  C   UNL     1       2.571  28.096  48.178  1.00  0.00     0.025 C 
ENDBRANCH   4  29
TORSDOF 5
ENDMDL
MODEL 3
REMARK VINA RESULT:      -9.6      1.790      3.504
REMARK  5 active torsions:
REMARK  status: ('A' for Active; 'I' for Inactive)
REMARK    1  A    between atoms: C_4  and  N_5 
REMARK       I    between atoms: C_6  and  N_7 
REMARK       I    between atoms: C_6  and  N_14 
REMARK       I    between atoms: N_7  and  C_8 
REMARK    2  A    between atoms: C_8  and  C_9 
REMARK    3  A    between atoms: N_14  and  C_15 
REMARK    4  A    between atoms: C_15  and  C_16 
REMARK    5  A    between atoms: C_16  and  C_17 
ROOT
HETATM    1  N   UNL     1       6.861  28.100  53.513  1.00  0.00     0.130 NA
HETATM    2  C   UNL     1       6.495  27.029  52.895  1.00  0.00     0.718 C 
HETATM    3  N   UNL     1       5.811  27.158  51.699  1.00  0.00    -0.157 N 
HETATM    4  C   UNL     1       5.461  28.318  51.005  1.00  0.00     0.243 C 
HETATM    5  O   UNL     1       5.809  29.458  51.300  1.00  0.00    -0.272 OA
HETATM    6  N   UNL     1       6.710  25.745  53.334  1.00  0.00    -0.223 N 
HETATM    7  H   UNL     1       5.482  26.293  51.316  1.00  0.00     0.187 HD
HETATM    8  H   UNL     1       7.407  25.747  54.085  1.00  0.00     0.177 HD
ENDROOT
BRANCH   1   9
HETATM    9  C   UNL     1       7.533  28.066  54.729  1.00  0.00     0.764 A 
HETATM   10  N   UNL     1       8.558  28.919  54.935  1.00  0.00    -0.065 NA
HETATM   11  C   UNL     1       9.150  28.866  56.146  1.00  0.00     0.051 A 
HETATM   12  C   UNL     1      10.278  29.818  56.401  1.00  0.00     0.071 C 
HETATM   13  C   UNL     1       8.752  27.980  57.127  1.00  0.00     0.054 A 
HETATM   14  C   UNL     1       7.700  27.141  56.815  1.00  0.00     0.051 A 
HETATM   15  N   UNL     1       7.080  27.175  55.622  1.00  0.00    -0.065 NA
HETATM   16  C   UNL     1       7.204  26.143  57.817  1.00  0.00     0.071 C 
ENDBRANCH   1   9
BRANCH   6  17
HETATM   17  C   UNL     1       6.718  24.532  52.538  1.00  0.00     0.142 C 
BRANCH  17  18
HETATM   18  C   UNL     1       8.092  23.857  52.614  1.00  0.00     0.061 C 
BRANCH  18  19
HETATM   19  C   UNL     1       8.042  22.542  53.323  1.00  0.00    -0.029 A 
HETATM   20  C   UNL     1       8.138  22.334  54.737  1.00  0.00    -0.002 A 
HETATM   21  C   UNL     1       8.054  20.961  54.964  1.00  0.00     0.042 A 
HETATM   22  C   UNL     1       8.295  23.190  55.847  1.00  0.00     0.014 A 
HETATM   23  C   UNL     1       8.118  20.398  56.245  1.00  0.00     0.030 A 
HETATM   24  N   UNL     1       7.910  20.355  53.738  1.00  0.00    -0.365 N 
HETATM   25  C   UNL     1       8.276  21.269  57.327  1.00  0.00     0.002 A 
HETATM   26  C   UNL     1       8.362  22.646  57.134  1.00  0.00     0.001 A 
HETATM   27  H   UNL     1       7.830  19.358  53.598  1.00  0.00     0.165 HD
HETATM   28  C   UNL     1       7.899  21.297  52.743  1.00  0.00     0.096 A 
ENDBRANCH  18  19
ENDBRANCH  17  18
ENDBRANCH   6  17
BRANCH   4  29
HETATM   29  C   UNL     1       4.624  28.045  49.731  1.00  0.00     0.031 C 
HETATM   30  C   UNL     1       3.272  28.772  49.802  1.00  0.00     0.025 C 
HETATM   31  C   UNL     1       5.387  28.564  48.498  1.00  0.00     0.025 C 
HETATM   32  C   UNL     1       4.407  26.533  49.573  1.00  0.00     0.025 C 
ENDBRANCH   4  29
TORSDOF 5
ENDMDL
MODEL 4
REMARK VINA RESULT:      -9.4      2.874      6.648
REMARK  5 active torsions:
REMARK  status: ('A' for Active; 'I' for Inactive)
REMARK    1  A    between atoms: C_4  and  N_5 
REMARK       I    between atoms: C_6  and  N_7 
REMARK       I    between atoms: C_6  and  N_14 
REMARK       I    between atoms: N_7  and  C_8 
REMARK    2  A    between atoms: C_8  and  C_9 
REMARK    3  A    between atoms: N_14  and  C_15 
REMARK    4  A    between atoms: C_15  and  C_16 
REMARK    5  A    between atoms: C_16  and  C_17 
ROOT
HETATM    1  N   UNL     1       4.817  27.883  51.361  1.00  0.00     0.130 NA
HETATM    2  C   UNL     1       5.743  27.204  51.947  1.00  0.00     0.718 C 
HETATM    3  N   UNL     1       6.006  27.459  53.281  1.00  0.00    -0.157 N 
HETATM    4  C   UNL     1       5.378  28.358  54.146  1.00  0.00     0.243 C 
HETATM    5  O   UNL     1       4.380  29.021  53.883  1.00  0.00    -0.272 OA
HETATM    6  N   UNL     1       6.523  26.242  51.350  1.00  0.00    -0.223 N 
HETATM    7  H   UNL     1       6.792  26.959  53.651  1.00  0.00     0.187 HD
HETATM    8  H   UNL     1       6.110  25.968  50.454  1.00  0.00     0.177 HD
ENDROOT
BRANCH   1   9
HETATM    9  C   UNL     1       4.501  27.708  50.019  1.00  0.00     0.764 A 
HETATM   10  N   UNL     1       4.038  26.509  49.605  1.00  0.00    -0.065 NA
HETATM   11  C   UNL     1       3.714  26.408  48.301  1.00  0.00     0.051 A 
HETATM   12  C   UNL     1       3.181  25.091  47.826  1.00  0.00     0.071 C 
HETATM   13  C   UNL     1       3.858  27.459  47.417  1.00  0.00     0.054 A 
HETATM   14  C   UNL     1       4.349  28.641  47.935  1.00  0.00     0.051 A 
HETATM   15  N   UNL     1       4.672  28.781  49.234  1.00  0.00    -0.065 NA
HETATM   16  C   UNL     1       4.544  29.834  47.050  1.00  0.00     0.071 C 
ENDBRANCH   1   9
BRANCH   6  17
HETATM   17  C   UNL     1       7.259  25.175  52.002  1.00  0.00     0.142 C 
BRANCH  17  18
HETATM   18  C   UNL     1       6.293  24.230  52.726  1.00  0.00     0.061 C 
BRANCH  18  19
HETATM   19  C   UNL     1       6.880  23.667  53.979  1.00  0.00    -0.029 A 
HETATM   20  C   UNL     1       7.565  22.416  54.112  1.00  0.00    -0.002 A 
HETATM   21  C   UNL     1       7.938  22.282  55.448  1.00  0.00     0.042 A 
HETATM   22  C   UNL     1       7.899  21.380  53.213  1.00  0.00     0.014 A 
HETATM   23  C   UNL     1       8.627  21.164  55.935  1.00  0.00     0.030 A 
HETATM   24  N   UNL     1       7.499  23.407  56.106  1.00  0.00    -0.365 N 
HETATM   25  C   UNL     1       8.942  20.151  55.025  1.00  0.00     0.002 A 
HETATM   26  C   UNL     1       8.586  20.255  53.683  1.00  0.00     0.001 A 
HETATM   27  H   UNL     1       7.626  23.579  57.094  1.00  0.00     0.165 HD
HETATM   28  C   UNL     1       6.864  24.249  55.232  1.00  0.00     0.096 A 
ENDBRANCH  18  19
ENDBRANCH  17  18
ENDBRANCH   6  17
BRANCH   4  29
HETATM   29  C   UNL     1       6.017  28.405  55.556  1.00  0.00     0.031 C 
HETATM   30  C   UNL     1       5.952  29.826  56.137  1.00  0.00     0.025 C 
HETATM   31  C   UNL     1       5.245  27.463  56.498  1.00  0.00     0.025 C 
HETATM   32  C   UNL     1       7.476  27.930  55.475  1.00  0.00     0.025 C 
ENDBRANCH   4  29
TORSDOF 5
ENDMDL
MODEL 5
REMARK VINA RESULT:      -9.3      2.844      6.616
REMARK  5 active torsions:
REMARK  status: ('A' for Active; 'I' for Inactive)
REMARK    1  A    between atoms: C_4  and  N_5 
REMARK       I    between atoms: C_6  and  N_7 
REMARK       I    between atoms: C_6  and  N_14 
REMARK       I    between atoms: N_7  and  C_8 
REMARK    2  A    between atoms: C_8  and  C_9 
REMARK    3  A    between atoms: N_14  and  C_15 
REMARK    4  A    between atoms: C_15  and  C_16 
REMARK    5  A    between atoms: C_16  and  C_17 
ROOT
HETATM    1  N   UNL     1       4.882  28.028  51.405  1.00  0.00     0.130 NA
HETATM    2  C   UNL     1       5.781  27.296  51.969  1.00  0.00     0.718 C 
HETATM    3  N   UNL     1       6.069  27.515  53.305  1.00  0.00    -0.157 N 
HETATM    4  C   UNL     1       5.493  28.427  54.192  1.00  0.00     0.243 C 
HETATM    5  O   UNL     1       4.525  29.142  53.950  1.00  0.00    -0.272 OA
HETATM    6  N   UNL     1       6.508  26.309  51.347  1.00  0.00    -0.223 N 
HETATM    7  H   UNL     1       6.834  26.972  53.657  1.00  0.00     0.187 HD
HETATM    8  H   UNL     1       6.073  26.070  50.451  1.00  0.00     0.177 HD
ENDROOT
BRANCH   1   9
HETATM    9  C   UNL     1       4.545  27.892  50.064  1.00  0.00     0.764 A 
HETATM   10  N   UNL     1       4.709  28.947  49.237  1.00  0.00    -0.065 NA
HETATM   11  C   UNL     1       4.399  28.747  47.940  1.00  0.00     0.051 A 
HETATM   12  C   UNL     1       4.593  29.900  47.003  1.00  0.00     0.071 C 
HETATM   13  C   UNL     1       3.921  27.541  47.469  1.00  0.00     0.054 A 
HETATM   14  C   UNL     1       3.778  26.527  48.396  1.00  0.00     0.051 A 
HETATM   15  N   UNL     1       4.088  26.688  49.695  1.00  0.00    -0.065 NA
HETATM   16  C   UNL     1       3.261  25.184  47.977  1.00  0.00     0.071 C 
ENDBRANCH   1   9
BRANCH   6  17
HETATM   17  C   UNL     1       7.199  25.196  51.973  1.00  0.00     0.142 C 
BRANCH  17  18
HETATM   18  C   UNL     1       6.208  24.334  52.763  1.00  0.00     0.061 C 
BRANCH  18  19
HETATM   19  C   UNL     1       6.832  23.710  53.969  1.00  0.00    -0.029 A 
HETATM   20  C   UNL     1       7.529  22.460  54.016  1.00  0.00    -0.002 A 
HETATM   21  C   UNL     1       7.937  22.258  55.334  1.00  0.00     0.042 A 
HETATM   22  C   UNL     1       7.847  21.476  53.056  1.00  0.00     0.014 A 
HETATM   23  C   UNL     1       8.647  21.122  55.743  1.00  0.00     0.030 A 
HETATM   24  N   UNL     1       7.508  23.343  56.062  1.00  0.00    -0.365 N 
HETATM   25  C   UNL     1       8.947  20.162  54.772  1.00  0.00     0.002 A 
HETATM   26  C   UNL     1       8.555  20.334  53.447  1.00  0.00     0.001 A 
HETATM   27  H   UNL     1       7.659  23.463  57.053  1.00  0.00     0.165 HD
HETATM   28  C   UNL     1       6.844  24.224  55.251  1.00  0.00     0.096 A 
ENDBRANCH  18  19
ENDBRANCH  17  18
ENDBRANCH   6  17
BRANCH   4  29
HETATM   29  C   UNL     1       6.148  28.419  55.595  1.00  0.00     0.031 C 
HETATM   30  C   UNL     1       7.591  27.894  55.520  1.00  0.00     0.025 C 
HETATM   31  C   UNL     1       6.186  29.856  56.148  1.00  0.00     0.025 C 
HETATM   32  C   UNL     1       5.314  27.549  56.547  1.00  0.00     0.025 C 
ENDBRANCH   4  29
TORSDOF 5
ENDMDL
MODEL 6
REMARK VINA RESULT:      -9.3      1.148      1.486
REMARK  5 active torsions:
REMARK  status: ('A' for Active; 'I' for Inactive)
REMARK    1  A    between atoms: C_4  and  N_5 
REMARK       I    between atoms: C_6  and  N_7 
REMARK       I    between atoms: C_6  and  N_14 
REMARK       I    between atoms: N_7  and  C_8 
REMARK    2  A    between atoms: C_8  and  C_9 
REMARK    3  A    between atoms: N_14  and  C_15 
REMARK    4  A    between atoms: C_15  and  C_16 
REMARK    5  A    between atoms: C_16  and  C_17 
ROOT
HETATM    1  N   UNL     1       6.291  28.744  55.254  1.00  0.00     0.130 NA
HETATM    2  C   UNL     1       6.168  27.470  55.408  1.00  0.00     0.718 C 
HETATM    3  N   UNL     1       6.018  26.680  54.282  1.00  0.00    -0.157 N 
HETATM    4  C   UNL     1       6.008  27.056  52.937  1.00  0.00     0.243 C 
HETATM    5  O   UNL     1       6.245  28.182  52.511  1.00  0.00    -0.272 OA
HETATM    6  N   UNL     1       6.152  26.813  56.615  1.00  0.00    -0.223 N 
HETATM    7  H   UNL     1       5.843  25.712  54.476  1.00  0.00     0.187 HD
HETATM    8  H   UNL     1       6.493  27.435  57.353  1.00  0.00     0.177 HD
ENDROOT
BRANCH   1   9
HETATM    9  C   UNL     1       6.423  29.615  56.329  1.00  0.00     0.764 A 
HETATM   10  N   UNL     1       5.392  30.427  56.645  1.00  0.00    -0.065 NA
HETATM   11  C   UNL     1       5.563  31.225  57.718  1.00  0.00     0.051 A 
HETATM   12  C   UNL     1       4.423  32.121  58.097  1.00  0.00     0.071 C 
HETATM   13  C   UNL     1       6.731  31.237  58.455  1.00  0.00     0.054 A 
HETATM   14  C   UNL     1       7.731  30.377  58.045  1.00  0.00     0.051 A 
HETATM   15  N   UNL     1       7.590  29.559  56.985  1.00  0.00    -0.065 NA
HETATM   16  C   UNL     1       9.035  30.325  58.781  1.00  0.00     0.071 C 
ENDBRANCH   1   9
BRANCH   6  17
HETATM   17  C   UNL     1       6.439  25.411  56.859  1.00  0.00     0.142 C 
BRANCH  17  18
HETATM   18  C   UNL     1       7.825  25.050  56.313  1.00  0.00     0.061 C 
BRANCH  18  19
HETATM   19  C   UNL     1       8.064  23.575  56.298  1.00  0.00    -0.029 A 
HETATM   20  C   UNL     1       8.044  22.721  55.149  1.00  0.00    -0.002 A 
HETATM   21  C   UNL     1       8.308  21.424  55.587  1.00  0.00     0.042 A 
HETATM   22  C   UNL     1       7.818  22.933  53.772  1.00  0.00     0.014 A 
HETATM   23  C   UNL     1       8.358  20.326  54.719  1.00  0.00     0.030 A 
HETATM   24  N   UNL     1       8.485  21.484  56.949  1.00  0.00    -0.365 N 
HETATM   25  C   UNL     1       8.129  20.563  53.361  1.00  0.00     0.002 A 
HETATM   26  C   UNL     1       7.864  21.847  52.891  1.00  0.00     0.001 A 
HETATM   27  H   UNL     1       8.685  20.687  57.537  1.00  0.00     0.165 HD
HETATM   28  C   UNL     1       8.343  22.774  57.388  1.00  0.00     0.096 A 
ENDBRANCH  18  19
ENDBRANCH  17  18
ENDBRANCH   6  17
BRANCH   4  29
HETATM   29  C   UNL     1       5.737  25.878  51.970  1.00  0.00     0.031 C 
HETATM   30  C   UNL     1       4.820  24.834  52.626  1.00  0.00     0.025 C 
HETATM   31  C   UNL     1       5.038  26.407  50.704  1.00  0.00     0.025 C 
HETATM   32  C   UNL     1       7.069  25.232  51.560  1.00  0.00     0.025 C 
ENDBRANCH   4  29
TORSDOF 5
ENDMDL
MODEL 7
REMARK VINA RESULT:      -9.0      2.563      6.136
REMARK  5 active torsions:
REMARK  status: ('A' for Active; 'I' for Inactive)
REMARK    1  A    between atoms: C_4  and  N_5 
REMARK       I    between atoms: C_6  and  N_7 
REMARK       I    between atoms: C_6  and  N_14 
REMARK       I    between atoms: N_7  and  C_8 
REMARK    2  A    between atoms: C_8  and  C_9 
REMARK    3  A    between atoms: N_14  and  C_15 
REMARK    4  A    between atoms: C_15  and  C_16 
REMARK    5  A    between atoms: C_16  and  C_17 
ROOT
HETATM    1  N   UNL     1       5.514  27.940  52.288  1.00  0.00     0.130 NA
HETATM    2  C   UNL     1       5.939  26.824  52.773  1.00  0.00     0.718 C 
HETATM    3  N   UNL     1       6.152  26.736  54.138  1.00  0.00    -0.157 N 
HETATM    4  C   UNL     1       5.942  27.700  55.126  1.00  0.00     0.243 C 
HETATM    5  O   UNL     1       5.414  28.794  54.954  1.00  0.00    -0.272 OA
HETATM    6  N   UNL     1       6.224  25.696  52.042  1.00  0.00    -0.223 N 
HETATM    7  H   UNL     1       6.563  25.872  54.437  1.00  0.00     0.187 HD
HETATM    8  H   UNL     1       5.825  25.782  51.103  1.00  0.00     0.177 HD
ENDROOT
BRANCH   1   9
HETATM    9  C   UNL     1       5.293  28.125  50.928  1.00  0.00     0.764 A 
HETATM   10  N   UNL     1       4.897  27.074  50.180  1.00  0.00    -0.065 NA
HETATM   11  C   UNL     1       4.664  27.320  48.875  1.00  0.00     0.051 A 
HETATM   12  C   UNL     1       4.205  26.170  48.031  1.00  0.00     0.071 C 
HETATM   13  C   UNL     1       4.833  28.570  48.314  1.00  0.00     0.054 A 
HETATM   14  C   UNL     1       5.251  29.578  49.161  1.00  0.00     0.051 A 
HETATM   15  N   UNL     1       5.482  29.370  50.470  1.00  0.00    -0.065 NA
HETATM   16  C   UNL     1       5.465  30.966  48.639  1.00  0.00     0.071 C 
ENDBRANCH   1   9
BRANCH   6  17
HETATM   17  C   UNL     1       6.292  24.328  52.522  1.00  0.00     0.142 C 
BRANCH  17  18
HETATM   18  C   UNL     1       7.745  23.842  52.538  1.00  0.00     0.061 C 
BRANCH  18  19
HETATM   19  C   UNL     1       7.901  22.538  53.251  1.00  0.00    -0.029 A 
HETATM   20  C   UNL     1       8.056  22.353  54.662  1.00  0.00    -0.002 A 
HETATM   21  C   UNL     1       8.177  20.983  54.895  1.00  0.00     0.042 A 
HETATM   22  C   UNL     1       8.108  23.229  55.768  1.00  0.00     0.014 A 
HETATM   23  C   UNL     1       8.349  20.443  56.175  1.00  0.00     0.030 A 
HETATM   24  N   UNL     1       8.098  20.357  53.672  1.00  0.00    -0.365 N 
HETATM   25  C   UNL     1       8.400  21.332  57.252  1.00  0.00     0.002 A 
HETATM   26  C   UNL     1       8.281  22.706  57.054  1.00  0.00     0.001 A 
HETATM   27  H   UNL     1       8.161  19.358  53.536  1.00  0.00     0.165 HD
HETATM   28  C   UNL     1       7.930  21.282  52.677  1.00  0.00     0.096 A 
ENDBRANCH  18  19
ENDBRANCH  17  18
ENDBRANCH   6  17
BRANCH   4  29
HETATM   29  C   UNL     1       6.378  27.238  56.538  1.00  0.00     0.031 C 
HETATM   30  C   UNL     1       5.551  26.027  56.996  1.00  0.00     0.025 C 
HETATM   31  C   UNL     1       7.861  26.825  56.505  1.00  0.00     0.025 C 
HETATM   32  C   UNL     1       6.216  28.399  57.532  1.00  0.00     0.025 C 
ENDBRANCH   4  29
TORSDOF 5
ENDMDL
MODEL 8
REMARK VINA RESULT:      -8.8      1.883      7.332
REMARK  5 active torsions:
REMARK  status: ('A' for Active; 'I' for Inactive)
REMARK    1  A    between atoms: C_4  and  N_5 
REMARK       I    between atoms: C_6  and  N_7 
REMARK       I    between atoms: C_6  and  N_14 
REMARK       I    between atoms: N_7  and  C_8 
REMARK    2  A    between atoms: C_8  and  C_9 
REMARK    3  A    between atoms: N_14  and  C_15 
REMARK    4  A    between atoms: C_15  and  C_16 
REMARK    5  A    between atoms: C_16  and  C_17 
ROOT
HETATM    1  N   UNL     1       6.644  25.028  52.771  1.00  0.00     0.130 NA
HETATM    2  C   UNL     1       6.823  26.274  53.051  1.00  0.00     0.718 C 
HETATM    3  N   UNL     1       6.225  27.225  52.244  1.00  0.00    -0.157 N 
HETATM    4  C   UNL     1       5.394  27.044  51.137  1.00  0.00     0.243 C 
HETATM    5  O   UNL     1       4.953  25.968  50.745  1.00  0.00    -0.272 OA
HETATM    6  N   UNL     1       7.586  26.753  54.090  1.00  0.00    -0.223 N 
HETATM    7  H   UNL     1       6.474  28.170  52.466  1.00  0.00     0.187 HD
HETATM    8  H   UNL     1       7.789  25.996  54.749  1.00  0.00     0.177 HD
ENDROOT
BRANCH   1   9
HETATM    9  C   UNL     1       7.223  24.006  53.513  1.00  0.00     0.764 A 
HETATM   10  N   UNL     1       7.468  24.207  54.825  1.00  0.00    -0.065 NA
HETATM   11  C   UNL     1       7.998  23.170  55.504  1.00  0.00     0.051 A 
HETATM   12  C   UNL     1       8.260  23.367  56.966  1.00  0.00     0.071 C 
HETATM   13  C   UNL     1       8.296  21.964  54.900  1.00  0.00     0.054 A 
HETATM   14  C   UNL     1       8.019  21.861  53.551  1.00  0.00     0.051 A 
HETATM   15  N   UNL     1       7.480  22.873  52.846  1.00  0.00    -0.065 NA
HETATM   16  C   UNL     1       8.314  20.592  52.811  1.00  0.00     0.071 C 
ENDBRANCH   1   9
BRANCH   6  17
HETATM   17  C   UNL     1       7.501  28.060  54.714  1.00  0.00     0.142 C 
BRANCH  17  18
HETATM   18  C   UNL     1       7.924  27.973  56.185  1.00  0.00     0.061 C 
BRANCH  18  19
HETATM   19  C   UNL     1       8.889  29.049  56.564  1.00  0.00    -0.029 A 
HETATM   20  C   UNL     1       8.861  29.836  57.760  1.00  0.00    -0.002 A 
HETATM   21  C   UNL     1       9.935  30.723  57.704  1.00  0.00     0.042 A 
HETATM   22  C   UNL     1       8.013  29.877  58.888  1.00  0.00     0.014 A 
HETATM   23  C   UNL     1      10.206  31.651  58.717  1.00  0.00     0.030 A 
HETATM   24  N   UNL     1      10.594  30.486  56.521  1.00  0.00    -0.365 N 
HETATM   25  C   UNL     1       9.350  31.673  59.822  1.00  0.00     0.002 A 
HETATM   26  C   UNL     1       8.269  30.799  59.909  1.00  0.00     0.001 A 
HETATM   27  H   UNL     1      11.413  30.990  56.211  1.00  0.00     0.165 HD
HETATM   28  C   UNL     1       9.976  29.480  55.827  1.00  0.00     0.096 A 
ENDBRANCH  18  19
ENDBRANCH  17  18
ENDBRANCH   6  17
BRANCH   4  29
HETATM   29  C   UNL     1       4.986  28.370  50.450  1.00  0.00     0.031 C 
HETATM   30  C   UNL     1       5.559  28.444  49.025  1.00  0.00     0.025 C 
HETATM   31  C   UNL     1       3.451  28.447  50.357  1.00  0.00     0.025 C 
HETATM   32  C   UNL     1       5.486  29.558  51.286  1.00  0.00     0.025 C 
ENDBRANCH   4  29
TORSDOF 5
ENDMDL
MODEL 9
REMARK VINA RESULT:      -8.8      2.522      4.150
REMARK  5 active torsions:
REMARK  status: ('A' for Active; 'I' for Inactive)
REMARK    1  A    between atoms: C_4  and  N_5 
REMARK       I    between atoms: C_6  and  N_7 
REMARK       I    between atoms: C_6  and  N_14 
REMARK       I    between atoms: N_7  and  C_8 
REMARK    2  A    between atoms: C_8  and  C_9 
REMARK    3  A    between atoms: N_14  and  C_15 
REMARK    4  A    between atoms: C_15  and  C_16 
REMARK    5  A    between atoms: C_16  and  C_17 
ROOT
HETATM    1  N   UNL     1       4.825  28.630  52.799  1.00  0.00     0.130 NA
HETATM    2  C   UNL     1       4.624  27.405  52.451  1.00  0.00     0.718 C 
HETATM    3  N   UNL     1       4.333  27.134  51.126  1.00  0.00    -0.157 N 
HETATM    4  C   UNL     1       4.246  28.014  50.045  1.00  0.00     0.243 C 
HETATM    5  O   UNL     1       4.528  29.207  50.074  1.00  0.00    -0.272 OA
HETATM    6  N   UNL     1       4.654  26.323  53.298  1.00  0.00    -0.223 N 
HETATM    7  H   UNL     1       4.104  26.175  50.941  1.00  0.00     0.187 HD
HETATM    8  H   UNL     1       5.095  26.588  54.184  1.00  0.00     0.177 HD
ENDROOT
BRANCH   1   9
HETATM    9  C   UNL     1       5.101  28.997  54.110  1.00  0.00     0.764 A 
HETATM   10  N   UNL     1       4.107  29.496  54.875  1.00  0.00    -0.065 NA
HETATM   11  C   UNL     1       4.424  29.802  56.149  1.00  0.00     0.051 A 
HETATM   12  C   UNL     1       3.329  30.340  57.019  1.00  0.00     0.071 C 
HETATM   13  C   UNL     1       5.697  29.635  56.656  1.00  0.00     0.054 A 
HETATM   14  C   UNL     1       6.647  29.128  55.792  1.00  0.00     0.051 A 
HETATM   15  N   UNL     1       6.363  28.802  54.518  1.00  0.00    -0.065 NA
HETATM   16  C   UNL     1       8.057  28.918  56.254  1.00  0.00     0.071 C 
ENDBRANCH   1   9
BRANCH   6  17
HETATM   17  C   UNL     1       4.858  24.931  52.942  1.00  0.00     0.142 C 
BRANCH  17  18
HETATM   18  C   UNL     1       6.293  24.715  52.448  1.00  0.00     0.061 C 
BRANCH  18  19
HETATM   19  C   UNL     1       7.086  23.842  53.367  1.00  0.00    -0.029 A 
HETATM   20  C   UNL     1       7.526  24.175  54.688  1.00  0.00    -0.002 A 
HETATM   21  C   UNL     1       8.237  23.082  55.181  1.00  0.00     0.042 A 
HETATM   22  C   UNL     1       7.387  25.313  55.512  1.00  0.00     0.014 A 
HETATM   23  C   UNL     1       8.819  23.067  56.455  1.00  0.00     0.030 A 
HETATM   24  N   UNL     1       8.231  22.119  54.199  1.00  0.00    -0.365 N 
HETATM   25  C   UNL     1       8.669  24.207  57.249  1.00  0.00     0.002 A 
HETATM   26  C   UNL     1       7.962  25.315  56.787  1.00  0.00     0.001 A 
HETATM   27  H   UNL     1       8.679  21.217  54.279  1.00  0.00     0.165 HD
HETATM   28  C   UNL     1       7.539  22.564  53.104  1.00  0.00     0.096 A 
ENDBRANCH  18  19
ENDBRANCH  17  18
ENDBRANCH   6  17
BRANCH   4  29
HETATM   29  C   UNL     1       3.818  27.327  48.725  1.00  0.00     0.031 C 
HETATM   30  C   UNL     1       4.743  27.742  47.570  1.00  0.00     0.025 C 
HETATM   31  C   UNL     1       3.910  25.799  48.891  1.00  0.00     0.025 C 
HETATM   32  C   UNL     1       2.363  27.698  48.400  1.00  0.00     0.025 C 
ENDBRANCH   4  29
TORSDOF 5
ENDMDL
MODEL 10
REMARK VINA RESULT:      -8.8      1.920      7.345
REMARK  5 active torsions:
REMARK  status: ('A' for Active; 'I' for Inactive)
REMARK    1  A    between atoms: C_4  and  N_5 
REMARK       I    between atoms: C_6  and  N_7 
REMARK       I    between atoms: C_6  and  N_14 
REMARK       I    between atoms: N_7  and  C_8 
REMARK    2  A    between atoms: C_8  and  C_9 
REMARK    3  A    between atoms: N_14  and  C_15 
REMARK    4  A    between atoms: C_15  and  C_16 
REMARK    5  A    between atoms: C_16  and  C_17 
ROOT
HETATM    1  N   UNL     1       6.604  25.048  52.678  1.00  0.00     0.130 NA
HETATM    2  C   UNL     1       6.842  26.298  52.883  1.00  0.00     0.718 C 
HETATM    3  N   UNL     1       6.226  27.231  52.067  1.00  0.00    -0.157 N 
HETATM    4  C   UNL     1       5.321  27.027  51.024  1.00  0.00     0.243 C 
HETATM    5  O   UNL     1       4.821  25.950  50.715  1.00  0.00    -0.272 OA
HETATM    6  N   UNL     1       7.684  26.799  53.847  1.00  0.00    -0.223 N 
HETATM    7  H   UNL     1       6.520  28.176  52.225  1.00  0.00     0.187 HD
HETATM    8  H   UNL     1       7.904  26.068  54.530  1.00  0.00     0.177 HD
ENDROOT
BRANCH   1   9
HETATM    9  C   UNL     1       7.195  24.043  53.434  1.00  0.00     0.764 A 
HETATM   10  N   UNL     1       7.483  22.863  52.844  1.00  0.00    -0.065 NA
HETATM   11  C   UNL     1       8.088  21.938  53.616  1.00  0.00     0.051 A 
HETATM   12  C   UNL     1       8.434  20.628  52.975  1.00  0.00     0.071 C 
HETATM   13  C   UNL     1       8.387  22.162  54.945  1.00  0.00     0.054 A 
HETATM   14  C   UNL     1       8.042  23.396  55.459  1.00  0.00     0.051 A 
HETATM   15  N   UNL     1       7.448  24.347  54.714  1.00  0.00    -0.065 NA
HETATM   16  C   UNL     1       8.324  23.727  56.893  1.00  0.00     0.071 C 
ENDBRANCH   1   9
BRANCH   6  17
HETATM   17  C   UNL     1       7.683  28.137  54.409  1.00  0.00     0.142 C 
BRANCH  17  18
HETATM   18  C   UNL     1       7.896  28.076  55.925  1.00  0.00     0.061 C 
BRANCH  18  19
HETATM   19  C   UNL     1       8.886  29.089  56.402  1.00  0.00    -0.029 A 
HETATM   20  C   UNL     1       8.845  29.801  57.644  1.00  0.00    -0.002 A 
HETATM   21  C   UNL     1       9.952  30.648  57.678  1.00  0.00     0.042 A 
HETATM   22  C   UNL     1       7.960  29.807  58.743  1.00  0.00     0.014 A 
HETATM   23  C   UNL     1      10.222  31.501  58.756  1.00  0.00     0.030 A 
HETATM   24  N   UNL     1      10.643  30.458  56.505  1.00  0.00    -0.365 N 
HETATM   25  C   UNL     1       9.329  31.489  59.830  1.00  0.00     0.002 A 
HETATM   26  C   UNL     1       8.213  30.654  59.828  1.00  0.00     0.001 A 
HETATM   27  H   UNL     1      11.491  30.947  56.254  1.00  0.00     0.165 HD
HETATM   28  C   UNL     1      10.013  29.521  55.730  1.00  0.00     0.096 A 
ENDBRANCH  18  19
ENDBRANCH  17  18
ENDBRANCH   6  17
BRANCH   4  29
HETATM   29  C   UNL     1       4.915  28.332  50.296  1.00  0.00     0.031 C 
HETATM   30  C   UNL     1       3.389  28.506  50.298  1.00  0.00     0.025 C 
HETATM   31  C   UNL     1       5.538  29.538  51.025  1.00  0.00     0.025 C 
HETATM   32  C   UNL     1       5.446  28.304  48.855  1.00  0.00     0.025 C 
ENDBRANCH   4  29
TORSDOF 5
ENDMDL
