MODEL 1
REMARK VINA RESULT:      -8.5      0.000      0.000
REMARK  7 active torsions:
REMARK  status: ('A' for Active; 'I' for Inactive)
REMARK    1  A    between atoms: C_4  and  C_5 
REMARK    2  A    between atoms: C_10  and  C_11 
REMARK       I    between atoms: C_11  and  N_12 
REMARK    3  A    between atoms: N_12  and  C_13 
REMARK    4  A    between atoms: C_13  and  C_14 
REMARK    5  A    between atoms: C_14  and  C_15 
REMARK    6  A    between atoms: C_15  and  N_16 
REMARK    7  A    between atoms: C_26  and  C_27 
ROOT
HETATM    1  C   UNL     1       6.936  26.786  55.622  1.00  0.00     0.125 C 
HETATM    2  N   UNL     1       8.160  27.477  56.035  1.00  0.00    -0.365 N 
HETATM    3  C   UNL     1       8.157  28.507  56.915  1.00  0.00     0.141 A 
HETATM    4  N   UNL     1       7.020  28.868  57.583  1.00  0.00    -0.238 N 
HETATM    5  N   UNL     1       7.210  29.826  58.514  1.00  0.00    -0.163 NA
HETATM    6  C   UNL     1       8.510  30.173  58.354  1.00  0.00     0.165 A 
HETATM    7  C   UNL     1       9.125  29.369  57.363  1.00  0.00     0.092 A 
HETATM    8 BR   UNL     1      10.917  29.424  56.821  1.00  0.00    -0.044 Br
HETATM    9  C   UNL     1       5.722  28.254  57.369  1.00  0.00     0.221 C 
HETATM   10  C   UNL     1       5.898  26.852  56.762  1.00  0.00     0.067 C 
HETATM   11  H   UNL     1       8.932  27.381  55.373  1.00  0.00     0.162 HD
ENDROOT
BRANCH   6  12
HETATM   12  C   UNL     1       9.092  31.230  59.188  1.00  0.00     0.273 C 
HETATM   13  N   UNL     1       9.035  30.964  60.542  1.00  0.00    -0.355 N 
HETATM   14  H   UNL     1       8.511  30.121  60.787  1.00  0.00     0.162 HD
HETATM   15  O   UNL     1       9.636  32.253  58.767  1.00  0.00    -0.266 OA
BRANCH  13  16
HETATM   16  C   UNL     1       9.407  31.916  61.558  1.00  0.00     0.124 C 
BRANCH  16  17
HETATM   17  C   UNL     1       8.280  32.240  62.539  1.00  0.00     0.047 C 
BRANCH  17  18
HETATM   18  C   UNL     1       7.147  33.135  62.029  1.00  0.00     0.236 C 
BRANCH  18  19
HETATM   19  N   UNL     1       6.266  33.693  63.112  1.00  0.00    -0.067 N 
HETATM   20  H   UNL     1       6.444  34.721  63.143  1.00  0.00     0.280 HD
HETATM   21  C   UNL     1       4.780  33.453  62.925  1.00  0.00     0.261 C 
HETATM   22  C   UNL     1       3.999  34.076  64.087  1.00  0.00     0.195 C 
HETATM   23  O   UNL     1       4.444  33.556  65.345  1.00  0.00    -0.388 OA
HETATM   24  C   UNL     1       5.827  33.854  65.570  1.00  0.00     0.195 C 
HETATM   25  C   UNL     1       6.704  33.207  64.493  1.00  0.00     0.261 C 
ENDBRANCH  18  19
ENDBRANCH  17  18
ENDBRANCH  16  17
ENDBRANCH  13  16
ENDBRANCH   6  12
BRANCH   9  26
HETATM   26  C   UNL     1       4.849  29.181  56.554  1.00  0.00     0.409 C 
HETATM   27  F   UNL     1       4.005  28.542  55.724  1.00  0.00    -0.169 F 
HETATM   28  F   UNL     1       4.102  29.964  57.373  1.00  0.00    -0.169 F 
HETATM   29  F   UNL     1       5.595  30.022  55.799  1.00  0.00    -0.169 F 
ENDBRANCH   9  26
BRANCH   1  30
HETATM   30  C   UNL     1       6.372  27.154  54.265  1.00  0.00     0.005 A 
HETATM   31  S   UNL     1       5.125  26.220  53.534  1.00  0.00    -0.104 SA
HETATM   32  C   UNL     1       5.044  27.252  52.176  1.00  0.00     0.050 A 
HETATM   33  C   UNL     1       5.918  28.309  52.279  1.00  0.00     0.008 A 
HETATM   34  C   UNL     1       6.672  28.261  53.487  1.00  0.00     0.017 A 
ENDBRANCH   1  30
TORSDOF 7
ENDMDL
MODEL 2
REMARK VINA RESULT:      -8.1      6.968     11.483
REMARK  7 active torsions:
REMARK  status: ('A' for Active; 'I' for Inactive)
REMARK    1  A    between atoms: C_4  and  C_5 
REMARK    2  A    between atoms: C_10  and  C_11 
REMARK       I    between atoms: C_11  and  N_12 
REMARK    3  A    between atoms: N_12  and  C_13 
REMARK    4  A    between atoms: C_13  and  C_14 
REMARK    5  A    between atoms: C_14  and  C_15 
REMARK    6  A    between atoms: C_15  and  N_16 
REMARK    7  A    between atoms: C_26  and  C_27 
ROOT
HETATM    1  C   UNL     1       5.439  26.581  55.415  1.00  0.00     0.125 C 
HETATM    2  N   UNL     1       4.766  27.299  54.330  1.00  0.00    -0.365 N 
HETATM    3  C   UNL     1       4.907  26.955  53.028  1.00  0.00     0.141 A 
HETATM    4  N   UNL     1       5.574  25.819  52.660  1.00  0.00    -0.238 N 
HETATM    5  N   UNL     1       5.517  25.551  51.340  1.00  0.00    -0.163 NA
HETATM    6  C   UNL     1       4.876  26.628  50.822  1.00  0.00     0.165 A 
HETATM    7  C   UNL     1       4.486  27.520  51.851  1.00  0.00     0.092 A 
HETATM    8 BR   UNL     1       3.528  29.116  51.652  1.00  0.00    -0.044 Br
HETATM    9  C   UNL     1       6.245  24.933  53.594  1.00  0.00     0.221 C 
HETATM   10  C   UNL     1       5.655  25.110  55.002  1.00  0.00     0.067 C 
HETATM   11  H   UNL     1       4.492  28.252  54.573  1.00  0.00     0.162 HD
ENDROOT
BRANCH   6  12
HETATM   12  C   UNL     1       4.646  26.716  49.376  1.00  0.00     0.273 C 
HETATM   13  N   UNL     1       5.389  27.700  48.755  1.00  0.00    -0.355 N 
HETATM   14  H   UNL     1       5.921  28.297  49.394  1.00  0.00     0.162 HD
HETATM   15  O   UNL     1       3.908  25.974  48.724  1.00  0.00    -0.266 OA
BRANCH  13  16
HETATM   16  C   UNL     1       5.223  28.073  47.373  1.00  0.00     0.124 C 
BRANCH  16  17
HETATM   17  C   UNL     1       4.397  29.344  47.173  1.00  0.00     0.047 C 
BRANCH  17  18
HETATM   18  C   UNL     1       2.996  29.368  47.788  1.00  0.00     0.236 C 
BRANCH  18  19
HETATM   19  N   UNL     1       1.895  29.002  46.831  1.00  0.00    -0.067 N 
HETATM   20  H   UNL     1       2.317  28.995  45.877  1.00  0.00     0.280 HD
HETATM   21  C   UNL     1       1.233  27.661  47.090  1.00  0.00     0.261 C 
HETATM   22  C   UNL     1       0.141  27.407  46.045  1.00  0.00     0.195 C 
HETATM   23  O   UNL     1      -0.828  28.461  46.045  1.00  0.00    -0.388 OA
HETATM   24  C   UNL     1      -0.227  29.719  45.716  1.00  0.00     0.195 C 
HETATM   25  C   UNL     1       0.835  30.100  46.752  1.00  0.00     0.261 C 
ENDBRANCH  18  19
ENDBRANCH  17  18
ENDBRANCH  16  17
ENDBRANCH  13  16
ENDBRANCH   6  12
BRANCH   9  26
HETATM   26  C   UNL     1       7.740  25.149  53.513  1.00  0.00     0.409 C 
HETATM   27  F   UNL     1       8.094  26.430  53.306  1.00  0.00    -0.169 F 
HETATM   28  F   UNL     1       8.336  24.739  54.661  1.00  0.00    -0.169 F 
HETATM   29  F   UNL     1       8.289  24.415  52.515  1.00  0.00    -0.169 F 
ENDBRANCH   9  26
BRANCH   1  30
HETATM   30  C   UNL     1       6.675  27.235  55.999  1.00  0.00     0.005 A 
HETATM   31  S   UNL     1       7.137  28.831  55.548  1.00  0.00    -0.104 SA
HETATM   32  C   UNL     1       8.481  28.821  56.602  1.00  0.00     0.050 A 
HETATM   33  C   UNL     1       8.569  27.647  57.313  1.00  0.00     0.008 A 
HETATM   34  C   UNL     1       7.523  26.740  56.978  1.00  0.00     0.017 A 
ENDBRANCH   1  30
TORSDOF 7
ENDMDL
MODEL 3
REMARK VINA RESULT:      -8.0      6.879     11.015
REMARK  7 active torsions:
REMARK  status: ('A' for Active; 'I' for Inactive)
REMARK    1  A    between atoms: C_4  and  C_5 
REMARK    2  A    between atoms: C_10  and  C_11 
REMARK       I    between atoms: C_11  and  N_12 
REMARK    3  A    between atoms: N_12  and  C_13 
REMARK    4  A    between atoms: C_13  and  C_14 
REMARK    5  A    between atoms: C_14  and  C_15 
REMARK    6  A    between atoms: C_15  and  N_16 
REMARK    7  A    between atoms: C_26  and  C_27 
ROOT
HETATM    1  C   UNL     1       5.422  26.313  55.226  1.00  0.00     0.125 C 
HETATM    2  N   UNL     1       4.685  27.178  54.301  1.00  0.00    -0.365 N 
HETATM    3  C   UNL     1       4.798  27.074  52.956  1.00  0.00     0.141 A 
HETATM    4  N   UNL     1       5.499  26.053  52.378  1.00  0.00    -0.238 N 
HETATM    5  N   UNL     1       5.410  26.017  51.032  1.00  0.00    -0.163 NA
HETATM    6  C   UNL     1       4.709  27.137  50.729  1.00  0.00     0.165 A 
HETATM    7  C   UNL     1       4.316  27.816  51.908  1.00  0.00     0.092 A 
HETATM    8 BR   UNL     1       3.287  29.377  52.017  1.00  0.00    -0.044 Br
HETATM    9  C   UNL     1       6.237  25.049  53.123  1.00  0.00     0.221 C 
HETATM   10  C   UNL     1       5.685  24.948  54.555  1.00  0.00     0.067 C 
HETATM   11  H   UNL     1       4.380  28.061  54.716  1.00  0.00     0.162 HD
ENDROOT
BRANCH   6  12
HETATM   12  C   UNL     1       4.429  27.467  49.327  1.00  0.00     0.273 C 
HETATM   13  N   UNL     1       3.284  26.872  48.835  1.00  0.00    -0.355 N 
HETATM   14  H   UNL     1       2.842  26.208  49.475  1.00  0.00     0.162 HD
HETATM   15  O   UNL     1       5.093  28.235  48.628  1.00  0.00    -0.266 OA
BRANCH  13  16
HETATM   16  C   UNL     1       2.888  26.928  47.450  1.00  0.00     0.124 C 
BRANCH  16  17
HETATM   17  C   UNL     1       1.526  27.585  47.226  1.00  0.00     0.047 C 
BRANCH  17  18
HETATM   18  C   UNL     1       1.523  29.036  46.741  1.00  0.00     0.236 C 
BRANCH  18  19
HETATM   19  N   UNL     1       2.727  29.832  47.166  1.00  0.00    -0.067 N 
HETATM   20  H   UNL     1       3.431  29.146  47.515  1.00  0.00     0.280 HD
HETATM   21  C   UNL     1       3.358  30.680  46.077  1.00  0.00     0.261 C 
HETATM   22  C   UNL     1       4.572  31.429  46.637  1.00  0.00     0.195 C 
HETATM   23  O   UNL     1       4.208  32.235  47.763  1.00  0.00    -0.388 OA
HETATM   24  C   UNL     1       3.691  31.432  48.831  1.00  0.00     0.195 C 
HETATM   25  C   UNL     1       2.421  30.695  48.390  1.00  0.00     0.261 C 
ENDBRANCH  18  19
ENDBRANCH  17  18
ENDBRANCH  16  17
ENDBRANCH  13  16
ENDBRANCH   6  12
BRANCH   9  26
HETATM   26  C   UNL     1       7.718  25.344  53.045  1.00  0.00     0.409 C 
HETATM   27  F   UNL     1       8.015  26.654  53.123  1.00  0.00    -0.169 F 
HETATM   28  F   UNL     1       8.376  24.715  54.050  1.00  0.00    -0.169 F 
HETATM   29  F   UNL     1       8.251  24.879  51.890  1.00  0.00    -0.169 F 
ENDBRANCH   9  26
BRANCH   1  30
HETATM   30  C   UNL     1       6.649  26.912  55.886  1.00  0.00     0.005 A 
HETATM   31  S   UNL     1       7.041  28.577  55.694  1.00  0.00    -0.104 SA
HETATM   32  C   UNL     1       8.411  28.448  56.705  1.00  0.00     0.050 A 
HETATM   33  C   UNL     1       8.559  27.178  57.213  1.00  0.00     0.008 A 
HETATM   34  C   UNL     1       7.538  26.298  56.753  1.00  0.00     0.017 A 
ENDBRANCH   1  30
TORSDOF 7
ENDMDL
MODEL 4
REMARK VINA RESULT:      -8.0      7.139     10.660
REMARK  7 active torsions:
REMARK  status: ('A' for Active; 'I' for Inactive)
REMARK    1  A    between atoms: C_4  and  C_5 
REMARK    2  A    between atoms: C_10  and  C_11 
REMARK       I    between atoms: C_11  and  N_12 
REMARK    3  A    between atoms: N_12  and  C_13 
REMARK    4  A    between atoms: C_13  and  C_14 
REMARK    5  A    between atoms: C_14  and  C_15 
REMARK    6  A    between atoms: C_15  and  N_16 
REMARK    7  A    between atoms: C_26  and  C_27 
ROOT
HETATM    1  C   UNL     1       5.350  25.387  55.155  1.00  0.00     0.125 C 
HETATM    2  N   UNL     1       4.954  26.778  54.919  1.00  0.00    -0.365 N 
HETATM    3  C   UNL     1       5.157  27.405  53.736  1.00  0.00     0.141 A 
HETATM    4  N   UNL     1       5.616  26.727  52.641  1.00  0.00    -0.238 N 
HETATM    5  N   UNL     1       5.644  27.463  51.511  1.00  0.00    -0.163 NA
HETATM    6  C   UNL     1       5.292  28.704  51.929  1.00  0.00     0.165 A 
HETATM    7  C   UNL     1       4.986  28.698  53.312  1.00  0.00     0.092 A 
HETATM    8 BR   UNL     1       4.397  30.148  54.340  1.00  0.00    -0.044 Br
HETATM    9  C   UNL     1       5.992  25.325  52.652  1.00  0.00     0.221 C 
HETATM   10  C   UNL     1       5.305  24.606  53.825  1.00  0.00     0.067 C 
HETATM   11  H   UNL     1       4.855  27.329  55.773  1.00  0.00     0.162 HD
ENDROOT
BRANCH   6  12
HETATM   12  C   UNL     1       5.238  29.811  50.968  1.00  0.00     0.273 C 
HETATM   13  N   UNL     1       3.975  30.347  50.809  1.00  0.00    -0.355 N 
HETATM   14  H   UNL     1       3.235  29.841  51.302  1.00  0.00     0.162 HD
HETATM   15  O   UNL     1       6.207  30.286  50.372  1.00  0.00    -0.266 OA
BRANCH  13  16
HETATM   16  C   UNL     1       3.649  31.338  49.815  1.00  0.00     0.124 C 
BRANCH  16  17
HETATM   17  C   UNL     1       2.587  30.879  48.815  1.00  0.00     0.047 C 
BRANCH  17  18
HETATM   18  C   UNL     1       3.072  30.091  47.596  1.00  0.00     0.236 C 
BRANCH  18  19
HETATM   19  N   UNL     1       3.194  28.610  47.827  1.00  0.00    -0.067 N 
HETATM   20  H   UNL     1       3.046  28.453  48.847  1.00  0.00     0.280 HD
HETATM   21  C   UNL     1       2.215  27.752  47.047  1.00  0.00     0.261 C 
HETATM   22  C   UNL     1       2.439  26.272  47.377  1.00  0.00     0.195 C 
HETATM   23  O   UNL     1       3.789  25.881  47.104  1.00  0.00    -0.388 OA
HETATM   24  C   UNL     1       4.717  26.626  47.901  1.00  0.00     0.195 C 
HETATM   25  C   UNL     1       4.622  28.123  47.587  1.00  0.00     0.261 C 
ENDBRANCH  18  19
ENDBRANCH  17  18
ENDBRANCH  16  17
ENDBRANCH  13  16
ENDBRANCH   6  12
BRANCH   9  26
HETATM   26  C   UNL     1       7.500  25.204  52.643  1.00  0.00     0.409 C 
HETATM   27  F   UNL     1       8.128  26.200  53.293  1.00  0.00    -0.169 F 
HETATM   28  F   UNL     1       7.880  24.036  53.218  1.00  0.00    -0.169 F 
HETATM   29  F   UNL     1       7.983  25.182  51.377  1.00  0.00    -0.169 F 
ENDBRANCH   9  26
BRANCH   1  30
HETATM   30  C   UNL     1       6.625  25.168  55.945  1.00  0.00     0.005 A 
HETATM   31  S   UNL     1       7.436  26.478  56.711  1.00  0.00    -0.104 SA
HETATM   32  C   UNL     1       8.637  25.454  57.362  1.00  0.00     0.050 A 
HETATM   33  C   UNL     1       8.419  24.135  57.039  1.00  0.00     0.008 A 
HETATM   34  C   UNL     1       7.255  23.968  56.236  1.00  0.00     0.017 A 
ENDBRANCH   1  30
TORSDOF 7
ENDMDL
MODEL 5
REMARK VINA RESULT:      -7.9      8.011     10.603
REMARK  7 active torsions:
REMARK  status: ('A' for Active; 'I' for Inactive)
REMARK    1  A    between atoms: C_4  and  C_5 
REMARK    2  A    between atoms: C_10  and  C_11 
REMARK       I    between atoms: C_11  and  N_12 
REMARK    3  A    between atoms: N_12  and  C_13 
REMARK    4  A    between atoms: C_13  and  C_14 
REMARK    5  A    between atoms: C_14  and  C_15 
REMARK    6  A    between atoms: C_15  and  N_16 
REMARK    7  A    between atoms: C_26  and  C_27 
ROOT
HETATM    1  C   UNL     1       4.475  29.603  48.452  1.00  0.00     0.125 C 
HETATM    2  N   UNL     1       4.587  29.541  49.912  1.00  0.00    -0.365 N 
HETATM    3  C   UNL     1       4.664  28.371  50.589  1.00  0.00     0.141 A 
HETATM    4  N   UNL     1       4.789  27.177  49.935  1.00  0.00    -0.238 N 
HETATM    5  N   UNL     1       4.982  26.120  50.751  1.00  0.00    -0.163 NA
HETATM    6  C   UNL     1       4.862  26.650  51.993  1.00  0.00     0.165 A 
HETATM    7  C   UNL     1       4.661  28.050  51.922  1.00  0.00     0.092 A 
HETATM    8 BR   UNL     1       4.494  29.237  53.362  1.00  0.00    -0.044 Br
HETATM    9  C   UNL     1       4.776  27.036  48.490  1.00  0.00     0.221 C 
HETATM   10  C   UNL     1       5.162  28.370  47.830  1.00  0.00     0.067 C 
HETATM   11  H   UNL     1       4.249  30.379  50.388  1.00  0.00     0.162 HD
ENDROOT
BRANCH   6  12
HETATM   12  C   UNL     1       4.982  25.785  53.172  1.00  0.00     0.273 C 
HETATM   13  N   UNL     1       5.829  26.283  54.142  1.00  0.00    -0.355 N 
HETATM   14  H   UNL     1       6.333  27.131  53.870  1.00  0.00     0.162 HD
HETATM   15  O   UNL     1       4.369  24.730  53.348  1.00  0.00    -0.266 OA
BRANCH  13  16
HETATM   16  C   UNL     1       6.220  25.544  55.316  1.00  0.00     0.124 C 
BRANCH  16  17
HETATM   17  C   UNL     1       7.614  24.923  55.217  1.00  0.00     0.047 C 
BRANCH  17  18
HETATM   18  C   UNL     1       7.950  24.166  53.930  1.00  0.00     0.236 C 
BRANCH  18  19
HETATM   19  N   UNL     1       7.718  22.682  54.009  1.00  0.00    -0.067 N 
HETATM   20  H   UNL     1       6.687  22.536  53.960  1.00  0.00     0.280 HD
HETATM   21  C   UNL     1       8.385  21.865  52.918  1.00  0.00     0.261 C 
HETATM   22  C   UNL     1       8.066  20.378  53.109  1.00  0.00     0.195 C 
HETATM   23  O   UNL     1       8.472  19.925  54.405  1.00  0.00    -0.388 OA
HETATM   24  C   UNL     1       7.782  20.632  55.443  1.00  0.00     0.195 C 
HETATM   25  C   UNL     1       8.100  22.130  55.382  1.00  0.00     0.261 C 
ENDBRANCH  18  19
ENDBRANCH  17  18
ENDBRANCH  16  17
ENDBRANCH  13  16
ENDBRANCH   6  12
BRANCH   9  26
HETATM   26  C   UNL     1       3.440  26.484  48.046  1.00  0.00     0.409 C 
HETATM   27  F   UNL     1       2.395  26.963  48.744  1.00  0.00    -0.169 F 
HETATM   28  F   UNL     1       3.225  26.773  46.738  1.00  0.00    -0.169 F 
HETATM   29  F   UNL     1       3.408  25.133  48.149  1.00  0.00    -0.169 F 
ENDBRANCH   9  26
BRANCH   1  30
HETATM   30  C   UNL     1       3.095  29.879  47.887  1.00  0.00     0.005 A 
HETATM   31  S   UNL     1       1.775  30.281  48.915  1.00  0.00    -0.104 SA
HETATM   32  C   UNL     1       0.706  30.464  47.596  1.00  0.00     0.050 A 
HETATM   33  C   UNL     1       1.336  30.261  46.390  1.00  0.00     0.008 A 
HETATM   34  C   UNL     1       2.713  29.938  46.556  1.00  0.00     0.017 A 
ENDBRANCH   1  30
TORSDOF 7
ENDMDL
MODEL 6
REMARK VINA RESULT:      -7.9      4.549      9.264
REMARK  7 active torsions:
REMARK  status: ('A' for Active; 'I' for Inactive)
REMARK    1  A    between atoms: C_4  and  C_5 
REMARK    2  A    between atoms: C_10  and  C_11 
REMARK       I    between atoms: C_11  and  N_12 
REMARK    3  A    between atoms: N_12  and  C_13 
REMARK    4  A    between atoms: C_13  and  C_14 
REMARK    5  A    between atoms: C_14  and  C_15 
REMARK    6  A    between atoms: C_15  and  N_16 
REMARK    7  A    between atoms: C_26  and  C_27 
ROOT
HETATM    1  C   UNL     1       4.063  32.899  62.486  1.00  0.00     0.125 C 
HETATM    2  N   UNL     1       4.434  32.682  61.085  1.00  0.00    -0.365 N 
HETATM    3  C   UNL     1       5.681  32.311  60.709  1.00  0.00     0.141 A 
HETATM    4  N   UNL     1       6.633  31.975  61.631  1.00  0.00    -0.238 N 
HETATM    5  N   UNL     1       7.778  31.507  61.094  1.00  0.00    -0.163 NA
HETATM    6  C   UNL     1       7.590  31.657  59.760  1.00  0.00     0.165 A 
HETATM    7  C   UNL     1       6.293  32.159  59.491  1.00  0.00     0.092 A 
HETATM    8 BR   UNL     1       5.539  32.483  57.807  1.00  0.00    -0.044 Br
HETATM    9  C   UNL     1       6.435  32.051  63.067  1.00  0.00     0.221 C 
HETATM   10  C   UNL     1       4.933  32.005  63.394  1.00  0.00     0.067 C 
HETATM   11  H   UNL     1       3.826  33.160  60.419  1.00  0.00     0.162 HD
ENDROOT
BRANCH   6  12
HETATM   12  C   UNL     1       8.654  31.277  58.824  1.00  0.00     0.273 C 
HETATM   13  N   UNL     1       8.445  30.057  58.212  1.00  0.00    -0.355 N 
HETATM   14  H   UNL     1       7.635  29.540  58.562  1.00  0.00     0.162 HD
HETATM   15  O   UNL     1       9.635  31.968  58.540  1.00  0.00    -0.266 OA
BRANCH  13  16
HETATM   16  C   UNL     1       9.420  29.409  57.371  1.00  0.00     0.124 C 
BRANCH  16  17
HETATM   17  C   UNL     1       8.964  28.053  56.834  1.00  0.00     0.047 C 
BRANCH  17  18
HETATM   18  C   UNL     1       7.670  27.473  57.411  1.00  0.00     0.236 C 
BRANCH  18  19
HETATM   19  N   UNL     1       7.413  26.040  57.034  1.00  0.00    -0.067 N 
HETATM   20  H   UNL     1       6.685  25.683  57.689  1.00  0.00     0.280 HD
HETATM   21  C   UNL     1       6.945  25.821  55.607  1.00  0.00     0.261 C 
HETATM   22  C   UNL     1       6.714  24.327  55.356  1.00  0.00     0.195 C 
HETATM   23  O   UNL     1       7.899  23.569  55.624  1.00  0.00    -0.388 OA
HETATM   24  C   UNL     1       8.300  23.700  56.993  1.00  0.00     0.195 C 
HETATM   25  C   UNL     1       8.629  25.160  57.325  1.00  0.00     0.261 C 
ENDBRANCH  18  19
ENDBRANCH  17  18
ENDBRANCH  16  17
ENDBRANCH  13  16
ENDBRANCH   6  12
BRANCH   9  26
HETATM   26  C   UNL     1       7.155  33.263  63.615  1.00  0.00     0.409 C 
HETATM   27  F   UNL     1       6.672  33.694  64.794  1.00  0.00    -0.169 F 
HETATM   28  F   UNL     1       8.472  32.988  63.788  1.00  0.00    -0.169 F 
HETATM   29  F   UNL     1       7.094  34.304  62.750  1.00  0.00    -0.169 F 
ENDBRANCH   9  26
BRANCH   1  30
HETATM   30  C   UNL     1       3.982  34.340  62.952  1.00  0.00     0.005 A 
HETATM   31  S   UNL     1       3.623  34.728  64.591  1.00  0.00    -0.104 SA
HETATM   32  C   UNL     1       3.761  36.405  64.302  1.00  0.00     0.050 A 
HETATM   33  C   UNL     1       4.105  36.677  62.999  1.00  0.00     0.008 A 
HETATM   34  C   UNL     1       4.246  35.490  62.225  1.00  0.00     0.017 A 
ENDBRANCH   1  30
TORSDOF 7
ENDMDL
MODEL 7
REMARK VINA RESULT:      -7.7      6.938     10.714
REMARK  7 active torsions:
REMARK  status: ('A' for Active; 'I' for Inactive)
REMARK    1  A    between atoms: C_4  and  C_5 
REMARK    2  A    between atoms: C_10  and  C_11 
REMARK       I    between atoms: C_11  and  N_12 
REMARK    3  A    between atoms: N_12  and  C_13 
REMARK    4  A    between atoms: C_13  and  C_14 
REMARK    5  A    between atoms: C_14  and  C_15 
REMARK    6  A    between atoms: C_15  and  N_16 
REMARK    7  A    between atoms: C_26  and  C_27 
ROOT
HETATM    1  C   UNL     1       5.437  26.368  55.335  1.00  0.00     0.125 C 
HETATM    2  N   UNL     1       4.736  27.143  54.308  1.00  0.00    -0.365 N 
HETATM    3  C   UNL     1       4.882  26.901  52.983  1.00  0.00     0.141 A 
HETATM    4  N   UNL     1       5.583  25.817  52.531  1.00  0.00    -0.238 N 
HETATM    5  N   UNL     1       5.528  25.645  51.195  1.00  0.00    -0.163 NA
HETATM    6  C   UNL     1       4.851  26.737  50.760  1.00  0.00     0.165 A 
HETATM    7  C   UNL     1       4.439  27.538  51.853  1.00  0.00     0.092 A 
HETATM    8 BR   UNL     1       3.430  29.114  51.774  1.00  0.00    -0.044 Br
HETATM    9  C   UNL     1       6.286  24.886  53.395  1.00  0.00     0.221 C 
HETATM   10  C   UNL     1       5.697  24.939  54.814  1.00  0.00     0.067 C 
HETATM   11  H   UNL     1       4.434  28.067  54.622  1.00  0.00     0.162 HD
ENDROOT
BRANCH   6  12
HETATM   12  C   UNL     1       4.612  26.925  49.325  1.00  0.00     0.273 C 
HETATM   13  N   UNL     1       5.392  27.913  48.756  1.00  0.00    -0.355 N 
HETATM   14  H   UNL     1       5.955  28.445  49.424  1.00  0.00     0.162 HD
HETATM   15  O   UNL     1       3.837  26.257  48.637  1.00  0.00    -0.266 OA
BRANCH  13  16
HETATM   16  C   UNL     1       5.229  28.377  47.402  1.00  0.00     0.124 C 
BRANCH  16  17
HETATM   17  C   UNL     1       4.180  29.479  47.251  1.00  0.00     0.047 C 
BRANCH  17  18
HETATM   18  C   UNL     1       4.078  30.504  48.383  1.00  0.00     0.236 C 
BRANCH  18  19
HETATM   19  N   UNL     1       4.747  31.818  48.088  1.00  0.00    -0.067 N 
HETATM   20  H   UNL     1       4.047  32.564  48.293  1.00  0.00     0.280 HD
HETATM   21  C   UNL     1       6.010  32.094  48.882  1.00  0.00     0.261 C 
HETATM   22  C   UNL     1       6.584  33.461  48.494  1.00  0.00     0.195 C 
HETATM   23  O   UNL     1       6.842  33.531  47.087  1.00  0.00    -0.388 OA
HETATM   24  C   UNL     1       5.638  33.359  46.329  1.00  0.00     0.195 C 
HETATM   25  C   UNL     1       5.023  31.980  46.594  1.00  0.00     0.261 C 
ENDBRANCH  18  19
ENDBRANCH  17  18
ENDBRANCH  16  17
ENDBRANCH  13  16
ENDBRANCH   6  12
BRANCH   9  26
HETATM   26  C   UNL     1       7.773  25.154  53.327  1.00  0.00     0.409 C 
HETATM   27  F   UNL     1       8.448  24.749  54.417  1.00  0.00    -0.169 F 
HETATM   28  F   UNL     1       8.314  24.525  52.254  1.00  0.00    -0.169 F 
HETATM   29  F   UNL     1       8.028  26.475  53.164  1.00  0.00    -0.169 F 
ENDBRANCH   9  26
BRANCH   1  30
HETATM   30  C   UNL     1       6.655  27.016  55.963  1.00  0.00     0.005 A 
HETATM   31  S   UNL     1       7.086  28.643  55.601  1.00  0.00    -0.104 SA
HETATM   32  C   UNL     1       8.422  28.605  56.664  1.00  0.00     0.050 A 
HETATM   33  C   UNL     1       8.530  27.397  57.313  1.00  0.00     0.008 A 
HETATM   34  C   UNL     1       7.506  26.488  56.921  1.00  0.00     0.017 A 
ENDBRANCH   1  30
TORSDOF 7
ENDMDL
MODEL 8
REMARK VINA RESULT:      -7.6      1.727      2.317
REMARK  7 active torsions:
REMARK  status: ('A' for Active; 'I' for Inactive)
REMARK    1  A    between atoms: C_4  and  C_5 
REMARK    2  A    between atoms: C_10  and  C_11 
REMARK       I    between atoms: C_11  and  N_12 
REMARK    3  A    between atoms: N_12  and  C_13 
REMARK    4  A    between atoms: C_13  and  C_14 
REMARK    5  A    between atoms: C_14  and  C_15 
REMARK    6  A    between atoms: C_15  and  N_16 
REMARK    7  A    between atoms: C_26  and  C_27 
ROOT
HETATM    1  C   UNL     1       6.730  26.571  55.772  1.00  0.00     0.125 C 
HETATM    2  N   UNL     1       7.922  27.334  56.153  1.00  0.00    -0.365 N 
HETATM    3  C   UNL     1       7.862  28.449  56.919  1.00  0.00     0.141 A 
HETATM    4  N   UNL     1       6.693  28.847  57.506  1.00  0.00    -0.238 N 
HETATM    5  N   UNL     1       6.826  29.900  58.338  1.00  0.00    -0.163 NA
HETATM    6  C   UNL     1       8.124  30.263  58.189  1.00  0.00     0.165 A 
HETATM    7  C   UNL     1       8.793  29.377  57.309  1.00  0.00     0.092 A 
HETATM    8 BR   UNL     1      10.602  29.423  56.828  1.00  0.00    -0.044 Br
HETATM    9  C   UNL     1       5.419  28.180  57.312  1.00  0.00     0.221 C 
HETATM   10  C   UNL     1       5.649  26.728  56.862  1.00  0.00     0.067 C 
HETATM   11  H   UNL     1       8.720  27.189  55.532  1.00  0.00     0.162 HD
ENDROOT
BRANCH   6  12
HETATM   12  C   UNL     1       8.651  31.416  58.928  1.00  0.00     0.273 C 
HETATM   13  N   UNL     1       7.946  31.706  60.079  1.00  0.00    -0.355 N 
HETATM   14  H   UNL     1       7.099  31.147  60.211  1.00  0.00     0.162 HD
HETATM   15  O   UNL     1       9.652  32.065  58.618  1.00  0.00    -0.266 OA
BRANCH  13  16
HETATM   16  C   UNL     1       8.183  32.877  60.886  1.00  0.00     0.124 C 
BRANCH  16  17
HETATM   17  C   UNL     1       7.477  32.843  62.241  1.00  0.00     0.047 C 
BRANCH  17  18
HETATM   18  C   UNL     1       6.147  33.591  62.353  1.00  0.00     0.236 C 
BRANCH  18  19
HETATM   19  N   UNL     1       5.213  33.367  61.195  1.00  0.00    -0.067 N 
HETATM   20  H   UNL     1       5.808  33.151  60.367  1.00  0.00     0.280 HD
HETATM   21  C   UNL     1       4.204  32.250  61.386  1.00  0.00     0.261 C 
HETATM   22  C   UNL     1       3.323  32.122  60.138  1.00  0.00     0.195 C 
HETATM   23  O   UNL     1       2.664  33.358  59.843  1.00  0.00    -0.388 OA
HETATM   24  C   UNL     1       3.610  34.401  59.575  1.00  0.00     0.195 C 
HETATM   25  C   UNL     1       4.495  34.657  60.800  1.00  0.00     0.261 C 
ENDBRANCH  18  19
ENDBRANCH  17  18
ENDBRANCH  16  17
ENDBRANCH  13  16
ENDBRANCH   6  12
BRANCH   9  26
HETATM   26  C   UNL     1       4.556  28.995  56.375  1.00  0.00     0.409 C 
HETATM   27  F   UNL     1       3.741  29.862  57.002  1.00  0.00    -0.169 F 
HETATM   28  F   UNL     1       5.333  29.708  55.522  1.00  0.00    -0.169 F 
HETATM   29  F   UNL     1       3.777  28.197  55.605  1.00  0.00    -0.169 F 
ENDBRANCH   9  26
BRANCH   1  30
HETATM   30  C   UNL     1       6.209  26.782  54.364  1.00  0.00     0.005 A 
HETATM   31  S   UNL     1       6.871  27.999  53.342  1.00  0.00    -0.104 SA
HETATM   32  C   UNL     1       5.848  27.570  52.044  1.00  0.00     0.050 A 
HETATM   33  C   UNL     1       5.039  26.502  52.356  1.00  0.00     0.008 A 
HETATM   34  C   UNL     1       5.256  26.040  53.685  1.00  0.00     0.017 A 
ENDBRANCH   1  30
TORSDOF 7
ENDMDL
MODEL 9
REMARK VINA RESULT:      -7.5      5.378      8.787
REMARK  7 active torsions:
REMARK  status: ('A' for Active; 'I' for Inactive)
REMARK    1  A    between atoms: C_4  and  C_5 
REMARK    2  A    between atoms: C_10  and  C_11 
REMARK       I    between atoms: C_11  and  N_12 
REMARK    3  A    between atoms: N_12  and  C_13 
REMARK    4  A    between atoms: C_13  and  C_14 
REMARK    5  A    between atoms: C_14  and  C_15 
REMARK    6  A    between atoms: C_15  and  N_16 
REMARK    7  A    between atoms: C_26  and  C_27 
ROOT
HETATM    1  C   UNL     1       4.498  29.419  48.272  1.00  0.00     0.125 C 
HETATM    2  N   UNL     1       4.723  29.306  49.715  1.00  0.00    -0.365 N 
HETATM    3  C   UNL     1       4.813  28.113  50.350  1.00  0.00     0.141 A 
HETATM    4  N   UNL     1       4.845  26.937  49.653  1.00  0.00    -0.238 N 
HETATM    5  N   UNL     1       5.065  25.849  50.419  1.00  0.00    -0.163 NA
HETATM    6  C   UNL     1       5.062  26.342  51.682  1.00  0.00     0.165 A 
HETATM    7  C   UNL     1       4.904  27.750  51.669  1.00  0.00     0.092 A 
HETATM    8 BR   UNL     1       4.893  28.894  53.151  1.00  0.00    -0.044 Br
HETATM    9  C   UNL     1       4.713  26.843  48.210  1.00  0.00     0.221 C 
HETATM   10  C   UNL     1       5.092  28.185  47.560  1.00  0.00     0.067 C 
HETATM   11  H   UNL     1       4.453  30.139  50.241  1.00  0.00     0.162 HD
ENDROOT
BRANCH   6  12
HETATM   12  C   UNL     1       5.246  25.436  52.821  1.00  0.00     0.273 C 
HETATM   13  N   UNL     1       6.489  25.532  53.412  1.00  0.00    -0.355 N 
HETATM   14  H   UNL     1       7.146  26.144  52.921  1.00  0.00     0.162 HD
HETATM   15  O   UNL     1       4.386  24.678  53.276  1.00  0.00    -0.266 OA
BRANCH  13  16
HETATM   16  C   UNL     1       6.952  24.643  54.448  1.00  0.00     0.124 C 
BRANCH  16  17
HETATM   17  C   UNL     1       6.560  25.084  55.858  1.00  0.00     0.047 C 
BRANCH  17  18
HETATM   18  C   UNL     1       7.639  25.771  56.699  1.00  0.00     0.236 C 
BRANCH  18  19
HETATM   19  N   UNL     1       7.199  27.061  57.334  1.00  0.00    -0.067 N 
HETATM   20  H   UNL     1       6.861  26.824  58.291  1.00  0.00     0.280 HD
HETATM   21  C   UNL     1       8.272  28.129  57.438  1.00  0.00     0.261 C 
HETATM   22  C   UNL     1       7.698  29.383  58.107  1.00  0.00     0.195 C 
HETATM   23  O   UNL     1       6.559  29.874  57.391  1.00  0.00    -0.388 OA
HETATM   24  C   UNL     1       5.506  28.903  57.363  1.00  0.00     0.195 C 
HETATM   25  C   UNL     1       5.961  27.630  56.641  1.00  0.00     0.261 C 
ENDBRANCH  18  19
ENDBRANCH  17  18
ENDBRANCH  16  17
ENDBRANCH  13  16
ENDBRANCH   6  12
BRANCH   9  26
HETATM   26  C   UNL     1       3.328  26.349  47.857  1.00  0.00     0.409 C 
HETATM   27  F   UNL     1       2.373  26.755  48.713  1.00  0.00    -0.169 F 
HETATM   28  F   UNL     1       2.978  26.777  46.619  1.00  0.00    -0.169 F 
HETATM   29  F   UNL     1       3.284  24.995  47.820  1.00  0.00    -0.169 F 
ENDBRANCH   9  26
BRANCH   1  30
HETATM   30  C   UNL     1       3.089  29.756  47.827  1.00  0.00     0.005 A 
HETATM   31  S   UNL     1       1.836  30.037  48.973  1.00  0.00    -0.104 SA
HETATM   32  C   UNL     1       0.690  30.369  47.752  1.00  0.00     0.050 A 
HETATM   33  C   UNL     1       1.244  30.306  46.494  1.00  0.00     0.008 A 
HETATM   34  C   UNL     1       2.627  29.967  46.538  1.00  0.00     0.017 A 
ENDBRANCH   1  30
TORSDOF 7
ENDMDL
MODEL 10
REMARK VINA RESULT:      -7.4      3.976      9.551
REMARK  7 active torsions:
REMARK  status: ('A' for Active; 'I' for Inactive)
REMARK    1  A    between atoms: C_4  and  C_5 
REMARK    2  A    between atoms: C_10  and  C_11 
REMARK       I    between atoms: C_11  and  N_12 
REMARK    3  A    between atoms: N_12  and  C_13 
REMARK    4  A    between atoms: C_13  and  C_14 
REMARK    5  A    between atoms: C_14  and  C_15 
REMARK    6  A    between atoms: C_15  and  N_16 
REMARK    7  A    between atoms: C_26  and  C_27 
ROOT
HETATM    1  C   UNL     1       5.734  34.949  62.338  1.00  0.00     0.125 C 
HETATM    2  N   UNL     1       6.918  34.142  62.032  1.00  0.00    -0.365 N 
HETATM    3  C   UNL     1       6.897  33.121  61.143  1.00  0.00     0.141 A 
HETATM    4  N   UNL     1       5.798  32.875  60.368  1.00  0.00    -0.238 N 
HETATM    5  N   UNL     1       5.981  31.907  59.447  1.00  0.00    -0.163 NA
HETATM    6  C   UNL     1       7.222  31.434  59.722  1.00  0.00     0.165 A 
HETATM    7  C   UNL     1       7.815  32.171  60.776  1.00  0.00     0.092 A 
HETATM    8 BR   UNL     1       9.535  31.939  61.480  1.00  0.00    -0.044 Br
HETATM    9  C   UNL     1       4.552  33.612  60.468  1.00  0.00     0.221 C 
HETATM   10  C   UNL     1       4.805  34.987  61.106  1.00  0.00     0.067 C 
HETATM   11  H   UNL     1       7.631  34.161  62.764  1.00  0.00     0.162 HD
ENDROOT
BRANCH   6  12
HETATM   12  C   UNL     1       7.774  30.328  58.932  1.00  0.00     0.273 C 
HETATM   13  N   UNL     1       6.816  29.585  58.271  1.00  0.00    -0.355 N 
HETATM   14  H   UNL     1       5.852  29.839  58.497  1.00  0.00     0.162 HD
HETATM   15  O   UNL     1       8.974  30.076  58.799  1.00  0.00    -0.266 OA
BRANCH  13  16
HETATM   16  C   UNL     1       7.104  28.366  57.558  1.00  0.00     0.124 C 
BRANCH  16  17
HETATM   17  C   UNL     1       6.365  28.244  56.225  1.00  0.00     0.047 C 
BRANCH  17  18
HETATM   18  C   UNL     1       5.622  26.933  55.957  1.00  0.00     0.236 C 
BRANCH  18  19
HETATM   19  N   UNL     1       6.451  25.883  55.269  1.00  0.00    -0.067 N 
HETATM   20  H   UNL     1       7.163  26.389  54.699  1.00  0.00     0.280 HD
HETATM   21  C   UNL     1       7.159  24.910  56.194  1.00  0.00     0.261 C 
HETATM   22  C   UNL     1       7.969  23.903  55.371  1.00  0.00     0.195 C 
HETATM   23  O   UNL     1       7.135  23.205  54.440  1.00  0.00    -0.388 OA
HETATM   24  C   UNL     1       6.530  24.109  53.507  1.00  0.00     0.195 C 
HETATM   25  C   UNL     1       5.631  25.117  54.232  1.00  0.00     0.261 C 
ENDBRANCH  18  19
ENDBRANCH  17  18
ENDBRANCH  16  17
ENDBRANCH  13  16
ENDBRANCH   6  12
BRANCH   9  26
HETATM   26  C   UNL     1       3.521  32.771  61.186  1.00  0.00     0.409 C 
HETATM   27  F   UNL     1       2.868  31.910  60.385  1.00  0.00    -0.169 F 
HETATM   28  F   UNL     1       4.109  32.047  62.171  1.00  0.00    -0.169 F 
HETATM   29  F   UNL     1       2.587  33.546  61.789  1.00  0.00    -0.169 F 
ENDBRANCH   9  26
BRANCH   1  30
HETATM   30  C   UNL     1       5.012  34.632  63.633  1.00  0.00     0.005 A 
HETATM   31  S   UNL     1       5.681  33.540  64.783  1.00  0.00    -0.104 SA
HETATM   32  C   UNL     1       4.381  33.766  65.866  1.00  0.00     0.050 A 
HETATM   33  C   UNL     1       3.466  34.676  65.391  1.00  0.00     0.008 A 
HETATM   34  C   UNL     1       3.835  35.185  64.113  1.00  0.00     0.017 A 
ENDBRANCH   1  30
TORSDOF 7
ENDMDL
