MODEL 1
REMARK VINA RESULT:      -8.3      0.000      0.000
REMARK  3 active torsions:
REMARK  status: ('A' for Active; 'I' for Inactive)
REMARK       I    between atoms: C_2  and  N_3 
REMARK    1  A    between atoms: N_3  and  C_4 
REMARK    2  A    between atoms: C_7  and  N_8 
REMARK       I    between atoms: N_8  and  C_9 
REMARK    3  A    between atoms: C_9  and  C_10 
ROOT
HETATM    1  C   UNL     1       8.504  31.009  59.959  1.00  0.00     0.052 A 
HETATM    2  C   UNL     1       7.372  31.804  59.829  1.00  0.00     0.148 A 
HETATM    3  N   UNL     1       6.777  32.460  60.860  1.00  0.00    -0.241 NA
HETATM    4  C   UNL     1       7.319  32.325  62.088  1.00  0.00     0.130 A 
HETATM    5  C   UNL     1       8.446  31.552  62.316  1.00  0.00     0.053 A 
HETATM    6  C   UNL     1       9.042  30.891  61.238  1.00  0.00     0.035 A 
ENDROOT
BRANCH   4   7
HETATM    7  N   UNL     1       6.636  33.042  63.072  1.00  0.00    -0.307 N 
HETATM    8  C   UNL     1       5.498  32.693  63.754  1.00  0.00     0.259 C 
HETATM    9  O   UNL     1       4.880  31.645  63.583  1.00  0.00    -0.267 OA
HETATM   10  H   UNL     1       7.073  33.938  63.245  1.00  0.00     0.170 HD
BRANCH   8  11
HETATM   11  C   UNL     1       4.988  33.650  64.798  1.00  0.00     0.054 A 
HETATM   12  C   UNL     1       3.760  34.331  64.784  1.00  0.00     0.049 A 
HETATM   13 CL   UNL     1       2.557  34.164  63.553  1.00  0.00    -0.083 Cl
HETATM   14  C   UNL     1       3.424  35.205  65.833  1.00  0.00     0.025 A 
HETATM   15  C   UNL     1       4.294  35.404  66.904  1.00  0.00     0.002 A 
HETATM   16  C   UNL     1       5.507  34.731  66.937  1.00  0.00     0.001 A 
HETATM   17  C   UNL     1       5.849  33.864  65.896  1.00  0.00     0.019 A 
ENDBRANCH   8  11
ENDBRANCH   4   7
BRANCH   1  18
HETATM   18  N   UNL     1       9.147  30.325  58.907  1.00  0.00    -0.326 N 
HETATM   19  C   UNL     1      10.133  30.825  58.079  1.00  0.00     0.218 C 
HETATM   20  C   UNL     1      10.600  29.807  57.070  1.00  0.00     0.117 C 
HETATM   21  O   UNL     1      10.602  31.956  58.105  1.00  0.00    -0.274 OA
HETATM   22  H   UNL     1       8.851  29.370  58.746  1.00  0.00     0.169 HD
ENDBRANCH   1  18
TORSDOF 3
ENDMDL
MODEL 2
REMARK VINA RESULT:      -8.1      6.864     11.627
REMARK  3 active torsions:
REMARK  status: ('A' for Active; 'I' for Inactive)
REMARK       I    between atoms: C_2  and  N_3 
REMARK    1  A    between atoms: N_3  and  C_4 
REMARK    2  A    between atoms: C_7  and  N_8 
REMARK       I    between atoms: N_8  and  C_9 
REMARK    3  A    between atoms: C_9  and  C_10 
ROOT
HETATM    1  C   UNL     1       7.225  29.056  57.788  1.00  0.00     0.052 A 
HETATM    2  C   UNL     1       6.178  28.210  57.442  1.00  0.00     0.148 A 
HETATM    3  N   UNL     1       6.336  27.029  56.788  1.00  0.00    -0.241 NA
HETATM    4  C   UNL     1       7.587  26.659  56.449  1.00  0.00     0.130 A 
HETATM    5  C   UNL     1       8.693  27.438  56.751  1.00  0.00     0.053 A 
HETATM    6  C   UNL     1       8.506  28.646  57.429  1.00  0.00     0.035 A 
ENDROOT
BRANCH   4   7
HETATM    7  N   UNL     1       7.638  25.432  55.787  1.00  0.00    -0.307 N 
HETATM    8  C   UNL     1       8.273  24.277  56.168  1.00  0.00     0.259 C 
HETATM    9  O   UNL     1       8.927  24.152  57.201  1.00  0.00    -0.267 OA
HETATM   10  H   UNL     1       7.144  25.468  54.905  1.00  0.00     0.170 HD
BRANCH   8  11
HETATM   11  C   UNL     1       8.137  23.076  55.270  1.00  0.00     0.054 A 
HETATM   12  C   UNL     1       8.150  21.728  55.664  1.00  0.00     0.049 A 
HETATM   13 CL   UNL     1       8.289  21.183  57.299  1.00  0.00    -0.083 Cl
HETATM   14  C   UNL     1       8.021  20.709  54.703  1.00  0.00     0.025 A 
HETATM   15  C   UNL     1       7.870  21.016  53.352  1.00  0.00     0.002 A 
HETATM   16  C   UNL     1       7.845  22.344  52.948  1.00  0.00     0.001 A 
HETATM   17  C   UNL     1       7.977  23.361  53.897  1.00  0.00     0.019 A 
ENDBRANCH   8  11
ENDBRANCH   4   7
BRANCH   1  18
HETATM   18  N   UNL     1       7.093  30.280  58.474  1.00  0.00    -0.326 N 
HETATM   19  C   UNL     1       7.817  30.690  59.578  1.00  0.00     0.218 C 
HETATM   20  C   UNL     1       7.416  32.067  60.042  1.00  0.00     0.117 C 
HETATM   21  O   UNL     1       8.683  30.050  60.160  1.00  0.00    -0.274 OA
HETATM   22  H   UNL     1       6.394  30.921  58.120  1.00  0.00     0.169 HD
ENDBRANCH   1  18
TORSDOF 3
ENDMDL
MODEL 3
REMARK VINA RESULT:      -8.0      7.057     11.723
REMARK  3 active torsions:
REMARK  status: ('A' for Active; 'I' for Inactive)
REMARK       I    between atoms: C_2  and  N_3 
REMARK    1  A    between atoms: N_3  and  C_4 
REMARK    2  A    between atoms: C_7  and  N_8 
REMARK       I    between atoms: N_8  and  C_9 
REMARK    3  A    between atoms: C_9  and  C_10 
ROOT
HETATM    1  C   UNL     1       7.036  28.961  57.648  1.00  0.00     0.052 A 
HETATM    2  C   UNL     1       8.209  28.362  57.206  1.00  0.00     0.148 A 
HETATM    3  N   UNL     1       8.257  27.172  56.550  1.00  0.00    -0.241 NA
HETATM    4  C   UNL     1       7.093  26.531  56.321  1.00  0.00     0.130 A 
HETATM    5  C   UNL     1       5.874  27.050  56.727  1.00  0.00     0.053 A 
HETATM    6  C   UNL     1       5.849  28.278  57.394  1.00  0.00     0.035 A 
ENDROOT
BRANCH   4   7
HETATM    7  N   UNL     1       7.254  25.324  55.640  1.00  0.00    -0.307 N 
HETATM    8  C   UNL     1       7.969  24.216  56.014  1.00  0.00     0.259 C 
HETATM    9  O   UNL     1       8.609  24.123  57.059  1.00  0.00    -0.267 OA
HETATM   10  H   UNL     1       6.776  25.339  54.747  1.00  0.00     0.170 HD
BRANCH   8  11
HETATM   11  C   UNL     1       7.947  23.025  55.094  1.00  0.00     0.054 A 
HETATM   12  C   UNL     1       7.967  23.048  53.690  1.00  0.00     0.049 A 
HETATM   13 CL   UNL     1       8.064  24.485  52.732  1.00  0.00    -0.083 Cl
HETATM   14  C   UNL     1       7.933  21.846  52.962  1.00  0.00     0.025 A 
HETATM   15  C   UNL     1       7.886  20.616  53.615  1.00  0.00     0.002 A 
HETATM   16  C   UNL     1       7.875  20.575  55.002  1.00  0.00     0.001 A 
HETATM   17  C   UNL     1       7.905  21.766  55.732  1.00  0.00     0.019 A 
ENDBRANCH   8  11
ENDBRANCH   4   7
BRANCH   1  18
HETATM   18  N   UNL     1       6.954  30.197  58.321  1.00  0.00    -0.326 N 
HETATM   19  C   UNL     1       7.757  30.626  59.361  1.00  0.00     0.218 C 
HETATM   20  C   UNL     1       7.390  32.011  59.829  1.00  0.00     0.117 C 
HETATM   21  O   UNL     1       8.664  29.995  59.889  1.00  0.00    -0.274 OA
HETATM   22  H   UNL     1       6.230  30.832  58.007  1.00  0.00     0.169 HD
ENDBRANCH   1  18
TORSDOF 3
ENDMDL
MODEL 4
REMARK VINA RESULT:      -7.9     11.927     13.638
REMARK  3 active torsions:
REMARK  status: ('A' for Active; 'I' for Inactive)
REMARK       I    between atoms: C_2  and  N_3 
REMARK    1  A    between atoms: N_3  and  C_4 
REMARK    2  A    between atoms: C_7  and  N_8 
REMARK       I    between atoms: N_8  and  C_9 
REMARK    3  A    between atoms: C_9  and  C_10 
ROOT
HETATM    1  C   UNL     1       4.620  28.225  51.132  1.00  0.00     0.052 A 
HETATM    2  C   UNL     1       4.894  28.031  52.480  1.00  0.00     0.148 A 
HETATM    3  N   UNL     1       5.351  26.862  53.005  1.00  0.00    -0.241 NA
HETATM    4  C   UNL     1       5.543  25.826  52.164  1.00  0.00     0.130 A 
HETATM    5  C   UNL     1       5.295  25.925  50.804  1.00  0.00     0.053 A 
HETATM    6  C   UNL     1       4.831  27.139  50.287  1.00  0.00     0.035 A 
ENDROOT
BRANCH   4   7
HETATM    7  N   UNL     1       6.015  24.679  52.802  1.00  0.00    -0.307 N 
HETATM    8  C   UNL     1       7.305  24.225  52.907  1.00  0.00     0.259 C 
HETATM    9  O   UNL     1       8.282  24.792  52.424  1.00  0.00    -0.267 OA
HETATM   10  H   UNL     1       5.256  24.140  53.199  1.00  0.00     0.170 HD
BRANCH   8  11
HETATM   11  C   UNL     1       7.539  22.959  53.688  1.00  0.00     0.054 A 
HETATM   12  C   UNL     1       7.475  22.809  55.083  1.00  0.00     0.049 A 
HETATM   13 CL   UNL     1       7.066  24.074  56.190  1.00  0.00    -0.083 Cl
HETATM   14  C   UNL     1       7.729  21.558  55.673  1.00  0.00     0.025 A 
HETATM   15  C   UNL     1       8.039  20.448  54.889  1.00  0.00     0.002 A 
HETATM   16  C   UNL     1       8.096  20.578  53.508  1.00  0.00     0.001 A 
HETATM   17  C   UNL     1       7.849  21.819  52.916  1.00  0.00     0.019 A 
ENDBRANCH   8  11
ENDBRANCH   4   7
BRANCH   1  18
HETATM   18  N   UNL     1       4.156  29.426  50.558  1.00  0.00    -0.326 N 
HETATM   19  C   UNL     1       4.930  30.489  50.130  1.00  0.00     0.218 C 
HETATM   20  C   UNL     1       4.095  31.605  49.556  1.00  0.00     0.117 C 
HETATM   21  O   UNL     1       6.149  30.575  50.195  1.00  0.00    -0.274 OA
HETATM   22  H   UNL     1       3.154  29.516  50.453  1.00  0.00     0.169 HD
ENDBRANCH   1  18
TORSDOF 3
ENDMDL
MODEL 5
REMARK VINA RESULT:      -7.9      7.148     11.844
REMARK  3 active torsions:
REMARK  status: ('A' for Active; 'I' for Inactive)
REMARK       I    between atoms: C_2  and  N_3 
REMARK    1  A    between atoms: N_3  and  C_4 
REMARK    2  A    between atoms: C_7  and  N_8 
REMARK       I    between atoms: N_8  and  C_9 
REMARK    3  A    between atoms: C_9  and  C_10 
ROOT
HETATM    1  C   UNL     1       6.730  28.845  57.658  1.00  0.00     0.052 A 
HETATM    2  C   UNL     1       5.744  28.021  57.130  1.00  0.00     0.148 A 
HETATM    3  N   UNL     1       5.991  26.842  56.500  1.00  0.00    -0.241 NA
HETATM    4  C   UNL     1       7.276  26.452  56.376  1.00  0.00     0.130 A 
HETATM    5  C   UNL     1       8.327  27.208  56.869  1.00  0.00     0.053 A 
HETATM    6  C   UNL     1       8.047  28.415  57.517  1.00  0.00     0.035 A 
ENDROOT
BRANCH   4   7
HETATM    7  N   UNL     1       7.418  25.229  55.719  1.00  0.00    -0.307 N 
HETATM    8  C   UNL     1       8.133  24.124  56.108  1.00  0.00     0.259 C 
HETATM    9  O   UNL     1       8.789  24.051  57.144  1.00  0.00    -0.267 OA
HETATM   10  H   UNL     1       6.927  25.226  54.835  1.00  0.00     0.170 HD
BRANCH   8  11
HETATM   11  C   UNL     1       8.089  22.913  55.215  1.00  0.00     0.054 A 
HETATM   12  C   UNL     1       8.170  21.570  55.618  1.00  0.00     0.049 A 
HETATM   13 CL   UNL     1       8.299  21.042  57.259  1.00  0.00    -0.083 Cl
HETATM   14  C   UNL     1       8.122  20.541  54.661  1.00  0.00     0.025 A 
HETATM   15  C   UNL     1       7.987  20.831  53.304  1.00  0.00     0.002 A 
HETATM   16  C   UNL     1       7.895  22.153  52.891  1.00  0.00     0.001 A 
HETATM   17  C   UNL     1       7.946  23.181  53.837  1.00  0.00     0.019 A 
ENDBRANCH   8  11
ENDBRANCH   4   7
BRANCH   1  18
HETATM   18  N   UNL     1       6.504  30.067  58.324  1.00  0.00    -0.326 N 
HETATM   19  C   UNL     1       5.927  31.204  57.789  1.00  0.00     0.218 C 
HETATM   20  C   UNL     1       5.833  32.321  58.797  1.00  0.00     0.117 C 
HETATM   21  O   UNL     1       5.533  31.349  56.639  1.00  0.00    -0.274 OA
HETATM   22  H   UNL     1       6.797  30.112  59.291  1.00  0.00     0.169 HD
ENDBRANCH   1  18
TORSDOF 3
ENDMDL
MODEL 6
REMARK VINA RESULT:      -7.7      6.215      9.196
REMARK  3 active torsions:
REMARK  status: ('A' for Active; 'I' for Inactive)
REMARK       I    between atoms: C_2  and  N_3 
REMARK    1  A    between atoms: N_3  and  C_4 
REMARK    2  A    between atoms: C_7  and  N_8 
REMARK       I    between atoms: N_8  and  C_9 
REMARK    3  A    between atoms: C_9  and  C_10 
ROOT
HETATM    1  C   UNL     1       7.737  23.632  55.738  1.00  0.00     0.052 A 
HETATM    2  C   UNL     1       8.736  24.000  56.631  1.00  0.00     0.148 A 
HETATM    3  N   UNL     1       8.847  25.237  57.183  1.00  0.00    -0.241 NA
HETATM    4  C   UNL     1       7.934  26.167  56.836  1.00  0.00     0.130 A 
HETATM    5  C   UNL     1       6.903  25.893  55.951  1.00  0.00     0.053 A 
HETATM    6  C   UNL     1       6.807  24.612  55.400  1.00  0.00     0.035 A 
ENDROOT
BRANCH   4   7
HETATM    7  N   UNL     1       8.136  27.398  57.461  1.00  0.00    -0.307 N 
HETATM    8  C   UNL     1       8.475  28.601  56.897  1.00  0.00     0.259 C 
HETATM    9  O   UNL     1       8.662  28.776  55.695  1.00  0.00    -0.267 OA
HETATM   10  H   UNL     1       8.029  27.324  58.465  1.00  0.00     0.170 HD
BRANCH   8  11
HETATM   11  C   UNL     1       8.600  29.791  57.810  1.00  0.00     0.054 A 
HETATM   12  C   UNL     1       9.774  30.502  58.107  1.00  0.00     0.049 A 
HETATM   13 CL   UNL     1      11.328  30.158  57.431  1.00  0.00    -0.083 Cl
HETATM   14  C   UNL     1       9.735  31.594  58.992  1.00  0.00     0.025 A 
HETATM   15  C   UNL     1       8.537  31.995  59.581  1.00  0.00     0.002 A 
HETATM   16  C   UNL     1       7.366  31.309  59.290  1.00  0.00     0.001 A 
HETATM   17  C   UNL     1       7.399  30.220  58.415  1.00  0.00     0.019 A 
ENDBRANCH   8  11
ENDBRANCH   4   7
BRANCH   1  18
HETATM   18  N   UNL     1       7.590  22.356  55.158  1.00  0.00    -0.326 N 
HETATM   19  C   UNL     1       8.034  21.960  53.910  1.00  0.00     0.218 C 
HETATM   20  C   UNL     1       7.712  20.516  53.623  1.00  0.00     0.117 C 
HETATM   21  O   UNL     1       8.612  22.659  53.087  1.00  0.00    -0.274 OA
HETATM   22  H   UNL     1       7.108  21.662  55.715  1.00  0.00     0.169 HD
ENDBRANCH   1  18
TORSDOF 3
ENDMDL
MODEL 7
REMARK VINA RESULT:      -7.5      4.453      6.666
REMARK  3 active torsions:
REMARK  status: ('A' for Active; 'I' for Inactive)
REMARK       I    between atoms: C_2  and  N_3 
REMARK    1  A    between atoms: N_3  and  C_4 
REMARK    2  A    between atoms: C_7  and  N_8 
REMARK       I    between atoms: N_8  and  C_9 
REMARK    3  A    between atoms: C_9  and  C_10 
ROOT
HETATM    1  C   UNL     1       7.568  26.420  55.704  1.00  0.00     0.052 A 
HETATM    2  C   UNL     1       7.777  26.171  57.055  1.00  0.00     0.148 A 
HETATM    3  N   UNL     1       7.733  27.126  58.022  1.00  0.00    -0.241 NA
HETATM    4  C   UNL     1       7.477  28.395  57.643  1.00  0.00     0.130 A 
HETATM    5  C   UNL     1       7.258  28.739  56.319  1.00  0.00     0.053 A 
HETATM    6  C   UNL     1       7.302  27.738  55.344  1.00  0.00     0.035 A 
ENDROOT
BRANCH   4   7
HETATM    7  N   UNL     1       7.451  29.293  58.711  1.00  0.00    -0.307 N 
HETATM    8  C   UNL     1       8.411  30.192  59.100  1.00  0.00     0.259 C 
HETATM    9  O   UNL     1       9.493  30.340  58.536  1.00  0.00    -0.267 OA
HETATM   10  H   UNL     1       6.596  29.205  59.245  1.00  0.00     0.170 HD
BRANCH   8  11
HETATM   11  C   UNL     1       8.107  31.072  60.283  1.00  0.00     0.054 A 
HETATM   12  C   UNL     1       7.146  32.095  60.343  1.00  0.00     0.049 A 
HETATM   13 CL   UNL     1       6.079  32.519  59.050  1.00  0.00    -0.083 Cl
HETATM   14  C   UNL     1       6.982  32.842  61.523  1.00  0.00     0.025 A 
HETATM   15  C   UNL     1       7.758  32.578  62.650  1.00  0.00     0.002 A 
HETATM   16  C   UNL     1       8.705  31.564  62.610  1.00  0.00     0.001 A 
HETATM   17  C   UNL     1       8.876  30.821  61.439  1.00  0.00     0.019 A 
ENDBRANCH   8  11
ENDBRANCH   4   7
BRANCH   1  18
HETATM   18  N   UNL     1       7.596  25.450  54.682  1.00  0.00    -0.326 N 
HETATM   19  C   UNL     1       6.506  24.825  54.106  1.00  0.00     0.218 C 
HETATM   20  C   UNL     1       6.912  23.849  53.031  1.00  0.00     0.117 C 
HETATM   21  O   UNL     1       5.330  24.994  54.401  1.00  0.00    -0.274 OA
HETATM   22  H   UNL     1       8.512  25.186  54.339  1.00  0.00     0.169 HD
ENDBRANCH   1  18
TORSDOF 3
ENDMDL
MODEL 8
REMARK VINA RESULT:      -7.5      7.702     12.343
REMARK  3 active torsions:
REMARK  status: ('A' for Active; 'I' for Inactive)
REMARK       I    between atoms: C_2  and  N_3 
REMARK    1  A    between atoms: N_3  and  C_4 
REMARK    2  A    between atoms: C_7  and  N_8 
REMARK       I    between atoms: N_8  and  C_9 
REMARK    3  A    between atoms: C_9  and  C_10 
ROOT
HETATM    1  C   UNL     1       6.063  29.166  55.509  1.00  0.00     0.052 A 
HETATM    2  C   UNL     1       7.268  28.564  55.850  1.00  0.00     0.148 A 
HETATM    3  N   UNL     1       7.527  27.238  55.700  1.00  0.00    -0.241 NA
HETATM    4  C   UNL     1       6.550  26.458  55.194  1.00  0.00     0.130 A 
HETATM    5  C   UNL     1       5.315  26.969  54.828  1.00  0.00     0.053 A 
HETATM    6  C   UNL     1       5.074  28.337  54.986  1.00  0.00     0.035 A 
ENDROOT
BRANCH   4   7
HETATM    7  N   UNL     1       6.920  25.118  55.078  1.00  0.00    -0.307 N 
HETATM    8  C   UNL     1       7.666  24.516  54.097  1.00  0.00     0.259 C 
HETATM    9  O   UNL     1       8.137  25.101  53.125  1.00  0.00    -0.267 OA
HETATM   10  H   UNL     1       6.538  24.564  55.834  1.00  0.00     0.170 HD
BRANCH   8  11
HETATM   11  C   UNL     1       7.946  23.043  54.237  1.00  0.00     0.054 A 
HETATM   12  C   UNL     1       8.319  22.366  55.409  1.00  0.00     0.049 A 
HETATM   13 CL   UNL     1       8.493  23.111  56.960  1.00  0.00    -0.083 Cl
HETATM   14  C   UNL     1       8.556  20.980  55.381  1.00  0.00     0.025 A 
HETATM   15  C   UNL     1       8.418  20.255  54.199  1.00  0.00     0.002 A 
HETATM   16  C   UNL     1       8.041  20.908  53.034  1.00  0.00     0.001 A 
HETATM   17  C   UNL     1       7.807  22.285  53.054  1.00  0.00     0.019 A 
ENDBRANCH   8  11
ENDBRANCH   4   7
BRANCH   1  18
HETATM   18  N   UNL     1       5.768  30.538  55.644  1.00  0.00    -0.326 N 
HETATM   19  C   UNL     1       5.104  31.141  56.695  1.00  0.00     0.218 C 
HETATM   20  C   UNL     1       4.977  32.631  56.509  1.00  0.00     0.117 C 
HETATM   21  O   UNL     1       4.640  30.581  57.680  1.00  0.00    -0.274 OA
HETATM   22  H   UNL     1       6.075  31.140  54.889  1.00  0.00     0.169 HD
ENDBRANCH   1  18
TORSDOF 3
ENDMDL
MODEL 9
REMARK VINA RESULT:      -7.5      2.599      8.174
REMARK  3 active torsions:
REMARK  status: ('A' for Active; 'I' for Inactive)
REMARK       I    between atoms: C_2  and  N_3 
REMARK    1  A    between atoms: N_3  and  C_4 
REMARK    2  A    between atoms: C_7  and  N_8 
REMARK       I    between atoms: N_8  and  C_9 
REMARK    3  A    between atoms: C_9  and  C_10 
ROOT
HETATM    1  C   UNL     1       6.799  33.882  63.979  1.00  0.00     0.052 A 
HETATM    2  C   UNL     1       7.784  32.906  64.055  1.00  0.00     0.148 A 
HETATM    3  N   UNL     1       8.278  32.234  62.981  1.00  0.00    -0.241 NA
HETATM    4  C   UNL     1       7.772  32.531  61.767  1.00  0.00     0.130 A 
HETATM    5  C   UNL     1       6.785  33.488  61.592  1.00  0.00     0.053 A 
HETATM    6  C   UNL     1       6.298  34.169  62.711  1.00  0.00     0.035 A 
ENDROOT
BRANCH   4   7
HETATM    7  N   UNL     1       8.348  31.789  60.735  1.00  0.00    -0.307 N 
HETATM    8  C   UNL     1       7.981  31.725  59.415  1.00  0.00     0.259 C 
HETATM    9  O   UNL     1       7.038  32.343  58.926  1.00  0.00    -0.267 OA
HETATM   10  H   UNL     1       9.119  31.225  61.072  1.00  0.00     0.170 HD
BRANCH   8  11
HETATM   11  C   UNL     1       8.806  30.859  58.500  1.00  0.00     0.054 A 
HETATM   12  C   UNL     1       8.368  29.724  57.798  1.00  0.00     0.049 A 
HETATM   13 CL   UNL     1       6.749  29.118  57.822  1.00  0.00    -0.083 Cl
HETATM   14  C   UNL     1       9.263  29.007  56.984  1.00  0.00     0.025 A 
HETATM   15  C   UNL     1      10.591  29.411  56.853  1.00  0.00     0.002 A 
HETATM   16  C   UNL     1      11.036  30.536  57.533  1.00  0.00     0.001 A 
HETATM   17  C   UNL     1      10.153  31.250  58.347  1.00  0.00     0.019 A 
ENDBRANCH   8  11
ENDBRANCH   4   7
BRANCH   1  18
HETATM   18  N   UNL     1       6.275  34.602  65.072  1.00  0.00    -0.326 N 
HETATM   19  C   UNL     1       5.092  34.346  65.739  1.00  0.00     0.218 C 
HETATM   20  C   UNL     1       4.855  35.315  66.869  1.00  0.00     0.117 C 
HETATM   21  O   UNL     1       4.286  33.461  65.479  1.00  0.00    -0.274 OA
HETATM   22  H   UNL     1       6.825  35.387  65.397  1.00  0.00     0.169 HD
ENDBRANCH   1  18
TORSDOF 3
ENDMDL
MODEL 10
REMARK VINA RESULT:      -7.5      4.526      6.624
REMARK  3 active torsions:
REMARK  status: ('A' for Active; 'I' for Inactive)
REMARK       I    between atoms: C_2  and  N_3 
REMARK    1  A    between atoms: N_3  and  C_4 
REMARK    2  A    between atoms: C_7  and  N_8 
REMARK       I    between atoms: N_8  and  C_9 
REMARK    3  A    between atoms: C_9  and  C_10 
ROOT
HETATM    1  C   UNL     1       7.544  26.822  55.700  1.00  0.00     0.052 A 
HETATM    2  C   UNL     1       7.762  26.532  57.041  1.00  0.00     0.148 A 
HETATM    3  N   UNL     1       7.700  27.452  58.040  1.00  0.00    -0.241 NA
HETATM    4  C   UNL     1       7.416  28.727  57.706  1.00  0.00     0.130 A 
HETATM    5  C   UNL     1       7.185  29.111  56.395  1.00  0.00     0.053 A 
HETATM    6  C   UNL     1       7.249  28.146  55.386  1.00  0.00     0.035 A 
ENDROOT
BRANCH   4   7
HETATM    7  N   UNL     1       7.373  29.587  58.804  1.00  0.00    -0.307 N 
HETATM    8  C   UNL     1       8.370  30.377  59.315  1.00  0.00     0.259 C 
HETATM    9  O   UNL     1       9.509  30.441  58.856  1.00  0.00    -0.267 OA
HETATM   10  H   UNL     1       6.467  29.562  59.256  1.00  0.00     0.170 HD
BRANCH   8  11
HETATM   11  C   UNL     1       8.039  31.242  60.502  1.00  0.00     0.054 A 
HETATM   12  C   UNL     1       8.589  31.145  61.791  1.00  0.00     0.049 A 
HETATM   13 CL   UNL     1       9.808  30.010  62.256  1.00  0.00    -0.083 Cl
HETATM   14  C   UNL     1       8.171  32.023  62.806  1.00  0.00     0.025 A 
HETATM   15  C   UNL     1       7.216  33.006  62.552  1.00  0.00     0.002 A 
HETATM   16  C   UNL     1       6.670  33.121  61.281  1.00  0.00     0.001 A 
HETATM   17  C   UNL     1       7.078  32.248  60.269  1.00  0.00     0.019 A 
ENDBRANCH   8  11
ENDBRANCH   4   7
BRANCH   1  18
HETATM   18  N   UNL     1       7.591  25.889  54.644  1.00  0.00    -0.326 N 
HETATM   19  C   UNL     1       6.552  25.093  54.199  1.00  0.00     0.218 C 
HETATM   20  C   UNL     1       6.961  24.220  53.040  1.00  0.00     0.117 C 
HETATM   21  O   UNL     1       5.419  25.049  54.660  1.00  0.00    -0.274 OA
HETATM   22  H   UNL     1       8.479  25.794  54.168  1.00  0.00     0.169 HD
ENDBRANCH   1  18
TORSDOF 3
ENDMDL
