MODEL 1
REMARK VINA RESULT:      -8.9      0.000      0.000
REMARK  8 active torsions:
REMARK  status: ('A' for Active; 'I' for Inactive)
REMARK    1  A    between atoms: C_2  and  C_3 
REMARK    2  A    between atoms: C_3  and  O_4 
REMARK    3  A    between atoms: O_4  and  C_5 
REMARK    4  A    between atoms: C_8  and  C_9 
REMARK    5  A    between atoms: N_10  and  C_11 
REMARK    6  A    between atoms: C_11  and  C_12 
REMARK    7  A    between atoms: C_25  and  C_26 
REMARK    8  A    between atoms: C_27  and  O_28 
ROOT
HETATM    1  C   UNL     1       6.111  27.878  52.481  1.00  0.00     0.159 A 
HETATM    2  N   UNL     1       5.148  28.310  51.433  1.00  0.00    -0.329 N 
HETATM    3  C   UNL     1       3.976  28.886  51.944  1.00  0.00     0.273 A 
HETATM    4  O   UNL     1       3.053  29.397  51.337  1.00  0.00    -0.266 OA
HETATM    5  C   UNL     1       4.122  28.749  53.345  1.00  0.00     0.129 A 
HETATM    6  C   UNL     1       5.309  28.177  53.690  1.00  0.00     0.034 A 
HETATM    7  N   UNL     1       3.433  28.974  54.474  1.00  0.00    -0.272 N 
HETATM    8  H   UNL     1       2.510  29.381  54.595  1.00  0.00     0.189 HD
HETATM    9  N   UNL     1       4.112  28.536  55.568  1.00  0.00    -0.173 NA
HETATM   10  C   UNL     1       5.267  28.022  55.083  1.00  0.00     0.101 A 
ENDROOT
BRANCH   1  11
HETATM   11  C   UNL     1       6.405  26.398  52.518  1.00  0.00    -0.030 A 
HETATM   12  C   UNL     1       7.745  25.975  52.583  1.00  0.00     0.012 A 
HETATM   13  C   UNL     1       8.061  24.634  52.794  1.00  0.00     0.037 A 
HETATM   14  C   UNL     1       7.041  23.704  52.958  1.00  0.00     0.069 A 
HETATM   15  C   UNL     1       5.708  24.082  52.813  1.00  0.00     0.037 A 
HETATM   16  C   UNL     1       5.391  25.425  52.594  1.00  0.00     0.012 A 
BRANCH  14  17
HETATM   17  O   UNL     1       7.402  22.421  53.270  1.00  0.00    -0.348 OA
BRANCH  17  18
HETATM   18  C   UNL     1       8.480  22.408  54.216  1.00  0.00     0.202 C 
BRANCH  18  19
HETATM   19  C   UNL     1       7.928  21.941  55.530  1.00  0.00    -0.011 C 
HETATM   20  C   UNL     1       7.670  20.664  55.844  1.00  0.00     0.009 C 
ENDBRANCH  18  19
ENDBRANCH  17  18
ENDBRANCH  14  17
ENDBRANCH   1  11
BRANCH   2  21
HETATM   21  C   UNL     1       5.536  28.434  50.045  1.00  0.00     0.167 C 
BRANCH  21  22
HETATM   22  C   UNL     1       4.617  27.667  49.134  1.00  0.00    -0.023 A 
HETATM   23  C   UNL     1       3.938  28.298  48.097  1.00  0.00     0.125 A 
HETATM   24  N   UNL     1       3.070  27.675  47.268  1.00  0.00    -0.273 NA
HETATM   25  C   UNL     1       2.869  26.356  47.476  1.00  0.00     0.116 A 
HETATM   26  C   UNL     1       3.496  25.632  48.476  1.00  0.00     0.020 A 
HETATM   27  C   UNL     1       4.381  26.301  49.316  1.00  0.00     0.012 A 
ENDBRANCH  21  22
ENDBRANCH   2  21
BRANCH  10  28
HETATM   28  C   UNL     1       6.242  27.356  55.936  1.00  0.00     0.028 A 
HETATM   29  C   UNL     1       7.396  28.002  56.398  1.00  0.00     0.078 A 
HETATM   30  C   UNL     1       8.381  27.298  57.089  1.00  0.00     0.037 A 
HETATM   31  C   UNL     1       8.208  25.940  57.354  1.00  0.00     0.003 A 
HETATM   32  C   UNL     1       7.049  25.289  56.931  1.00  0.00     0.001 A 
HETATM   33  C   UNL     1       6.071  25.994  56.224  1.00  0.00     0.017 A 
BRANCH  29  34
HETATM   34  O   UNL     1       7.623  29.340  56.209  1.00  0.00    -0.360 OA
HETATM   35  H   UNL     1       8.480  29.422  55.751  1.00  0.00     0.217 HD
ENDBRANCH  29  34
ENDBRANCH  10  28
TORSDOF 8
ENDMDL
MODEL 2
REMARK VINA RESULT:      -8.8      1.599      6.081
REMARK  8 active torsions:
REMARK  status: ('A' for Active; 'I' for Inactive)
REMARK    1  A    between atoms: C_2  and  C_3 
REMARK    2  A    between atoms: C_3  and  O_4 
REMARK    3  A    between atoms: O_4  and  C_5 
REMARK    4  A    between atoms: C_8  and  C_9 
REMARK    5  A    between atoms: N_10  and  C_11 
REMARK    6  A    between atoms: C_11  and  C_12 
REMARK    7  A    between atoms: C_25  and  C_26 
REMARK    8  A    between atoms: C_27  and  O_28 
ROOT
HETATM    1  C   UNL     1       4.130  27.757  53.746  1.00  0.00     0.159 A 
HETATM    2  N   UNL     1       4.532  28.459  54.995  1.00  0.00    -0.329 N 
HETATM    3  C   UNL     1       4.742  29.835  54.827  1.00  0.00     0.273 A 
HETATM    4  O   UNL     1       4.998  30.673  55.673  1.00  0.00    -0.266 OA
HETATM    5  C   UNL     1       4.569  30.031  53.436  1.00  0.00     0.129 A 
HETATM    6  C   UNL     1       4.232  28.882  52.788  1.00  0.00     0.034 A 
HETATM    7  N   UNL     1       4.670  31.004  52.518  1.00  0.00    -0.272 N 
HETATM    8  H   UNL     1       4.909  31.984  52.642  1.00  0.00     0.189 HD
HETATM    9  N   UNL     1       4.443  30.531  51.264  1.00  0.00    -0.173 NA
HETATM   10  C   UNL     1       4.191  29.211  51.426  1.00  0.00     0.101 A 
ENDROOT
BRANCH   1  11
HETATM   11  C   UNL     1       5.090  26.696  53.264  1.00  0.00    -0.030 A 
HETATM   12  C   UNL     1       6.463  26.999  53.211  1.00  0.00     0.012 A 
HETATM   13  C   UNL     1       7.403  26.005  52.942  1.00  0.00     0.037 A 
HETATM   14  C   UNL     1       6.982  24.696  52.737  1.00  0.00     0.069 A 
HETATM   15  C   UNL     1       5.624  24.387  52.699  1.00  0.00     0.037 A 
HETATM   16  C   UNL     1       4.681  25.384  52.962  1.00  0.00     0.012 A 
BRANCH  14  17
HETATM   17  O   UNL     1       7.949  23.740  52.583  1.00  0.00    -0.348 OA
BRANCH  17  18
HETATM   18  C   UNL     1       8.263  23.122  53.840  1.00  0.00     0.202 C 
BRANCH  18  19
HETATM   19  C   UNL     1       8.739  21.729  53.557  1.00  0.00    -0.011 C 
HETATM   20  C   UNL     1       7.993  20.761  53.008  1.00  0.00     0.009 C 
ENDBRANCH  18  19
ENDBRANCH  17  18
ENDBRANCH  14  17
ENDBRANCH   1  11
BRANCH   2  21
HETATM   21  C   UNL     1       4.383  27.846  56.297  1.00  0.00     0.167 C 
BRANCH  21  22
HETATM   22  C   UNL     1       5.634  27.133  56.728  1.00  0.00    -0.023 A 
HETATM   23  C   UNL     1       6.721  27.830  57.244  1.00  0.00     0.125 A 
HETATM   24  N   UNL     1       7.886  27.254  57.615  1.00  0.00    -0.273 NA
HETATM   25  C   UNL     1       7.977  25.915  57.471  1.00  0.00     0.116 A 
HETATM   26  C   UNL     1       6.955  25.126  56.972  1.00  0.00     0.020 A 
HETATM   27  C   UNL     1       5.768  25.747  56.595  1.00  0.00     0.012 A 
ENDBRANCH  21  22
ENDBRANCH   2  21
BRANCH  10  28
HETATM   28  C   UNL     1       3.990  28.312  50.297  1.00  0.00     0.028 A 
HETATM   29  C   UNL     1       2.800  28.295  49.558  1.00  0.00     0.078 A 
HETATM   30  C   UNL     1       2.581  27.327  48.580  1.00  0.00     0.037 A 
HETATM   31  C   UNL     1       3.566  26.379  48.307  1.00  0.00     0.003 A 
HETATM   32  C   UNL     1       4.770  26.402  49.010  1.00  0.00     0.001 A 
HETATM   33  C   UNL     1       4.981  27.364  50.001  1.00  0.00     0.017 A 
BRANCH  29  34
HETATM   34  O   UNL     1       1.800  29.213  49.742  1.00  0.00    -0.360 OA
HETATM   35  H   UNL     1       1.625  29.257  50.700  1.00  0.00     0.217 HD
ENDBRANCH  29  34
ENDBRANCH  10  28
TORSDOF 8
ENDMDL
MODEL 3
REMARK VINA RESULT:      -8.4      2.914      6.584
REMARK  8 active torsions:
REMARK  status: ('A' for Active; 'I' for Inactive)
REMARK    1  A    between atoms: C_2  and  C_3 
REMARK    2  A    between atoms: C_3  and  O_4 
REMARK    3  A    between atoms: O_4  and  C_5 
REMARK    4  A    between atoms: C_8  and  C_9 
REMARK    5  A    between atoms: N_10  and  C_11 
REMARK    6  A    between atoms: C_11  and  C_12 
REMARK    7  A    between atoms: C_25  and  C_26 
REMARK    8  A    between atoms: C_27  and  O_28 
ROOT
HETATM    1  C   UNL     1       6.383  25.110  55.985  1.00  0.00     0.159 A 
HETATM    2  N   UNL     1       7.443  24.190  56.479  1.00  0.00    -0.329 N 
HETATM    3  C   UNL     1       8.480  24.838  57.165  1.00  0.00     0.273 A 
HETATM    4  O   UNL     1       9.432  24.346  57.743  1.00  0.00    -0.266 OA
HETATM    5  C   UNL     1       8.153  26.210  57.044  1.00  0.00     0.129 A 
HETATM    6  C   UNL     1       6.982  26.407  56.376  1.00  0.00     0.034 A 
HETATM    7  N   UNL     1       8.658  27.414  57.349  1.00  0.00    -0.272 N 
HETATM    8  H   UNL     1       9.518  27.647  57.838  1.00  0.00     0.189 HD
HETATM    9  N   UNL     1       7.873  28.418  56.875  1.00  0.00    -0.173 NA
HETATM   10  C   UNL     1       6.844  27.797  56.253  1.00  0.00     0.101 A 
ENDROOT
BRANCH   1  11
HETATM   11  C   UNL     1       6.213  25.153  54.485  1.00  0.00    -0.030 A 
HETATM   12  C   UNL     1       4.914  25.086  53.950  1.00  0.00     0.012 A 
HETATM   13  C   UNL     1       4.691  25.297  52.590  1.00  0.00     0.037 A 
HETATM   14  C   UNL     1       5.763  25.591  51.754  1.00  0.00     0.069 A 
HETATM   15  C   UNL     1       7.067  25.578  52.244  1.00  0.00     0.037 A 
HETATM   16  C   UNL     1       7.291  25.360  53.605  1.00  0.00     0.012 A 
BRANCH  14  17
HETATM   17  O   UNL     1       5.479  25.895  50.450  1.00  0.00    -0.348 OA
BRANCH  17  18
HETATM   18  C   UNL     1       4.706  27.101  50.361  1.00  0.00     0.202 C 
BRANCH  18  19
HETATM   19  C   UNL     1       3.946  27.061  49.069  1.00  0.00    -0.011 C 
HETATM   20  C   UNL     1       3.560  25.943  48.441  1.00  0.00     0.009 C 
ENDBRANCH  18  19
ENDBRANCH  17  18
ENDBRANCH  14  17
ENDBRANCH   1  11
BRANCH   2  21
HETATM   21  C   UNL     1       7.242  22.758  56.541  1.00  0.00     0.167 C 
BRANCH  21  22
HETATM   22  C   UNL     1       7.848  22.054  55.359  1.00  0.00    -0.023 A 
HETATM   23  C   UNL     1       7.651  20.693  55.151  1.00  0.00     0.125 A 
HETATM   24  N   UNL     1       8.198  19.994  54.131  1.00  0.00    -0.273 NA
HETATM   25  C   UNL     1       8.977  20.682  53.270  1.00  0.00     0.116 A 
HETATM   26  C   UNL     1       9.235  22.038  53.382  1.00  0.00     0.020 A 
HETATM   27  C   UNL     1       8.662  22.730  54.445  1.00  0.00     0.012 A 
ENDBRANCH  21  22
ENDBRANCH   2  21
BRANCH  10  28
HETATM   28  C   UNL     1       5.820  28.529  55.520  1.00  0.00     0.028 A 
HETATM   29  C   UNL     1       4.716  29.110  56.158  1.00  0.00     0.078 A 
HETATM   30  C   UNL     1       3.680  29.677  55.418  1.00  0.00     0.037 A 
HETATM   31  C   UNL     1       3.751  29.696  54.025  1.00  0.00     0.003 A 
HETATM   32  C   UNL     1       4.858  29.153  53.375  1.00  0.00     0.001 A 
HETATM   33  C   UNL     1       5.888  28.571  54.120  1.00  0.00     0.017 A 
BRANCH  29  34
HETATM   34  O   UNL     1       4.590  29.163  57.521  1.00  0.00    -0.360 OA
HETATM   35  H   UNL     1       4.835  30.065  57.796  1.00  0.00     0.217 HD
ENDBRANCH  29  34
ENDBRANCH  10  28
TORSDOF 8
ENDMDL
MODEL 4
REMARK VINA RESULT:      -8.2      2.491      6.470
REMARK  8 active torsions:
REMARK  status: ('A' for Active; 'I' for Inactive)
REMARK    1  A    between atoms: C_2  and  C_3 
REMARK    2  A    between atoms: C_3  and  O_4 
REMARK    3  A    between atoms: O_4  and  C_5 
REMARK    4  A    between atoms: C_8  and  C_9 
REMARK    5  A    between atoms: N_10  and  C_11 
REMARK    6  A    between atoms: C_11  and  C_12 
REMARK    7  A    between atoms: C_25  and  C_26 
REMARK    8  A    between atoms: C_27  and  O_28 
ROOT
HETATM    1  C   UNL     1       4.805  27.372  55.217  1.00  0.00     0.159 A 
HETATM    2  N   UNL     1       4.015  28.606  54.964  1.00  0.00    -0.329 N 
HETATM    3  C   UNL     1       3.683  28.799  53.615  1.00  0.00     0.273 A 
HETATM    4  O   UNL     1       2.986  29.666  53.120  1.00  0.00    -0.266 OA
HETATM    5  C   UNL     1       4.339  27.732  52.955  1.00  0.00     0.129 A 
HETATM    6  C   UNL     1       4.991  26.909  53.822  1.00  0.00     0.034 A 
HETATM    7  N   UNL     1       4.563  27.279  51.713  1.00  0.00    -0.272 N 
HETATM    8  H   UNL     1       4.238  27.648  50.824  1.00  0.00     0.189 HD
HETATM    9  N   UNL     1       5.378  26.190  51.719  1.00  0.00    -0.173 NA
HETATM   10  C   UNL     1       5.662  25.971  53.025  1.00  0.00     0.101 A 
ENDROOT
BRANCH   1  11
HETATM   11  C   UNL     1       6.187  27.594  55.782  1.00  0.00    -0.030 A 
HETATM   12  C   UNL     1       7.079  28.428  55.081  1.00  0.00     0.012 A 
HETATM   13  C   UNL     1       8.297  28.803  55.645  1.00  0.00     0.037 A 
HETATM   14  C   UNL     1       8.631  28.361  56.921  1.00  0.00     0.069 A 
HETATM   15  C   UNL     1       7.805  27.467  57.599  1.00  0.00     0.037 A 
HETATM   16  C   UNL     1       6.588  27.085  57.031  1.00  0.00     0.012 A 
BRANCH  14  17
HETATM   17  O   UNL     1       9.787  28.843  57.472  1.00  0.00    -0.348 OA
BRANCH  17  18
HETATM   18  C   UNL     1      10.249  30.002  56.763  1.00  0.00     0.202 C 
BRANCH  18  19
HETATM   19  C   UNL     1      10.526  31.075  57.772  1.00  0.00    -0.011 C 
HETATM   20  C   UNL     1       9.647  31.519  58.680  1.00  0.00     0.009 C 
ENDBRANCH  18  19
ENDBRANCH  17  18
ENDBRANCH  14  17
ENDBRANCH   1  11
BRANCH   2  21
HETATM   21  C   UNL     1       3.372  29.335  56.036  1.00  0.00     0.167 C 
BRANCH  21  22
HETATM   22  C   UNL     1       4.245  30.437  56.569  1.00  0.00    -0.023 A 
HETATM   23  C   UNL     1       4.324  31.669  55.928  1.00  0.00     0.125 A 
HETATM   24  N   UNL     1       5.116  32.686  56.334  1.00  0.00    -0.273 NA
HETATM   25  C   UNL     1       5.867  32.472  57.435  1.00  0.00     0.116 A 
HETATM   26  C   UNL     1       5.862  31.285  58.149  1.00  0.00     0.020 A 
HETATM   27  C   UNL     1       5.039  30.255  57.705  1.00  0.00     0.012 A 
ENDBRANCH  21  22
ENDBRANCH   2  21
BRANCH  10  28
HETATM   28  C   UNL     1       6.596  24.939  53.457  1.00  0.00     0.028 A 
HETATM   29  C   UNL     1       7.616  24.459  52.625  1.00  0.00     0.078 A 
HETATM   30  C   UNL     1       8.400  23.373  53.011  1.00  0.00     0.037 A 
HETATM   31  C   UNL     1       8.192  22.771  54.251  1.00  0.00     0.003 A 
HETATM   32  C   UNL     1       7.203  23.258  55.105  1.00  0.00     0.001 A 
HETATM   33  C   UNL     1       6.408  24.337  54.709  1.00  0.00     0.017 A 
BRANCH  29  34
HETATM   34  O   UNL     1       7.906  25.019  51.409  1.00  0.00    -0.360 OA
HETATM   35  H   UNL     1       7.349  24.570  50.748  1.00  0.00     0.217 HD
ENDBRANCH  29  34
ENDBRANCH  10  28
TORSDOF 8
ENDMDL
MODEL 5
REMARK VINA RESULT:      -8.1      2.662      6.347
REMARK  8 active torsions:
REMARK  status: ('A' for Active; 'I' for Inactive)
REMARK    1  A    between atoms: C_2  and  C_3 
REMARK    2  A    between atoms: C_3  and  O_4 
REMARK    3  A    between atoms: O_4  and  C_5 
REMARK    4  A    between atoms: C_8  and  C_9 
REMARK    5  A    between atoms: N_10  and  C_11 
REMARK    6  A    between atoms: C_11  and  C_12 
REMARK    7  A    between atoms: C_25  and  C_26 
REMARK    8  A    between atoms: C_27  and  O_28 
ROOT
HETATM    1  C   UNL     1       4.480  28.220  55.320  1.00  0.00     0.159 A 
HETATM    2  N   UNL     1       4.137  29.618  55.695  1.00  0.00    -0.329 N 
HETATM    3  C   UNL     1       4.291  30.538  54.648  1.00  0.00     0.273 A 
HETATM    4  O   UNL     1       4.016  31.724  54.633  1.00  0.00    -0.266 OA
HETATM    5  C   UNL     1       4.829  29.759  53.597  1.00  0.00     0.129 A 
HETATM    6  C   UNL     1       4.960  28.447  53.938  1.00  0.00     0.034 A 
HETATM    7  N   UNL     1       5.302  29.907  52.349  1.00  0.00    -0.272 N 
HETATM    8  H   UNL     1       5.365  30.746  51.780  1.00  0.00     0.189 HD
HETATM    9  N   UNL     1       5.778  28.733  51.855  1.00  0.00    -0.173 NA
HETATM   10  C   UNL     1       5.587  27.830  52.845  1.00  0.00     0.101 A 
ENDROOT
BRANCH   1  11
HETATM   11  C   UNL     1       5.634  27.611  56.080  1.00  0.00    -0.030 A 
HETATM   12  C   UNL     1       5.432  26.395  56.757  1.00  0.00     0.012 A 
HETATM   13  C   UNL     1       6.505  25.708  57.323  1.00  0.00     0.037 A 
HETATM   14  C   UNL     1       7.792  26.222  57.206  1.00  0.00     0.069 A 
HETATM   15  C   UNL     1       8.006  27.465  56.616  1.00  0.00     0.037 A 
HETATM   16  C   UNL     1       6.930  28.158  56.055  1.00  0.00     0.012 A 
BRANCH  14  17
HETATM   17  O   UNL     1       8.822  25.457  57.684  1.00  0.00    -0.348 OA
BRANCH  17  18
HETATM   18  C   UNL     1       8.579  24.064  57.446  1.00  0.00     0.202 C 
BRANCH  18  19
HETATM   19  C   UNL     1       9.031  23.755  56.050  1.00  0.00    -0.011 C 
HETATM   20  C   UNL     1       9.004  22.540  55.486  1.00  0.00     0.009 C 
ENDBRANCH  18  19
ENDBRANCH  17  18
ENDBRANCH  14  17
ENDBRANCH   1  11
BRANCH   2  21
HETATM   21  C   UNL     1       3.401  29.926  56.902  1.00  0.00     0.167 C 
BRANCH  21  22
HETATM   22  C   UNL     1       4.213  30.750  57.861  1.00  0.00    -0.023 A 
HETATM   23  C   UNL     1       3.605  31.506  58.858  1.00  0.00     0.125 A 
HETATM   24  N   UNL     1       4.275  32.296  59.727  1.00  0.00    -0.273 NA
HETATM   25  C   UNL     1       5.619  32.336  59.603  1.00  0.00     0.116 A 
HETATM   26  C   UNL     1       6.323  31.621  58.649  1.00  0.00     0.020 A 
HETATM   27  C   UNL     1       5.607  30.819  57.766  1.00  0.00     0.012 A 
ENDBRANCH  21  22
ENDBRANCH   2  21
BRANCH  10  28
HETATM   28  C   UNL     1       6.058  26.455  52.747  1.00  0.00     0.028 A 
HETATM   29  C   UNL     1       5.212  25.359  52.965  1.00  0.00     0.078 A 
HETATM   30  C   UNL     1       5.721  24.062  53.008  1.00  0.00     0.037 A 
HETATM   31  C   UNL     1       7.083  23.842  52.803  1.00  0.00     0.003 A 
HETATM   32  C   UNL     1       7.933  24.919  52.551  1.00  0.00     0.001 A 
HETATM   33  C   UNL     1       7.422  26.220  52.524  1.00  0.00     0.017 A 
BRANCH  29  34
HETATM   34  O   UNL     1       3.860  25.489  53.139  1.00  0.00    -0.360 OA
HETATM   35  H   UNL     1       3.507  24.596  53.309  1.00  0.00     0.217 HD
ENDBRANCH  29  34
ENDBRANCH  10  28
TORSDOF 8
ENDMDL
MODEL 6
REMARK VINA RESULT:      -8.0      2.885      6.346
REMARK  8 active torsions:
REMARK  status: ('A' for Active; 'I' for Inactive)
REMARK    1  A    between atoms: C_2  and  C_3 
REMARK    2  A    between atoms: C_3  and  O_4 
REMARK    3  A    between atoms: O_4  and  C_5 
REMARK    4  A    between atoms: C_8  and  C_9 
REMARK    5  A    between atoms: N_10  and  C_11 
REMARK    6  A    between atoms: C_11  and  C_12 
REMARK    7  A    between atoms: C_25  and  C_26 
REMARK    8  A    between atoms: C_27  and  O_28 
ROOT
HETATM    1  C   UNL     1       5.446  27.250  56.494  1.00  0.00     0.159 A 
HETATM    2  N   UNL     1       6.420  26.154  56.746  1.00  0.00    -0.329 N 
HETATM    3  C   UNL     1       7.494  26.530  57.565  1.00  0.00     0.273 A 
HETATM    4  O   UNL     1       8.393  25.837  58.004  1.00  0.00    -0.266 OA
HETATM    5  C   UNL     1       7.279  27.912  57.782  1.00  0.00     0.129 A 
HETATM    6  C   UNL     1       6.139  28.360  57.186  1.00  0.00     0.034 A 
HETATM    7  N   UNL     1       7.874  28.962  58.370  1.00  0.00    -0.272 N 
HETATM    8  H   UNL     1       8.741  28.998  58.898  1.00  0.00     0.189 HD
HETATM    9  N   UNL     1       7.180  30.111  58.156  1.00  0.00    -0.173 NA
HETATM   10  C   UNL     1       6.115  29.745  57.405  1.00  0.00     0.101 A 
ENDROOT
BRANCH   1  11
HETATM   11  C   UNL     1       5.304  27.669  55.050  1.00  0.00    -0.030 A 
HETATM   12  C   UNL     1       6.469  27.881  54.290  1.00  0.00     0.012 A 
HETATM   13  C   UNL     1       6.393  28.097  52.915  1.00  0.00     0.037 A 
HETATM   14  C   UNL     1       5.155  28.088  52.283  1.00  0.00     0.069 A 
HETATM   15  C   UNL     1       3.982  27.966  53.025  1.00  0.00     0.037 A 
HETATM   16  C   UNL     1       4.057  27.757  54.404  1.00  0.00     0.012 A 
BRANCH  14  17
HETATM   17  O   UNL     1       5.143  28.197  50.918  1.00  0.00    -0.348 OA
BRANCH  17  18
HETATM   18  C   UNL     1       5.047  26.905  50.302  1.00  0.00     0.202 C 
BRANCH  18  19
HETATM   19  C   UNL     1       4.041  27.002  49.194  1.00  0.00    -0.011 C 
HETATM   20  C   UNL     1       3.656  25.981  48.417  1.00  0.00     0.009 C 
ENDBRANCH  18  19
ENDBRANCH  17  18
ENDBRANCH  14  17
ENDBRANCH   1  11
BRANCH   2  21
HETATM   21  C   UNL     1       6.105  24.772  56.459  1.00  0.00     0.167 C 
BRANCH  21  22
HETATM   22  C   UNL     1       6.753  24.300  55.187  1.00  0.00    -0.023 A 
HETATM   23  C   UNL     1       8.015  23.715  55.194  1.00  0.00     0.125 A 
HETATM   24  N   UNL     1       8.668  23.305  54.084  1.00  0.00    -0.273 NA
HETATM   25  C   UNL     1       8.034  23.479  52.905  1.00  0.00     0.116 A 
HETATM   26  C   UNL     1       6.776  24.045  52.786  1.00  0.00     0.020 A 
HETATM   27  C   UNL     1       6.130  24.462  53.946  1.00  0.00     0.012 A 
ENDBRANCH  21  22
ENDBRANCH   2  21
BRANCH  10  28
HETATM   28  C   UNL     1       5.164  30.714  56.875  1.00  0.00     0.028 A 
HETATM   29  C   UNL     1       3.931  30.965  57.491  1.00  0.00     0.078 A 
HETATM   30  C   UNL     1       2.984  31.787  56.884  1.00  0.00     0.037 A 
HETATM   31  C   UNL     1       3.271  32.394  55.662  1.00  0.00     0.003 A 
HETATM   32  C   UNL     1       4.507  32.182  55.051  1.00  0.00     0.001 A 
HETATM   33  C   UNL     1       5.449  31.345  55.655  1.00  0.00     0.017 A 
BRANCH  29  34
HETATM   34  O   UNL     1       3.588  30.435  58.707  1.00  0.00    -0.360 OA
HETATM   35  H   UNL     1       3.450  31.183  59.316  1.00  0.00     0.217 HD
ENDBRANCH  29  34
ENDBRANCH  10  28
TORSDOF 8
ENDMDL
MODEL 7
REMARK VINA RESULT:      -7.7     11.027     14.186
REMARK  8 active torsions:
REMARK  status: ('A' for Active; 'I' for Inactive)
REMARK    1  A    between atoms: C_2  and  C_3 
REMARK    2  A    between atoms: C_3  and  O_4 
REMARK    3  A    between atoms: O_4  and  C_5 
REMARK    4  A    between atoms: C_8  and  C_9 
REMARK    5  A    between atoms: N_10  and  C_11 
REMARK    6  A    between atoms: C_11  and  C_12 
REMARK    7  A    between atoms: C_25  and  C_26 
REMARK    8  A    between atoms: C_27  and  O_28 
ROOT
HETATM    1  C   UNL     1       3.105  34.696  62.529  1.00  0.00     0.159 A 
HETATM    2  N   UNL     1       2.725  34.358  61.131  1.00  0.00    -0.329 N 
HETATM    3  C   UNL     1       3.159  33.091  60.718  1.00  0.00     0.273 A 
HETATM    4  O   UNL     1       2.933  32.516  59.668  1.00  0.00    -0.266 OA
HETATM    5  C   UNL     1       3.913  32.621  61.819  1.00  0.00     0.129 A 
HETATM    6  C   UNL     1       3.916  33.501  62.858  1.00  0.00     0.034 A 
HETATM    7  N   UNL     1       4.680  31.575  62.165  1.00  0.00    -0.272 N 
HETATM    8  H   UNL     1       4.906  30.739  61.634  1.00  0.00     0.189 HD
HETATM    9  N   UNL     1       5.226  31.745  63.399  1.00  0.00    -0.173 NA
HETATM   10  C   UNL     1       4.771  32.948  63.823  1.00  0.00     0.101 A 
ENDROOT
BRANCH   1  11
HETATM   11  C   UNL     1       4.020  35.888  62.680  1.00  0.00    -0.030 A 
HETATM   12  C   UNL     1       3.894  36.696  63.825  1.00  0.00     0.012 A 
HETATM   13  C   UNL     1       4.824  37.699  64.095  1.00  0.00     0.037 A 
HETATM   14  C   UNL     1       5.897  37.894  63.233  1.00  0.00     0.069 A 
HETATM   15  C   UNL     1       5.997  37.165  62.051  1.00  0.00     0.037 A 
HETATM   16  C   UNL     1       5.061  36.165  61.775  1.00  0.00     0.012 A 
BRANCH  14  17
HETATM   17  O   UNL     1       6.840  38.817  63.599  1.00  0.00    -0.348 OA
BRANCH  17  18
HETATM   18  C   UNL     1       6.307  40.148  63.531  1.00  0.00     0.202 C 
BRANCH  18  19
HETATM   19  C   UNL     1       6.627  40.834  64.825  1.00  0.00    -0.011 C 
HETATM   20  C   UNL     1       6.088  40.523  66.011  1.00  0.00     0.009 C 
ENDBRANCH  18  19
ENDBRANCH  17  18
ENDBRANCH  14  17
ENDBRANCH   1  11
BRANCH   2  21
HETATM   21  C   UNL     1       1.727  35.116  60.408  1.00  0.00     0.167 C 
BRANCH  21  22
HETATM   22  C   UNL     1       2.346  36.173  59.537  1.00  0.00    -0.023 A 
HETATM   23  C   UNL     1       3.128  35.836  58.437  1.00  0.00     0.125 A 
HETATM   24  N   UNL     1       3.742  36.737  57.637  1.00  0.00    -0.273 NA
HETATM   25  C   UNL     1       3.567  38.040  57.942  1.00  0.00     0.116 A 
HETATM   26  C   UNL     1       2.807  38.484  59.010  1.00  0.00     0.020 A 
HETATM   27  C   UNL     1       2.190  37.534  59.818  1.00  0.00     0.012 A 
ENDBRANCH  21  22
ENDBRANCH   2  21
BRANCH  10  28
HETATM   28  C   UNL     1       5.208  33.548  65.076  1.00  0.00     0.028 A 
HETATM   29  C   UNL     1       6.562  33.665  65.417  1.00  0.00     0.078 A 
HETATM   30  C   UNL     1       6.944  34.109  66.682  1.00  0.00     0.037 A 
HETATM   31  C   UNL     1       5.973  34.473  67.614  1.00  0.00     0.003 A 
HETATM   32  C   UNL     1       4.621  34.396  67.279  1.00  0.00     0.001 A 
HETATM   33  C   UNL     1       4.240  33.935  66.015  1.00  0.00     0.017 A 
BRANCH  29  34
HETATM   34  O   UNL     1       7.574  33.361  64.546  1.00  0.00    -0.360 OA
HETATM   35  H   UNL     1       7.511  33.989  63.804  1.00  0.00     0.217 HD
ENDBRANCH  29  34
ENDBRANCH  10  28
TORSDOF 8
ENDMDL
MODEL 8
REMARK VINA RESULT:      -7.6      4.740      8.196
REMARK  8 active torsions:
REMARK  status: ('A' for Active; 'I' for Inactive)
REMARK    1  A    between atoms: C_2  and  C_3 
REMARK    2  A    between atoms: C_3  and  O_4 
REMARK    3  A    between atoms: O_4  and  C_5 
REMARK    4  A    between atoms: C_8  and  C_9 
REMARK    5  A    between atoms: N_10  and  C_11 
REMARK    6  A    between atoms: C_11  and  C_12 
REMARK    7  A    between atoms: C_25  and  C_26 
REMARK    8  A    between atoms: C_27  and  O_28 
ROOT
HETATM    1  C   UNL     1       7.175  29.412  58.094  1.00  0.00     0.159 A 
HETATM    2  N   UNL     1       8.200  28.821  57.192  1.00  0.00    -0.329 N 
HETATM    3  C   UNL     1       9.438  29.477  57.237  1.00  0.00     0.273 A 
HETATM    4  O   UNL     1      10.477  29.178  56.676  1.00  0.00    -0.266 OA
HETATM    5  C   UNL     1       9.205  30.569  58.106  1.00  0.00     0.129 A 
HETATM    6  C   UNL     1       7.938  30.574  58.604  1.00  0.00     0.034 A 
HETATM    7  N   UNL     1       9.837  31.654  58.581  1.00  0.00    -0.272 N 
HETATM    8  H   UNL     1      10.788  31.970  58.413  1.00  0.00     0.189 HD
HETATM    9  N   UNL     1       9.015  32.407  59.360  1.00  0.00    -0.173 NA
HETATM   10  C   UNL     1       7.831  31.751  59.359  1.00  0.00     0.101 A 
ENDROOT
BRANCH   1  11
HETATM   11  C   UNL     1       5.953  29.970  57.406  1.00  0.00    -0.030 A 
HETATM   12  C   UNL     1       4.690  29.750  57.985  1.00  0.00     0.012 A 
HETATM   13  C   UNL     1       3.556  30.389  57.487  1.00  0.00     0.037 A 
HETATM   14  C   UNL     1       3.674  31.266  56.414  1.00  0.00     0.069 A 
HETATM   15  C   UNL     1       4.898  31.435  55.770  1.00  0.00     0.037 A 
HETATM   16  C   UNL     1       6.033  30.789  56.264  1.00  0.00     0.012 A 
BRANCH  14  17
HETATM   17  O   UNL     1       2.552  31.949  56.032  1.00  0.00    -0.348 OA
BRANCH  17  18
HETATM   18  C   UNL     1       2.894  33.227  55.477  1.00  0.00     0.202 C 
BRANCH  18  19
HETATM   19  C   UNL     1       2.766  34.248  56.568  1.00  0.00    -0.011 C 
HETATM   20  C   UNL     1       3.601  35.278  56.757  1.00  0.00     0.009 C 
ENDBRANCH  18  19
ENDBRANCH  17  18
ENDBRANCH  14  17
ENDBRANCH   1  11
BRANCH   2  21
HETATM   21  C   UNL     1       8.032  27.511  56.601  1.00  0.00     0.167 C 
BRANCH  21  22
HETATM   22  C   UNL     1       7.189  27.559  55.358  1.00  0.00    -0.023 A 
HETATM   23  C   UNL     1       7.670  28.123  54.181  1.00  0.00     0.125 A 
HETATM   24  N   UNL     1       6.951  28.231  53.041  1.00  0.00    -0.273 NA
HETATM   25  C   UNL     1       5.689  27.750  53.069  1.00  0.00     0.116 A 
HETATM   26  C   UNL     1       5.114  27.167  54.185  1.00  0.00     0.020 A 
HETATM   27  C   UNL     1       5.878  27.073  55.345  1.00  0.00     0.012 A 
ENDBRANCH  21  22
ENDBRANCH   2  21
BRANCH  10  28
HETATM   28  C   UNL     1       6.642  32.288  60.009  1.00  0.00     0.028 A 
HETATM   29  C   UNL     1       6.382  32.092  61.371  1.00  0.00     0.078 A 
HETATM   30  C   UNL     1       5.170  32.491  61.932  1.00  0.00     0.037 A 
HETATM   31  C   UNL     1       4.212  33.121  61.139  1.00  0.00     0.003 A 
HETATM   32  C   UNL     1       4.468  33.356  59.788  1.00  0.00     0.001 A 
HETATM   33  C   UNL     1       5.679  32.940  59.226  1.00  0.00     0.017 A 
BRANCH  29  34
HETATM   34  O   UNL     1       7.286  31.512  62.223  1.00  0.00    -0.360 OA
HETATM   35  H   UNL     1       6.796  31.253  63.025  1.00  0.00     0.217 HD
ENDBRANCH  29  34
ENDBRANCH  10  28
TORSDOF 8
ENDMDL
MODEL 9
REMARK VINA RESULT:      -7.6      5.005      8.532
REMARK  8 active torsions:
REMARK  status: ('A' for Active; 'I' for Inactive)
REMARK    1  A    between atoms: C_2  and  C_3 
REMARK    2  A    between atoms: C_3  and  O_4 
REMARK    3  A    between atoms: O_4  and  C_5 
REMARK    4  A    between atoms: C_8  and  C_9 
REMARK    5  A    between atoms: N_10  and  C_11 
REMARK    6  A    between atoms: C_11  and  C_12 
REMARK    7  A    between atoms: C_25  and  C_26 
REMARK    8  A    between atoms: C_27  and  O_28 
ROOT
HETATM    1  C   UNL     1       6.804  29.396  57.427  1.00  0.00     0.159 A 
HETATM    2  N   UNL     1       7.237  28.947  56.076  1.00  0.00    -0.329 N 
HETATM    3  C   UNL     1       8.580  29.228  55.791  1.00  0.00     0.273 A 
HETATM    4  O   UNL     1       9.230  28.914  54.810  1.00  0.00    -0.266 OA
HETATM    5  C   UNL     1       9.018  29.952  56.925  1.00  0.00     0.129 A 
HETATM    6  C   UNL     1       8.043  30.077  57.868  1.00  0.00     0.034 A 
HETATM    7  N   UNL     1      10.102  30.606  57.368  1.00  0.00    -0.272 N 
HETATM    8  H   UNL     1      11.008  30.726  56.924  1.00  0.00     0.189 HD
HETATM    9  N   UNL     1       9.871  31.198  58.570  1.00  0.00    -0.173 NA
HETATM   10  C   UNL     1       8.588  30.889  58.873  1.00  0.00     0.101 A 
ENDROOT
BRANCH   1  11
HETATM   11  C   UNL     1       5.713  30.440  57.442  1.00  0.00    -0.030 A 
HETATM   12  C   UNL     1       4.637  30.280  58.333  1.00  0.00     0.012 A 
HETATM   13  C   UNL     1       3.700  31.298  58.509  1.00  0.00     0.037 A 
HETATM   14  C   UNL     1       3.838  32.490  57.808  1.00  0.00     0.069 A 
HETATM   15  C   UNL     1       4.845  32.639  56.857  1.00  0.00     0.037 A 
HETATM   16  C   UNL     1       5.780  31.617  56.675  1.00  0.00     0.012 A 
BRANCH  14  17
HETATM   17  O   UNL     1       2.956  33.497  58.096  1.00  0.00    -0.348 OA
BRANCH  17  18
HETATM   18  C   UNL     1       3.590  34.531  58.861  1.00  0.00     0.202 C 
BRANCH  18  19
HETATM   19  C   UNL     1       2.768  34.754  60.095  1.00  0.00    -0.011 C 
HETATM   20  C   UNL     1       2.678  33.900  61.123  1.00  0.00     0.009 C 
ENDBRANCH  18  19
ENDBRANCH  17  18
ENDBRANCH  14  17
ENDBRANCH   1  11
BRANCH   2  21
HETATM   21  C   UNL     1       6.450  28.021  55.291  1.00  0.00     0.167 C 
BRANCH  21  22
HETATM   22  C   UNL     1       6.900  26.599  55.480  1.00  0.00    -0.023 A 
HETATM   23  C   UNL     1       7.428  25.863  54.425  1.00  0.00     0.125 A 
HETATM   24  N   UNL     1       7.815  24.571  54.520  1.00  0.00    -0.273 NA
HETATM   25  C   UNL     1       7.676  23.980  55.726  1.00  0.00     0.116 A 
HETATM   26  C   UNL     1       7.166  24.622  56.841  1.00  0.00     0.020 A 
HETATM   27  C   UNL     1       6.772  25.951  56.713  1.00  0.00     0.012 A 
ENDBRANCH  21  22
ENDBRANCH   2  21
BRANCH  10  28
HETATM   28  C   UNL     1       7.916  31.420  60.052  1.00  0.00     0.028 A 
HETATM   29  C   UNL     1       8.113  30.882  61.330  1.00  0.00     0.078 A 
HETATM   30  C   UNL     1       7.349  31.314  62.413  1.00  0.00     0.037 A 
HETATM   31  C   UNL     1       6.395  32.315  62.234  1.00  0.00     0.003 A 
HETATM   32  C   UNL     1       6.209  32.886  60.976  1.00  0.00     0.001 A 
HETATM   33  C   UNL     1       6.967  32.439  59.889  1.00  0.00     0.017 A 
BRANCH  29  34
HETATM   34  O   UNL     1       9.054  29.922  61.594  1.00  0.00    -0.360 OA
HETATM   35  H   UNL     1       8.861  29.165  61.011  1.00  0.00     0.217 HD
ENDBRANCH  29  34
ENDBRANCH  10  28
TORSDOF 8
ENDMDL
MODEL 10
REMARK VINA RESULT:      -7.5      2.088      6.244
REMARK  8 active torsions:
REMARK  status: ('A' for Active; 'I' for Inactive)
REMARK    1  A    between atoms: C_2  and  C_3 
REMARK    2  A    between atoms: C_3  and  O_4 
REMARK    3  A    between atoms: O_4  and  C_5 
REMARK    4  A    between atoms: C_8  and  C_9 
REMARK    5  A    between atoms: N_10  and  C_11 
REMARK    6  A    between atoms: C_11  and  C_12 
REMARK    7  A    between atoms: C_25  and  C_26 
REMARK    8  A    between atoms: C_27  and  O_28 
ROOT
HETATM    1  C   UNL     1       3.467  29.227  52.734  1.00  0.00     0.159 A 
HETATM    2  N   UNL     1       3.695  30.377  53.650  1.00  0.00    -0.329 N 
HETATM    3  C   UNL     1       3.861  31.602  52.990  1.00  0.00     0.273 A 
HETATM    4  O   UNL     1       3.983  32.714  53.471  1.00  0.00    -0.266 OA
HETATM    5  C   UNL     1       3.837  31.248  51.620  1.00  0.00     0.129 A 
HETATM    6  C   UNL     1       3.626  29.916  51.432  1.00  0.00     0.034 A 
HETATM    7  N   UNL     1       3.997  31.812  50.413  1.00  0.00    -0.272 N 
HETATM    8  H   UNL     1       4.176  32.783  50.174  1.00  0.00     0.189 HD
HETATM    9  N   UNL     1       3.933  30.886  49.419  1.00  0.00    -0.173 NA
HETATM   10  C   UNL     1       3.724  29.706  50.049  1.00  0.00     0.101 A 
ENDROOT
BRANCH   1  11
HETATM   11  C   UNL     1       4.522  28.147  52.778  1.00  0.00    -0.030 A 
HETATM   12  C   UNL     1       5.877  28.525  52.801  1.00  0.00     0.012 A 
HETATM   13  C   UNL     1       6.877  27.579  53.017  1.00  0.00     0.037 A 
HETATM   14  C   UNL     1       6.533  26.248  53.226  1.00  0.00     0.069 A 
HETATM   15  C   UNL     1       5.207  25.835  53.122  1.00  0.00     0.037 A 
HETATM   16  C   UNL     1       4.204  26.782  52.899  1.00  0.00     0.012 A 
BRANCH  14  17
HETATM   17  O   UNL     1       7.542  25.378  53.540  1.00  0.00    -0.348 OA
BRANCH  17  18
HETATM   18  C   UNL     1       7.878  24.555  52.414  1.00  0.00     0.202 C 
BRANCH  18  19
HETATM   19  C   UNL     1       7.986  23.140  52.899  1.00  0.00    -0.011 C 
HETATM   20  C   UNL     1       7.611  22.715  54.113  1.00  0.00     0.009 C 
ENDBRANCH  18  19
ENDBRANCH  17  18
ENDBRANCH  14  17
ENDBRANCH   1  11
BRANCH   2  21
HETATM   21  C   UNL     1       3.428  30.285  55.069  1.00  0.00     0.167 C 
BRANCH  21  22
HETATM   22  C   UNL     1       4.568  29.649  55.816  1.00  0.00    -0.023 A 
HETATM   23  C   UNL     1       5.754  30.339  56.046  1.00  0.00     0.125 A 
HETATM   24  N   UNL     1       6.828  29.812  56.676  1.00  0.00    -0.273 NA
HETATM   25  C   UNL     1       6.718  28.537  57.104  1.00  0.00     0.116 A 
HETATM   26  C   UNL     1       5.583  27.763  56.931  1.00  0.00     0.020 A 
HETATM   27  C   UNL     1       4.495  28.331  56.275  1.00  0.00     0.012 A 
ENDBRANCH  21  22
ENDBRANCH   2  21
BRANCH  10  28
HETATM   28  C   UNL     1       3.691  28.436  49.336  1.00  0.00     0.028 A 
HETATM   29  C   UNL     1       4.853  27.817  48.858  1.00  0.00     0.078 A 
HETATM   30  C   UNL     1       4.779  26.681  48.054  1.00  0.00     0.037 A 
HETATM   31  C   UNL     1       3.536  26.130  47.744  1.00  0.00     0.003 A 
HETATM   32  C   UNL     1       2.370  26.714  48.239  1.00  0.00     0.001 A 
HETATM   33  C   UNL     1       2.448  27.863  49.031  1.00  0.00     0.017 A 
BRANCH  29  34
HETATM   34  O   UNL     1       6.111  28.276  49.148  1.00  0.00    -0.360 OA
HETATM   35  H   UNL     1       6.102  29.241  49.010  1.00  0.00     0.217 HD
ENDBRANCH  29  34
ENDBRANCH  10  28
TORSDOF 8
ENDMDL
