MODEL 1
REMARK VINA RESULT:      -9.7      0.000      0.000
REMARK  2 active torsions:
REMARK  status: ('A' for Active; 'I' for Inactive)
REMARK    1  A    between atoms: C_11  and  N_12 
REMARK    2  A    between atoms: N_12  and  C_13 
ROOT
HETATM    1  C   UNL     1       7.629  20.670  54.537  1.00  0.00     0.010 C 
HETATM    2  C   UNL     1       8.722  21.608  54.014  1.00  0.00    -0.014 C 
HETATM    3  C   UNL     1       9.376  22.416  55.154  1.00  0.00     0.051 C 
HETATM    4  C   UNL     1       8.530  23.596  55.534  1.00  0.00    -0.008 A 
HETATM    5  C   UNL     1       7.509  24.144  54.776  1.00  0.00    -0.028 A 
HETATM    6  C   UNL     1       6.864  25.255  55.465  1.00  0.00     0.053 A 
HETATM    7  C   UNL     1       7.509  25.502  56.673  1.00  0.00     0.114 A 
HETATM    8  N   UNL     1       7.215  26.460  57.566  1.00  0.00    -0.234 NA
HETATM    9  C   UNL     1       6.179  27.202  57.187  1.00  0.00     0.236 A 
HETATM   10  N   UNL     1       5.450  27.068  56.074  1.00  0.00    -0.223 NA
HETATM   11  C   UNL     1       5.751  26.093  55.180  1.00  0.00     0.143 A 
HETATM   12  S   UNL     1       8.791  24.427  56.989  1.00  0.00    -0.073 SA
HETATM   13  C   UNL     1       7.145  23.560  53.439  1.00  0.00     0.041 C 
HETATM   14  C   UNL     1       8.189  22.556  52.922  1.00  0.00     0.009 C 
ENDROOT
BRANCH  11  15
HETATM   15  N   UNL     1       4.981  25.946  54.016  1.00  0.00    -0.340 N 
HETATM   16  H   UNL     1       4.109  25.467  54.164  1.00  0.00     0.167 HD
BRANCH  15  17
HETATM   17  C   UNL     1       5.103  26.480  52.718  1.00  0.00     0.036 A 
HETATM   18  C   UNL     1       5.414  27.847  52.593  1.00  0.00     0.069 A 
HETATM   19  C   UNL     1       5.522  28.396  51.331  1.00  0.00     0.107 A 
HETATM   20  C   UNL     1       5.323  27.649  50.198  1.00  0.00     0.105 A 
HETATM   21  O   UNL     1       5.828  29.692  51.052  1.00  0.00    -0.323 OA
HETATM   22  O   UNL     1       5.480  28.375  49.060  1.00  0.00    -0.323 OA
HETATM   23  C   UNL     1       5.000  26.315  50.268  1.00  0.00     0.042 A 
HETATM   24  C   UNL     1       5.801  29.670  49.609  1.00  0.00     0.352 A 
HETATM   25  C   UNL     1       4.884  25.735  51.540  1.00  0.00     0.032 A 
ENDBRANCH  15  17
ENDBRANCH  11  15
TORSDOF 2
ENDMDL
MODEL 2
REMARK VINA RESULT:      -9.2      4.024      6.194
REMARK  2 active torsions:
REMARK  status: ('A' for Active; 'I' for Inactive)
REMARK    1  A    between atoms: C_11  and  N_12 
REMARK    2  A    between atoms: N_12  and  C_13 
ROOT
HETATM    1  C   UNL     1       9.822  22.164  54.935  1.00  0.00     0.010 C 
HETATM    2  C   UNL     1       8.463  21.992  55.624  1.00  0.00    -0.014 C 
HETATM    3  C   UNL     1       7.295  22.336  54.676  1.00  0.00     0.051 C 
HETATM    4  C   UNL     1       7.080  23.819  54.599  1.00  0.00    -0.008 A 
HETATM    5  C   UNL     1       7.566  24.760  55.492  1.00  0.00    -0.028 A 
HETATM    6  C   UNL     1       7.209  26.115  55.092  1.00  0.00     0.053 A 
HETATM    7  C   UNL     1       6.411  26.079  53.952  1.00  0.00     0.114 A 
HETATM    8  N   UNL     1       5.872  27.126  53.309  1.00  0.00    -0.234 NA
HETATM    9  C   UNL     1       6.189  28.285  53.877  1.00  0.00     0.236 A 
HETATM   10  N   UNL     1       6.961  28.477  54.953  1.00  0.00    -0.223 NA
HETATM   11  C   UNL     1       7.507  27.413  55.593  1.00  0.00     0.143 A 
HETATM   12  S   UNL     1       6.143  24.504  53.363  1.00  0.00    -0.073 SA
HETATM   13  C   UNL     1       8.398  24.342  56.672  1.00  0.00     0.041 C 
HETATM   14  C   UNL     1       8.368  22.825  56.917  1.00  0.00     0.009 C 
ENDROOT
BRANCH  11  15
HETATM   15  N   UNL     1       8.323  27.613  56.716  1.00  0.00    -0.340 N 
HETATM   16  H   UNL     1       8.721  26.766  57.085  1.00  0.00     0.167 HD
BRANCH  15  17
HETATM   17  C   UNL     1       8.834  28.774  57.329  1.00  0.00     0.036 A 
HETATM   18  C   UNL     1       8.057  29.392  58.327  1.00  0.00     0.069 A 
HETATM   19  C   UNL     1       8.530  30.540  58.929  1.00  0.00     0.107 A 
HETATM   20  C   UNL     1       9.730  31.101  58.573  1.00  0.00     0.105 A 
HETATM   21  O   UNL     1       7.901  31.238  59.913  1.00  0.00    -0.323 OA
HETATM   22  O   UNL     1      10.014  32.222  59.288  1.00  0.00    -0.323 OA
HETATM   23  C   UNL     1      10.517  30.546  57.593  1.00  0.00     0.042 A 
HETATM   24  C   UNL     1       8.850  32.303  60.135  1.00  0.00     0.352 A 
HETATM   25  C   UNL     1      10.057  29.379  56.966  1.00  0.00     0.032 A 
ENDBRANCH  15  17
ENDBRANCH  11  15
TORSDOF 2
ENDMDL
MODEL 3
REMARK VINA RESULT:      -8.8      3.547      6.590
REMARK  2 active torsions:
REMARK  status: ('A' for Active; 'I' for Inactive)
REMARK    1  A    between atoms: C_11  and  N_12 
REMARK    2  A    between atoms: N_12  and  C_13 
ROOT
HETATM    1  C   UNL     1       5.613  28.743  49.547  1.00  0.00     0.010 C 
HETATM    2  C   UNL     1       4.471  27.781  49.894  1.00  0.00    -0.014 C 
HETATM    3  C   UNL     1       3.645  28.285  51.096  1.00  0.00     0.051 C 
HETATM    4  C   UNL     1       4.326  27.962  52.393  1.00  0.00    -0.008 A 
HETATM    5  C   UNL     1       5.340  27.037  52.573  1.00  0.00    -0.028 A 
HETATM    6  C   UNL     1       5.804  27.008  53.954  1.00  0.00     0.053 A 
HETATM    7  C   UNL     1       5.041  27.876  54.729  1.00  0.00     0.114 A 
HETATM    8  N   UNL     1       5.158  28.099  56.046  1.00  0.00    -0.234 NA
HETATM    9  C   UNL     1       6.136  27.384  56.595  1.00  0.00     0.236 A 
HETATM   10  N   UNL     1       6.963  26.534  55.977  1.00  0.00    -0.223 NA
HETATM   11  C   UNL     1       6.841  26.320  54.642  1.00  0.00     0.143 A 
HETATM   12  S   UNL     1       3.861  28.719  53.837  1.00  0.00    -0.073 SA
HETATM   13  C   UNL     1       5.871  26.243  51.411  1.00  0.00     0.041 C 
HETATM   14  C   UNL     1       4.987  26.353  50.158  1.00  0.00     0.009 C 
ENDROOT
BRANCH  11  15
HETATM   15  N   UNL     1       7.714  25.434  53.992  1.00  0.00    -0.340 N 
HETATM   16  H   UNL     1       8.466  25.890  53.504  1.00  0.00     0.167 HD
BRANCH  15  17
HETATM   17  C   UNL     1       7.848  24.032  54.023  1.00  0.00     0.036 A 
HETATM   18  C   UNL     1       8.059  23.416  55.271  1.00  0.00     0.069 A 
HETATM   19  C   UNL     1       8.210  22.045  55.323  1.00  0.00     0.107 A 
HETATM   20  C   UNL     1       8.171  21.270  54.192  1.00  0.00     0.105 A 
HETATM   21  O   UNL     1       8.407  21.310  56.451  1.00  0.00    -0.323 OA
HETATM   22  O   UNL     1       8.335  19.947  54.460  1.00  0.00    -0.323 OA
HETATM   23  C   UNL     1       7.985  21.826  52.949  1.00  0.00     0.042 A 
HETATM   24  C   UNL     1       8.484  19.980  55.894  1.00  0.00     0.352 A 
HETATM   25  C   UNL     1       7.830  23.217  52.871  1.00  0.00     0.032 A 
ENDBRANCH  15  17
ENDBRANCH  11  15
TORSDOF 2
ENDMDL
MODEL 4
REMARK VINA RESULT:      -8.3      5.269      8.287
REMARK  2 active torsions:
REMARK  status: ('A' for Active; 'I' for Inactive)
REMARK    1  A    between atoms: C_11  and  N_12 
REMARK    2  A    between atoms: N_12  and  C_13 
ROOT
HETATM    1  C   UNL     1       8.857  30.546  62.222  1.00  0.00     0.010 C 
HETATM    2  C   UNL     1       9.007  31.953  61.634  1.00  0.00    -0.014 C 
HETATM    3  C   UNL     1       7.684  32.744  61.701  1.00  0.00     0.051 C 
HETATM    4  C   UNL     1       6.768  32.360  60.576  1.00  0.00    -0.008 A 
HETATM    5  C   UNL     1       7.133  31.692  59.419  1.00  0.00    -0.028 A 
HETATM    6  C   UNL     1       5.984  31.438  58.559  1.00  0.00     0.053 A 
HETATM    7  C   UNL     1       4.841  32.008  59.113  1.00  0.00     0.114 A 
HETATM    8  N   UNL     1       3.603  32.001  58.597  1.00  0.00    -0.234 NA
HETATM    9  C   UNL     1       3.543  31.354  57.437  1.00  0.00     0.236 A 
HETATM   10  N   UNL     1       4.545  30.739  56.799  1.00  0.00    -0.223 NA
HETATM   11  C   UNL     1       5.792  30.745  57.332  1.00  0.00     0.143 A 
HETATM   12  S   UNL     1       5.121  32.766  60.611  1.00  0.00    -0.073 SA
HETATM   13  C   UNL     1       8.558  31.271  59.192  1.00  0.00     0.041 C 
HETATM   14  C   UNL     1       9.537  31.916  60.187  1.00  0.00     0.009 C 
ENDROOT
BRANCH  11  15
HETATM   15  N   UNL     1       6.842  30.093  56.667  1.00  0.00    -0.340 N 
HETATM   16  H   UNL     1       7.622  30.692  56.456  1.00  0.00     0.167 HD
BRANCH  15  17
HETATM   17  C   UNL     1       7.097  28.736  56.387  1.00  0.00     0.036 A 
HETATM   18  C   UNL     1       7.550  27.918  57.440  1.00  0.00     0.069 A 
HETATM   19  C   UNL     1       7.822  26.589  57.184  1.00  0.00     0.107 A 
HETATM   20  C   UNL     1       7.675  26.049  55.932  1.00  0.00     0.105 A 
HETATM   21  O   UNL     1       8.252  25.677  58.098  1.00  0.00    -0.323 OA
HETATM   22  O   UNL     1       7.990  24.727  55.895  1.00  0.00    -0.323 OA
HETATM   23  C   UNL     1       7.253  26.810  54.869  1.00  0.00     0.042 A 
HETATM   24  C   UNL     1       8.354  24.498  57.271  1.00  0.00     0.352 A 
HETATM   25  C   UNL     1       6.971  28.164  55.104  1.00  0.00     0.032 A 
ENDBRANCH  15  17
ENDBRANCH  11  15
TORSDOF 2
ENDMDL
MODEL 5
REMARK VINA RESULT:      -8.2      3.395      5.600
REMARK  2 active torsions:
REMARK  status: ('A' for Active; 'I' for Inactive)
REMARK    1  A    between atoms: C_11  and  N_12 
REMARK    2  A    between atoms: N_12  and  C_13 
ROOT
HETATM    1  C   UNL     1       9.212  23.411  55.564  1.00  0.00     0.010 C 
HETATM    2  C   UNL     1       7.768  22.905  55.481  1.00  0.00    -0.014 C 
HETATM    3  C   UNL     1       7.240  22.921  54.031  1.00  0.00     0.051 C 
HETATM    4  C   UNL     1       6.792  24.297  53.635  1.00  0.00    -0.008 A 
HETATM    5  C   UNL     1       6.517  25.345  54.498  1.00  0.00    -0.028 A 
HETATM    6  C   UNL     1       6.151  26.556  53.776  1.00  0.00     0.053 A 
HETATM    7  C   UNL     1       6.109  26.298  52.408  1.00  0.00     0.114 A 
HETATM    8  N   UNL     1       5.788  27.161  51.433  1.00  0.00    -0.234 NA
HETATM    9  C   UNL     1       5.500  28.371  51.902  1.00  0.00     0.236 A 
HETATM   10  N   UNL     1       5.522  28.771  53.179  1.00  0.00    -0.223 NA
HETATM   11  C   UNL     1       5.855  27.894  54.158  1.00  0.00     0.143 A 
HETATM   12  S   UNL     1       6.535  24.700  52.008  1.00  0.00    -0.073 SA
HETATM   13  C   UNL     1       6.661  25.173  55.985  1.00  0.00     0.041 C 
HETATM   14  C   UNL     1       6.827  23.703  56.404  1.00  0.00     0.009 C 
ENDROOT
BRANCH  11  15
HETATM   15  N   UNL     1       5.885  28.315  55.497  1.00  0.00    -0.340 N 
HETATM   16  H   UNL     1       5.058  28.075  56.016  1.00  0.00     0.167 HD
BRANCH  15  17
HETATM   17  C   UNL     1       6.906  28.853  56.304  1.00  0.00     0.036 A 
HETATM   18  C   UNL     1       8.194  28.973  55.748  1.00  0.00     0.069 A 
HETATM   19  C   UNL     1       9.214  29.482  56.527  1.00  0.00     0.107 A 
HETATM   20  C   UNL     1       9.008  29.863  57.829  1.00  0.00     0.105 A 
HETATM   21  O   UNL     1      10.501  29.669  56.127  1.00  0.00    -0.323 OA
HETATM   22  O   UNL     1      10.137  30.341  58.416  1.00  0.00    -0.323 OA
HETATM   23  C   UNL     1       7.774  29.749  58.422  1.00  0.00     0.042 A 
HETATM   24  C   UNL     1      11.079  30.215  57.332  1.00  0.00     0.352 A 
HETATM   25  C   UNL     1       6.722  29.233  57.651  1.00  0.00     0.032 A 
ENDBRANCH  15  17
ENDBRANCH  11  15
TORSDOF 2
ENDMDL
MODEL 6
REMARK VINA RESULT:      -8.0      3.659      6.745
REMARK  2 active torsions:
REMARK  status: ('A' for Active; 'I' for Inactive)
REMARK    1  A    between atoms: C_11  and  N_12 
REMARK    2  A    between atoms: N_12  and  C_13 
ROOT
HETATM    1  C   UNL     1       4.607  30.156  51.793  1.00  0.00     0.010 C 
HETATM    2  C   UNL     1       3.544  29.784  52.832  1.00  0.00    -0.014 C 
HETATM    3  C   UNL     1       3.916  30.297  54.238  1.00  0.00     0.051 C 
HETATM    4  C   UNL     1       4.902  29.384  54.904  1.00  0.00    -0.008 A 
HETATM    5  C   UNL     1       5.187  28.081  54.531  1.00  0.00    -0.028 A 
HETATM    6  C   UNL     1       6.229  27.498  55.365  1.00  0.00     0.053 A 
HETATM    7  C   UNL     1       6.600  28.397  56.360  1.00  0.00     0.114 A 
HETATM    8  N   UNL     1       7.510  28.205  57.327  1.00  0.00    -0.234 NA
HETATM    9  C   UNL     1       8.080  27.006  57.252  1.00  0.00     0.236 A 
HETATM   10  N   UNL     1       7.847  26.052  56.343  1.00  0.00    -0.223 NA
HETATM   11  C   UNL     1       6.929  26.259  55.365  1.00  0.00     0.143 A 
HETATM   12  S   UNL     1       5.776  29.884  56.269  1.00  0.00    -0.073 SA
HETATM   13  C   UNL     1       4.492  27.448  53.357  1.00  0.00     0.041 C 
HETATM   14  C   UNL     1       3.285  28.265  52.866  1.00  0.00     0.009 C 
ENDROOT
BRANCH  11  15
HETATM   15  N   UNL     1       6.689  25.262  54.407  1.00  0.00    -0.340 N 
HETATM   16  H   UNL     1       6.210  25.595  53.588  1.00  0.00     0.167 HD
BRANCH  15  17
HETATM   17  C   UNL     1       7.131  23.931  54.284  1.00  0.00     0.036 A 
HETATM   18  C   UNL     1       7.307  23.181  55.463  1.00  0.00     0.069 A 
HETATM   19  C   UNL     1       7.756  21.879  55.368  1.00  0.00     0.107 A 
HETATM   20  C   UNL     1       8.046  21.302  54.158  1.00  0.00     0.105 A 
HETATM   21  O   UNL     1       7.960  21.031  56.412  1.00  0.00    -0.323 OA
HETATM   22  O   UNL     1       8.468  20.016  54.282  1.00  0.00    -0.323 OA
HETATM   23  C   UNL     1       7.908  21.998  52.981  1.00  0.00     0.042 A 
HETATM   24  C   UNL     1       8.410  19.851  55.714  1.00  0.00     0.352 A 
HETATM   25  C   UNL     1       7.454  23.322  53.053  1.00  0.00     0.032 A 
ENDBRANCH  15  17
ENDBRANCH  11  15
TORSDOF 2
ENDMDL
MODEL 7
REMARK VINA RESULT:      -8.0      1.559      3.866
REMARK  2 active torsions:
REMARK  status: ('A' for Active; 'I' for Inactive)
REMARK    1  A    between atoms: C_11  and  N_12 
REMARK    2  A    between atoms: N_12  and  C_13 
ROOT
HETATM    1  C   UNL     1       7.653  29.353  56.572  1.00  0.00     0.010 C 
HETATM    2  C   UNL     1       6.818  28.445  57.483  1.00  0.00    -0.014 C 
HETATM    3  C   UNL     1       7.584  27.161  57.865  1.00  0.00     0.051 C 
HETATM    4  C   UNL     1       7.512  26.142  56.766  1.00  0.00    -0.008 A 
HETATM    5  C   UNL     1       6.613  26.141  55.713  1.00  0.00    -0.028 A 
HETATM    6  C   UNL     1       6.854  25.030  54.801  1.00  0.00     0.053 A 
HETATM    7  C   UNL     1       7.886  24.232  55.286  1.00  0.00     0.114 A 
HETATM    8  N   UNL     1       8.371  23.111  54.732  1.00  0.00    -0.234 NA
HETATM    9  C   UNL     1       7.753  22.802  53.596  1.00  0.00     0.236 A 
HETATM   10  N   UNL     1       6.769  23.481  52.997  1.00  0.00    -0.223 NA
HETATM   11  C   UNL     1       6.289  24.618  53.562  1.00  0.00     0.143 A 
HETATM   12  S   UNL     1       8.564  24.812  56.736  1.00  0.00    -0.073 SA
HETATM   13  C   UNL     1       5.582  27.227  55.582  1.00  0.00     0.041 C 
HETATM   14  C   UNL     1       5.460  28.091  56.847  1.00  0.00     0.009 C 
ENDROOT
BRANCH  11  15
HETATM   15  N   UNL     1       5.262  25.336  52.930  1.00  0.00    -0.340 N 
HETATM   16  H   UNL     1       4.392  25.325  53.433  1.00  0.00     0.167 HD
BRANCH  15  17
HETATM   17  C   UNL     1       5.249  26.207  51.823  1.00  0.00     0.036 A 
HETATM   18  C   UNL     1       5.629  27.546  52.031  1.00  0.00     0.069 A 
HETATM   19  C   UNL     1       5.607  28.422  50.964  1.00  0.00     0.107 A 
HETATM   20  C   UNL     1       5.214  28.024  49.711  1.00  0.00     0.105 A 
HETATM   21  O   UNL     1       5.958  29.735  51.008  1.00  0.00    -0.323 OA
HETATM   22  O   UNL     1       5.269  29.035  48.804  1.00  0.00    -0.323 OA
HETATM   23  C   UNL     1       4.817  26.733  49.462  1.00  0.00     0.042 A 
HETATM   24  C   UNL     1       5.742  30.116  49.632  1.00  0.00     0.352 A 
HETATM   25  C   UNL     1       4.830  25.825  50.531  1.00  0.00     0.032 A 
ENDBRANCH  15  17
ENDBRANCH  11  15
TORSDOF 2
ENDMDL
MODEL 8
REMARK VINA RESULT:      -7.9      8.928     12.253
REMARK  2 active torsions:
REMARK  status: ('A' for Active; 'I' for Inactive)
REMARK    1  A    between atoms: C_11  and  N_12 
REMARK    2  A    between atoms: N_12  and  C_13 
ROOT
HETATM    1  C   UNL     1      10.071  31.555  58.292  1.00  0.00     0.010 C 
HETATM    2  C   UNL     1       9.419  30.411  59.077  1.00  0.00    -0.014 C 
HETATM    3  C   UNL     1       8.088  29.965  58.436  1.00  0.00     0.051 C 
HETATM    4  C   UNL     1       6.967  30.884  58.824  1.00  0.00    -0.008 A 
HETATM    5  C   UNL     1       6.977  31.782  59.878  1.00  0.00    -0.028 A 
HETATM    6  C   UNL     1       5.741  32.551  59.942  1.00  0.00     0.053 A 
HETATM    7  C   UNL     1       4.858  32.113  58.959  1.00  0.00     0.114 A 
HETATM    8  N   UNL     1       3.617  32.566  58.726  1.00  0.00    -0.234 NA
HETATM    9  C   UNL     1       3.271  33.542  59.560  1.00  0.00     0.236 A 
HETATM   10  N   UNL     1       4.017  34.081  60.531  1.00  0.00    -0.223 NA
HETATM   11  C   UNL     1       5.274  33.621  60.754  1.00  0.00     0.143 A 
HETATM   12  S   UNL     1       5.497  30.877  57.978  1.00  0.00    -0.073 SA
HETATM   13  C   UNL     1       8.185  31.915  60.763  1.00  0.00     0.041 C 
HETATM   14  C   UNL     1       9.204  30.782  60.557  1.00  0.00     0.009 C 
ENDROOT
BRANCH  11  15
HETATM   15  N   UNL     1       6.060  34.191  61.768  1.00  0.00    -0.340 N 
HETATM   16  H   UNL     1       6.673  34.920  61.444  1.00  0.00     0.167 HD
BRANCH  15  17
HETATM   17  C   UNL     1       6.043  34.069  63.171  1.00  0.00     0.036 A 
HETATM   18  C   UNL     1       4.845  34.369  63.846  1.00  0.00     0.069 A 
HETATM   19  C   UNL     1       4.811  34.272  65.223  1.00  0.00     0.107 A 
HETATM   20  C   UNL     1       5.914  33.902  65.949  1.00  0.00     0.105 A 
HETATM   21  O   UNL     1       3.728  34.517  66.009  1.00  0.00    -0.323 OA
HETATM   22  O   UNL     1       5.669  33.863  67.285  1.00  0.00    -0.323 OA
HETATM   23  C   UNL     1       7.111  33.616  65.337  1.00  0.00     0.042 A 
HETATM   24  C   UNL     1       4.281  34.254  67.316  1.00  0.00     0.352 A 
HETATM   25  C   UNL     1       7.170  33.709  63.940  1.00  0.00     0.032 A 
ENDBRANCH  15  17
ENDBRANCH  11  15
TORSDOF 2
ENDMDL
MODEL 9
REMARK VINA RESULT:      -7.8      6.784      9.917
REMARK  2 active torsions:
REMARK  status: ('A' for Active; 'I' for Inactive)
REMARK    1  A    between atoms: C_11  and  N_12 
REMARK    2  A    between atoms: N_12  and  C_13 
ROOT
HETATM    1  C   UNL     1       5.317  26.723  57.010  1.00  0.00     0.010 C 
HETATM    2  C   UNL     1       5.167  27.877  56.012  1.00  0.00    -0.014 C 
HETATM    3  C   UNL     1       6.507  28.219  55.328  1.00  0.00     0.051 C 
HETATM    4  C   UNL     1       7.360  29.081  56.212  1.00  0.00    -0.008 A 
HETATM    5  C   UNL     1       6.926  29.799  57.314  1.00  0.00    -0.028 A 
HETATM    6  C   UNL     1       8.026  30.491  57.973  1.00  0.00     0.053 A 
HETATM    7  C   UNL     1       9.206  30.293  57.261  1.00  0.00     0.114 A 
HETATM    8  N   UNL     1      10.417  30.793  57.548  1.00  0.00    -0.234 NA
HETATM    9  C   UNL     1      10.408  31.538  58.649  1.00  0.00     0.236 A 
HETATM   10  N   UNL     1       9.364  31.796  59.445  1.00  0.00    -0.223 NA
HETATM   11  C   UNL     1       8.144  31.280  59.151  1.00  0.00     0.143 A 
HETATM   12  S   UNL     1       9.014  29.288  55.900  1.00  0.00    -0.073 SA
HETATM   13  C   UNL     1       5.483  29.763  57.735  1.00  0.00     0.041 C 
HETATM   14  C   UNL     1       4.566  29.132  56.674  1.00  0.00     0.009 C 
ENDROOT
BRANCH  11  15
HETATM   15  N   UNL     1       7.050  31.543  59.989  1.00  0.00    -0.340 N 
HETATM   16  H   UNL     1       6.169  31.238  59.614  1.00  0.00     0.167 HD
BRANCH  15  17
HETATM   17  C   UNL     1       6.956  31.994  61.320  1.00  0.00     0.036 A 
HETATM   18  C   UNL     1       5.681  32.324  61.818  1.00  0.00     0.069 A 
HETATM   19  C   UNL     1       5.566  32.784  63.114  1.00  0.00     0.107 A 
HETATM   20  C   UNL     1       6.662  32.939  63.925  1.00  0.00     0.105 A 
HETATM   21  O   UNL     1       4.406  33.129  63.735  1.00  0.00    -0.323 OA
HETATM   22  O   UNL     1       6.334  33.398  65.162  1.00  0.00    -0.323 OA
HETATM   23  C   UNL     1       7.929  32.647  63.480  1.00  0.00     0.042 A 
HETATM   24  C   UNL     1       4.902  33.516  65.034  1.00  0.00     0.352 A 
HETATM   25  C   UNL     1       8.070  32.179  62.166  1.00  0.00     0.032 A 
ENDBRANCH  15  17
ENDBRANCH  11  15
TORSDOF 2
ENDMDL
MODEL 10
REMARK VINA RESULT:      -7.7      2.165      4.328
REMARK  2 active torsions:
REMARK  status: ('A' for Active; 'I' for Inactive)
REMARK    1  A    between atoms: C_11  and  N_12 
REMARK    2  A    between atoms: N_12  and  C_13 
ROOT
HETATM    1  C   UNL     1       9.475  29.089  56.820  1.00  0.00     0.010 C 
HETATM    2  C   UNL     1       8.000  28.917  57.199  1.00  0.00    -0.014 C 
HETATM    3  C   UNL     1       7.718  27.514  57.775  1.00  0.00     0.051 C 
HETATM    4  C   UNL     1       7.565  26.501  56.678  1.00  0.00    -0.008 A 
HETATM    5  C   UNL     1       7.329  26.776  55.342  1.00  0.00    -0.028 A 
HETATM    6  C   UNL     1       7.281  25.559  54.542  1.00  0.00     0.053 A 
HETATM    7  C   UNL     1       7.416  24.445  55.365  1.00  0.00     0.114 A 
HETATM    8  N   UNL     1       7.396  23.156  54.991  1.00  0.00    -0.234 NA
HETATM    9  C   UNL     1       7.236  23.013  53.679  1.00  0.00     0.236 A 
HETATM   10  N   UNL     1       7.119  23.984  52.766  1.00  0.00    -0.223 NA
HETATM   11  C   UNL     1       7.147  25.284  53.153  1.00  0.00     0.143 A 
HETATM   12  S   UNL     1       7.637  24.839  57.006  1.00  0.00    -0.073 SA
HETATM   13  C   UNL     1       7.206  28.195  54.859  1.00  0.00     0.041 C 
HETATM   14  C   UNL     1       7.066  29.207  56.008  1.00  0.00     0.009 C 
ENDROOT
BRANCH  11  15
HETATM   15  N   UNL     1       7.033  26.303  52.195  1.00  0.00    -0.340 N 
HETATM   16  H   UNL     1       7.917  26.642  51.855  1.00  0.00     0.167 HD
BRANCH  15  17
HETATM   17  C   UNL     1       5.934  26.830  51.488  1.00  0.00     0.036 A 
HETATM   18  C   UNL     1       5.403  26.069  50.429  1.00  0.00     0.069 A 
HETATM   19  C   UNL     1       4.336  26.573  49.713  1.00  0.00     0.107 A 
HETATM   20  C   UNL     1       3.788  27.798  49.997  1.00  0.00     0.105 A 
HETATM   21  O   UNL     1       3.711  25.951  48.677  1.00  0.00    -0.323 OA
HETATM   22  O   UNL     1       2.747  28.105  49.180  1.00  0.00    -0.323 OA
HETATM   23  C   UNL     1       4.282  28.585  51.009  1.00  0.00     0.042 A 
HETATM   24  C   UNL     1       2.703  26.930  48.346  1.00  0.00     0.352 A 
HETATM   25  C   UNL     1       5.366  28.095  51.751  1.00  0.00     0.032 A 
ENDBRANCH  15  17
ENDBRANCH  11  15
TORSDOF 2
ENDMDL
