MODEL 1
REMARK VINA RESULT:      -9.5      0.000      0.000
REMARK  7 active torsions:
REMARK  status: ('A' for Active; 'I' for Inactive)
REMARK    1  A    between atoms: C_3  and  N_4 
REMARK       I    between atoms: N_4  and  C_5 
REMARK    2  A    between atoms: C_5  and  C_6 
REMARK    3  A    between atoms: C_7  and  C_8 
REMARK    4  A    between atoms: C_20  and  C_21 
REMARK    5  A    between atoms: C_21  and  C_22 
REMARK    6  A    between atoms: C_22  and  C_23 
REMARK    7  A    between atoms: C_23  and  O_24 
ROOT
HETATM    1  C   UNL     1       6.867  25.906  54.328  1.00  0.00     0.062 C 
HETATM    2  C   UNL     1       6.077  26.932  55.150  1.00  0.00     0.202 C 
HETATM    3  N   UNL     1       5.267  27.791  54.279  1.00  0.00    -0.083 N 
HETATM    4  C   UNL     1       5.421  27.863  52.923  1.00  0.00     0.726 A 
HETATM    5  N   UNL     1       6.280  27.027  52.314  1.00  0.00    -0.192 N 
HETATM    6  N   UNL     1       4.361  28.690  54.719  1.00  0.00    -0.140 NA
HETATM    7  C   UNL     1       4.062  29.322  53.575  1.00  0.00     0.166 A 
HETATM    8  N   UNL     1       4.672  28.822  52.448  1.00  0.00    -0.046 NA
HETATM    9  C   UNL     1       6.985  26.031  52.980  1.00  0.00     0.037 C 
HETATM   10  C   UNL     1       7.882  25.188  52.107  1.00  0.00     0.070 C 
HETATM   11  H   UNL     1       6.396  27.102  51.307  1.00  0.00     0.184 HD
ENDROOT
BRANCH   1  12
HETATM   12  C   UNL     1       7.490  24.812  55.135  1.00  0.00     0.256 C 
HETATM   13  N   UNL     1       7.153  23.546  54.716  1.00  0.00    -0.323 N 
HETATM   14  H   UNL     1       6.325  23.480  54.137  1.00  0.00     0.169 HD
HETATM   15  O   UNL     1       8.112  25.089  56.152  1.00  0.00    -0.267 OA
BRANCH  13  16
HETATM   16  C   UNL     1       7.719  22.308  55.099  1.00  0.00     0.041 A 
HETATM   17  C   UNL     1       8.082  21.252  54.242  1.00  0.00    -0.035 A 
HETATM   18  C   UNL     1       7.884  21.237  52.751  1.00  0.00     0.050 C 
HETATM   19  C   UNL     1       8.642  20.084  54.805  1.00  0.00     0.009 A 
HETATM   20  C   UNL     1       8.787  19.933  56.181  1.00  0.00     0.001 A 
HETATM   21  C   UNL     1       8.376  20.951  57.027  1.00  0.00     0.002 A 
HETATM   22  C   UNL     1       7.845  22.125  56.490  1.00  0.00     0.030 A 
ENDBRANCH  13  16
ENDBRANCH   1  12
BRANCH   2  23
HETATM   23  C   UNL     1       6.963  27.824  56.026  1.00  0.00    -0.026 A 
HETATM   24  C   UNL     1       8.142  28.409  55.527  1.00  0.00     0.035 A 
HETATM   25  C   UNL     1       8.939  29.224  56.340  1.00  0.00     0.056 A 
HETATM   26 CL   UNL     1      10.375  29.889  55.645  1.00  0.00    -0.083 Cl
HETATM   27  C   UNL     1       8.563  29.469  57.664  1.00  0.00     0.055 A 
HETATM   28 CL   UNL     1       9.498  30.460  58.726  1.00  0.00    -0.083 Cl
HETATM   29  C   UNL     1       7.392  28.900  58.168  1.00  0.00     0.026 A 
HETATM   30  C   UNL     1       6.597  28.085  57.356  1.00  0.00     0.011 A 
ENDBRANCH   2  23
BRANCH   7  31
HETATM   31  C   UNL     1       3.217  30.543  53.528  1.00  0.00     0.085 C 
BRANCH  31  32
HETATM   32  C   UNL     1       3.608  31.571  54.591  1.00  0.00     0.034 C 
BRANCH  32  33
HETATM   33  C   UNL     1       2.543  31.754  55.668  1.00  0.00     0.164 C 
BRANCH  33  34
HETATM   34  O   UNL     1       2.673  30.730  56.648  1.00  0.00    -0.401 OA
HETATM   35  H   UNL     1       1.781  30.417  56.871  1.00  0.00     0.209 HD
ENDBRANCH  33  34
ENDBRANCH  32  33
ENDBRANCH  31  32
ENDBRANCH   7  31
TORSDOF 7
ENDMDL
MODEL 2
REMARK VINA RESULT:      -9.5      2.164      3.619
REMARK  7 active torsions:
REMARK  status: ('A' for Active; 'I' for Inactive)
REMARK    1  A    between atoms: C_3  and  N_4 
REMARK       I    between atoms: N_4  and  C_5 
REMARK    2  A    between atoms: C_5  and  C_6 
REMARK    3  A    between atoms: C_7  and  C_8 
REMARK    4  A    between atoms: C_20  and  C_21 
REMARK    5  A    between atoms: C_21  and  C_22 
REMARK    6  A    between atoms: C_22  and  C_23 
REMARK    7  A    between atoms: C_23  and  O_24 
ROOT
HETATM    1  C   UNL     1       4.998  27.850  55.708  1.00  0.00     0.062 C 
HETATM    2  C   UNL     1       5.304  28.796  56.876  1.00  0.00     0.202 C 
HETATM    3  N   UNL     1       4.555  30.051  56.746  1.00  0.00    -0.083 N 
HETATM    4  C   UNL     1       3.913  30.440  55.603  1.00  0.00     0.726 A 
HETATM    5  N   UNL     1       3.853  29.592  54.562  1.00  0.00    -0.192 N 
HETATM    6  N   UNL     1       4.507  31.016  57.689  1.00  0.00    -0.140 NA
HETATM    7  C   UNL     1       3.880  31.991  57.015  1.00  0.00     0.166 A 
HETATM    8  N   UNL     1       3.474  31.663  55.743  1.00  0.00    -0.046 NA
HETATM    9  C   UNL     1       4.355  28.296  54.597  1.00  0.00     0.037 C 
HETATM   10  C   UNL     1       4.168  27.503  53.327  1.00  0.00     0.070 C 
HETATM   11  H   UNL     1       3.386  29.901  53.713  1.00  0.00     0.184 HD
ENDROOT
BRANCH   1  12
HETATM   12  C   UNL     1       5.484  26.449  55.900  1.00  0.00     0.256 C 
HETATM   13  N   UNL     1       6.432  26.057  54.984  1.00  0.00    -0.323 N 
HETATM   14  H   UNL     1       6.481  26.608  54.136  1.00  0.00     0.169 HD
HETATM   15  O   UNL     1       4.938  25.726  56.722  1.00  0.00    -0.267 OA
BRANCH  13  16
HETATM   16  C   UNL     1       7.252  24.904  55.000  1.00  0.00     0.041 A 
HETATM   17  C   UNL     1       8.170  24.542  56.005  1.00  0.00    -0.035 A 
HETATM   18  C   UNL     1       8.478  25.355  57.232  1.00  0.00     0.050 C 
HETATM   19  C   UNL     1       8.904  23.345  55.853  1.00  0.00     0.009 A 
HETATM   20  C   UNL     1       8.783  22.553  54.714  1.00  0.00     0.001 A 
HETATM   21  C   UNL     1       7.921  22.941  53.700  1.00  0.00     0.002 A 
HETATM   22  C   UNL     1       7.166  24.106  53.843  1.00  0.00     0.030 A 
ENDBRANCH  13  16
ENDBRANCH   1  12
BRANCH   2  23
HETATM   23  C   UNL     1       6.792  29.130  57.017  1.00  0.00    -0.026 A 
HETATM   24  C   UNL     1       7.336  29.571  58.237  1.00  0.00     0.035 A 
HETATM   25  C   UNL     1       8.699  29.870  58.350  1.00  0.00     0.056 A 
HETATM   26 CL   UNL     1       9.276  30.417  59.885  1.00  0.00    -0.083 Cl
HETATM   27  C   UNL     1       9.539  29.725  57.242  1.00  0.00     0.055 A 
HETATM   28 CL   UNL     1      11.229  30.078  57.305  1.00  0.00    -0.083 Cl
HETATM   29  C   UNL     1       9.012  29.280  56.027  1.00  0.00     0.026 A 
HETATM   30  C   UNL     1       7.650  28.984  55.915  1.00  0.00     0.011 A 
ENDBRANCH   2  23
BRANCH   7  31
HETATM   31  C   UNL     1       3.722  33.366  57.554  1.00  0.00     0.085 C 
BRANCH  31  32
HETATM   32  C   UNL     1       4.203  33.492  59.001  1.00  0.00     0.034 C 
BRANCH  32  33
HETATM   33  C   UNL     1       3.069  33.420  60.018  1.00  0.00     0.164 C 
BRANCH  33  34
HETATM   34  O   UNL     1       2.670  32.065  60.195  1.00  0.00    -0.401 OA
HETATM   35  H   UNL     1       3.228  31.514  59.622  1.00  0.00     0.209 HD
ENDBRANCH  33  34
ENDBRANCH  32  33
ENDBRANCH  31  32
ENDBRANCH   7  31
TORSDOF 7
ENDMDL
MODEL 3
REMARK VINA RESULT:      -9.5      2.239      2.603
REMARK  7 active torsions:
REMARK  status: ('A' for Active; 'I' for Inactive)
REMARK    1  A    between atoms: C_3  and  N_4 
REMARK       I    between atoms: N_4  and  C_5 
REMARK    2  A    between atoms: C_5  and  C_6 
REMARK    3  A    between atoms: C_7  and  C_8 
REMARK    4  A    between atoms: C_20  and  C_21 
REMARK    5  A    between atoms: C_21  and  C_22 
REMARK    6  A    between atoms: C_22  and  C_23 
REMARK    7  A    between atoms: C_23  and  O_24 
ROOT
HETATM    1  C   UNL     1       6.174  25.410  53.517  1.00  0.00     0.062 C 
HETATM    2  C   UNL     1       5.123  26.441  53.945  1.00  0.00     0.202 C 
HETATM    3  N   UNL     1       4.633  27.202  52.790  1.00  0.00    -0.083 N 
HETATM    4  C   UNL     1       5.239  27.201  51.565  1.00  0.00     0.726 A 
HETATM    5  N   UNL     1       6.278  26.376  51.346  1.00  0.00    -0.192 N 
HETATM    6  N   UNL     1       3.605  28.077  52.829  1.00  0.00    -0.140 NA
HETATM    7  C   UNL     1       3.697  28.623  51.608  1.00  0.00     0.166 A 
HETATM    8  N   UNL     1       4.669  28.089  50.793  1.00  0.00    -0.046 NA
HETATM    9  C   UNL     1       6.742  25.460  52.283  1.00  0.00     0.037 C 
HETATM   10  C   UNL     1       7.907  24.615  51.830  1.00  0.00     0.070 C 
HETATM   11  H   UNL     1       6.728  26.397  50.434  1.00  0.00     0.184 HD
ENDROOT
BRANCH   1  12
HETATM   12  C   UNL     1       6.517  24.401  54.566  1.00  0.00     0.256 C 
HETATM   13  N   UNL     1       7.102  23.258  54.073  1.00  0.00    -0.323 N 
HETATM   14  H   UNL     1       6.971  23.088  53.083  1.00  0.00     0.169 HD
HETATM   15  O   UNL     1       6.147  24.577  55.719  1.00  0.00    -0.267 OA
BRANCH  13  16
HETATM   16  C   UNL     1       7.740  22.215  54.783  1.00  0.00     0.041 A 
HETATM   17  C   UNL     1       8.164  20.980  54.256  1.00  0.00    -0.035 A 
HETATM   18  C   UNL     1       7.966  20.529  52.835  1.00  0.00     0.050 C 
HETATM   19  C   UNL     1       8.792  20.055  55.119  1.00  0.00     0.009 A 
HETATM   20  C   UNL     1       8.947  20.312  56.478  1.00  0.00     0.001 A 
HETATM   21  C   UNL     1       8.477  21.504  57.006  1.00  0.00     0.002 A 
HETATM   22  C   UNL     1       7.878  22.444  56.165  1.00  0.00     0.030 A 
ENDBRANCH  13  16
ENDBRANCH   1  12
BRANCH   2  23
HETATM   23  C   UNL     1       5.630  27.429  55.000  1.00  0.00    -0.026 A 
HETATM   24  C   UNL     1       6.936  27.951  54.954  1.00  0.00     0.035 A 
HETATM   25  C   UNL     1       7.383  28.854  55.924  1.00  0.00     0.056 A 
HETATM   26 CL   UNL     1       9.007  29.432  55.794  1.00  0.00    -0.083 Cl
HETATM   27  C   UNL     1       6.526  29.255  56.953  1.00  0.00     0.055 A 
HETATM   28 CL   UNL     1       7.009  30.363  58.187  1.00  0.00    -0.083 Cl
HETATM   29  C   UNL     1       5.224  28.750  57.005  1.00  0.00     0.026 A 
HETATM   30  C   UNL     1       4.778  27.846  56.036  1.00  0.00     0.011 A 
ENDBRANCH   2  23
BRANCH   7  31
HETATM   31  C   UNL     1       2.884  29.792  51.187  1.00  0.00     0.085 C 
BRANCH  31  32
HETATM   32  C   UNL     1       1.556  29.387  50.546  1.00  0.00     0.034 C 
BRANCH  32  33
HETATM   33  C   UNL     1       1.717  28.829  49.136  1.00  0.00     0.164 C 
BRANCH  33  34
HETATM   34  O   UNL     1       1.336  27.458  49.117  1.00  0.00    -0.401 OA
HETATM   35  H   UNL     1       0.997  27.256  48.229  1.00  0.00     0.209 HD
ENDBRANCH  33  34
ENDBRANCH  32  33
ENDBRANCH  31  32
ENDBRANCH   7  31
TORSDOF 7
ENDMDL
MODEL 4
REMARK VINA RESULT:      -9.4      1.797      2.825
REMARK  7 active torsions:
REMARK  status: ('A' for Active; 'I' for Inactive)
REMARK    1  A    between atoms: C_3  and  N_4 
REMARK       I    between atoms: N_4  and  C_5 
REMARK    2  A    between atoms: C_5  and  C_6 
REMARK    3  A    between atoms: C_7  and  C_8 
REMARK    4  A    between atoms: C_20  and  C_21 
REMARK    5  A    between atoms: C_21  and  C_22 
REMARK    6  A    between atoms: C_22  and  C_23 
REMARK    7  A    between atoms: C_23  and  O_24 
ROOT
HETATM    1  C   UNL     1       5.031  26.820  53.017  1.00  0.00     0.062 C 
HETATM    2  C   UNL     1       4.887  27.825  54.166  1.00  0.00     0.202 C 
HETATM    3  N   UNL     1       4.193  29.039  53.718  1.00  0.00    -0.083 N 
HETATM    4  C   UNL     1       3.975  29.351  52.406  1.00  0.00     0.726 A 
HETATM    5  N   UNL     1       4.304  28.460  51.454  1.00  0.00    -0.192 N 
HETATM    6  N   UNL     1       3.795  30.038  54.534  1.00  0.00    -0.140 NA
HETATM    7  C   UNL     1       3.412  30.955  53.635  1.00  0.00     0.166 A 
HETATM    8  N   UNL     1       3.481  30.558  52.320  1.00  0.00    -0.046 NA
HETATM    9  C   UNL     1       4.799  27.191  51.730  1.00  0.00     0.037 C 
HETATM   10  C   UNL     1       5.086  26.338  50.518  1.00  0.00     0.070 C 
HETATM   11  H   UNL     1       4.150  28.712  50.481  1.00  0.00     0.184 HD
ENDROOT
BRANCH   1  12
HETATM   12  C   UNL     1       5.461  25.451  53.439  1.00  0.00     0.256 C 
HETATM   13  N   UNL     1       6.821  25.251  53.385  1.00  0.00    -0.323 N 
HETATM   14  H   UNL     1       7.339  25.902  52.808  1.00  0.00     0.169 HD
HETATM   15  O   UNL     1       4.618  24.592  53.657  1.00  0.00    -0.267 OA
BRANCH  13  16
HETATM   16  C   UNL     1       7.577  24.177  53.909  1.00  0.00     0.041 A 
HETATM   17  C   UNL     1       8.086  24.071  55.218  1.00  0.00    -0.035 A 
HETATM   18  C   UNL     1       7.951  25.118  56.289  1.00  0.00     0.050 C 
HETATM   19  C   UNL     1       8.820  22.916  55.567  1.00  0.00     0.009 A 
HETATM   20  C   UNL     1       9.099  21.918  54.638  1.00  0.00     0.001 A 
HETATM   21  C   UNL     1       8.647  22.052  53.335  1.00  0.00     0.002 A 
HETATM   22  C   UNL     1       7.896  23.173  52.976  1.00  0.00     0.030 A 
ENDBRANCH  13  16
ENDBRANCH   1  12
BRANCH   2  23
HETATM   23  C   UNL     1       6.225  28.232  54.792  1.00  0.00    -0.026 A 
HETATM   24  C   UNL     1       6.342  28.508  56.167  1.00  0.00     0.035 A 
HETATM   25  C   UNL     1       7.572  28.876  56.723  1.00  0.00     0.056 A 
HETATM   26 CL   UNL     1       7.617  29.208  58.419  1.00  0.00    -0.083 Cl
HETATM   27  C   UNL     1       8.706  28.967  55.911  1.00  0.00     0.055 A 
HETATM   28 CL   UNL     1      10.255  29.419  56.527  1.00  0.00    -0.083 Cl
HETATM   29  C   UNL     1       8.604  28.688  54.546  1.00  0.00     0.026 A 
HETATM   30  C   UNL     1       7.374  28.322  53.990  1.00  0.00     0.011 A 
ENDBRANCH   2  23
BRANCH   7  31
HETATM   31  C   UNL     1       3.038  32.343  54.012  1.00  0.00     0.085 C 
BRANCH  31  32
HETATM   32  C   UNL     1       2.028  32.390  55.159  1.00  0.00     0.034 C 
BRANCH  32  33
HETATM   33  C   UNL     1       0.752  33.146  54.803  1.00  0.00     0.164 C 
BRANCH  33  34
HETATM   34  O   UNL     1      -0.378  32.442  55.306  1.00  0.00    -0.401 OA
HETATM   35  H   UNL     1      -0.443  31.601  54.825  1.00  0.00     0.209 HD
ENDBRANCH  33  34
ENDBRANCH  32  33
ENDBRANCH  31  32
ENDBRANCH   7  31
TORSDOF 7
ENDMDL
MODEL 5
REMARK VINA RESULT:      -9.3      4.073      8.221
REMARK  7 active torsions:
REMARK  status: ('A' for Active; 'I' for Inactive)
REMARK    1  A    between atoms: C_3  and  N_4 
REMARK       I    between atoms: N_4  and  C_5 
REMARK    2  A    between atoms: C_5  and  C_6 
REMARK    3  A    between atoms: C_7  and  C_8 
REMARK    4  A    between atoms: C_20  and  C_21 
REMARK    5  A    between atoms: C_21  and  C_22 
REMARK    6  A    between atoms: C_22  and  C_23 
REMARK    7  A    between atoms: C_23  and  O_24 
ROOT
HETATM    1  C   UNL     1       7.493  30.027  58.042  1.00  0.00     0.062 C 
HETATM    2  C   UNL     1       6.209  29.229  57.781  1.00  0.00     0.202 C 
HETATM    3  N   UNL     1       6.501  27.985  57.060  1.00  0.00    -0.083 N 
HETATM    4  C   UNL     1       7.695  27.722  56.449  1.00  0.00     0.726 A 
HETATM    5  N   UNL     1       8.715  28.585  56.598  1.00  0.00    -0.192 N 
HETATM    6  N   UNL     1       5.599  27.012  56.815  1.00  0.00    -0.140 NA
HETATM    7  C   UNL     1       6.299  26.226  55.985  1.00  0.00     0.166 A 
HETATM    8  N   UNL     1       7.600  26.614  55.761  1.00  0.00    -0.046 NA
HETATM    9  C   UNL     1       8.652  29.716  57.403  1.00  0.00     0.037 C 
HETATM   10  C   UNL     1       9.914  30.542  57.448  1.00  0.00     0.070 C 
HETATM   11  H   UNL     1       9.593  28.383  56.125  1.00  0.00     0.184 HD
ENDROOT
BRANCH   1  12
HETATM   12  C   UNL     1       7.337  31.154  59.013  1.00  0.00     0.256 C 
HETATM   13  N   UNL     1       7.265  30.753  60.327  1.00  0.00    -0.323 N 
HETATM   14  H   UNL     1       7.029  29.781  60.479  1.00  0.00     0.169 HD
HETATM   15  O   UNL     1       7.146  32.289  58.597  1.00  0.00    -0.267 OA
BRANCH  13  16
HETATM   16  C   UNL     1       7.337  31.545  61.496  1.00  0.00     0.041 A 
HETATM   17  C   UNL     1       8.507  32.043  62.102  1.00  0.00    -0.035 A 
HETATM   18  C   UNL     1       9.909  31.776  61.628  1.00  0.00     0.050 C 
HETATM   19  C   UNL     1       8.385  32.824  63.271  1.00  0.00     0.009 A 
HETATM   20  C   UNL     1       7.149  33.063  63.866  1.00  0.00     0.001 A 
HETATM   21  C   UNL     1       6.003  32.524  63.301  1.00  0.00     0.002 A 
HETATM   22  C   UNL     1       6.099  31.771  62.130  1.00  0.00     0.030 A 
ENDBRANCH  13  16
ENDBRANCH   1  12
BRANCH   2  23
HETATM   23  C   UNL     1       5.153  30.012  56.995  1.00  0.00    -0.026 A 
HETATM   24  C   UNL     1       5.183  30.083  55.590  1.00  0.00     0.035 A 
HETATM   25  C   UNL     1       4.209  30.801  54.886  1.00  0.00     0.056 A 
HETATM   26 CL   UNL     1       4.333  30.842  53.162  1.00  0.00    -0.083 Cl
HETATM   27  C   UNL     1       3.186  31.454  55.580  1.00  0.00     0.055 A 
HETATM   28 CL   UNL     1       1.953  32.361  54.780  1.00  0.00    -0.083 Cl
HETATM   29  C   UNL     1       3.142  31.384  56.974  1.00  0.00     0.026 A 
HETATM   30  C   UNL     1       4.116  30.668  57.677  1.00  0.00     0.011 A 
ENDBRANCH   2  23
BRANCH   7  31
HETATM   31  C   UNL     1       5.695  25.074  55.268  1.00  0.00     0.085 C 
BRANCH  31  32
HETATM   32  C   UNL     1       6.328  24.834  53.896  1.00  0.00     0.034 C 
BRANCH  32  33
HETATM   33  C   UNL     1       5.314  24.852  52.757  1.00  0.00     0.164 C 
BRANCH  33  34
HETATM   34  O   UNL     1       4.020  25.141  53.273  1.00  0.00    -0.401 OA
HETATM   35  H   UNL     1       3.924  26.107  53.310  1.00  0.00     0.209 HD
ENDBRANCH  33  34
ENDBRANCH  32  33
ENDBRANCH  31  32
ENDBRANCH   7  31
TORSDOF 7
ENDMDL
MODEL 6
REMARK VINA RESULT:      -9.1      3.432      6.903
REMARK  7 active torsions:
REMARK  status: ('A' for Active; 'I' for Inactive)
REMARK    1  A    between atoms: C_3  and  N_4 
REMARK       I    between atoms: N_4  and  C_5 
REMARK    2  A    between atoms: C_5  and  C_6 
REMARK    3  A    between atoms: C_7  and  C_8 
REMARK    4  A    between atoms: C_20  and  C_21 
REMARK    5  A    between atoms: C_21  and  C_22 
REMARK    6  A    between atoms: C_22  and  C_23 
REMARK    7  A    between atoms: C_23  and  O_24 
ROOT
HETATM    1  C   UNL     1       5.953  27.992  54.696  1.00  0.00     0.062 C 
HETATM    2  C   UNL     1       6.484  27.561  53.324  1.00  0.00     0.202 C 
HETATM    3  N   UNL     1       5.476  27.774  52.279  1.00  0.00    -0.083 N 
HETATM    4  C   UNL     1       4.159  28.035  52.535  1.00  0.00     0.726 A 
HETATM    5  N   UNL     1       3.760  28.224  53.804  1.00  0.00    -0.192 N 
HETATM    6  N   UNL     1       5.700  27.624  50.956  1.00  0.00    -0.140 NA
HETATM    7  C   UNL     1       4.452  27.736  50.479  1.00  0.00     0.166 A 
HETATM    8  N   UNL     1       3.484  28.018  51.415  1.00  0.00    -0.046 NA
HETATM    9  C   UNL     1       4.630  28.238  54.888  1.00  0.00     0.037 C 
HETATM   10  C   UNL     1       3.980  28.487  56.228  1.00  0.00     0.070 C 
HETATM   11  H   UNL     1       2.774  28.402  53.980  1.00  0.00     0.184 HD
ENDROOT
BRANCH   1  12
HETATM   12  C   UNL     1       6.995  28.083  55.765  1.00  0.00     0.256 C 
HETATM   13  N   UNL     1       7.837  29.162  55.633  1.00  0.00    -0.323 N 
HETATM   14  H   UNL     1       7.867  29.590  54.716  1.00  0.00     0.169 HD
HETATM   15  O   UNL     1       7.123  27.166  56.565  1.00  0.00    -0.267 OA
BRANCH  13  16
HETATM   16  C   UNL     1       8.775  29.670  56.563  1.00  0.00     0.041 A 
HETATM   17  C   UNL     1       8.483  30.322  57.776  1.00  0.00    -0.035 A 
HETATM   18  C   UNL     1       7.102  30.638  58.281  1.00  0.00     0.050 C 
HETATM   19  C   UNL     1       9.555  30.760  58.585  1.00  0.00     0.009 A 
HETATM   20  C   UNL     1      10.880  30.615  58.184  1.00  0.00     0.001 A 
HETATM   21  C   UNL     1      11.164  30.025  56.962  1.00  0.00     0.002 A 
HETATM   22  C   UNL     1      10.120  29.561  56.160  1.00  0.00     0.030 A 
ENDBRANCH  13  16
ENDBRANCH   1  12
BRANCH   2  23
HETATM   23  C   UNL     1       6.934  26.098  53.275  1.00  0.00    -0.026 A 
HETATM   24  C   UNL     1       6.821  25.254  54.396  1.00  0.00     0.035 A 
HETATM   25  C   UNL     1       7.235  23.919  54.334  1.00  0.00     0.056 A 
HETATM   26 CL   UNL     1       7.069  22.961  55.764  1.00  0.00    -0.083 Cl
HETATM   27  C   UNL     1       7.763  23.405  53.146  1.00  0.00     0.055 A 
HETATM   28 CL   UNL     1       8.297  21.770  52.996  1.00  0.00    -0.083 Cl
HETATM   29  C   UNL     1       7.873  24.231  52.024  1.00  0.00     0.026 A 
HETATM   30  C   UNL     1       7.461  25.566  52.087  1.00  0.00     0.011 A 
ENDBRANCH   2  23
BRANCH   7  31
HETATM   31  C   UNL     1       4.109  27.473  49.058  1.00  0.00     0.085 C 
BRANCH  31  32
HETATM   32  C   UNL     1       4.241  25.996  48.683  1.00  0.00     0.034 C 
BRANCH  32  33
HETATM   33  C   UNL     1       2.993  25.436  48.007  1.00  0.00     0.164 C 
BRANCH  33  34
HETATM   34  O   UNL     1       2.762  24.106  48.456  1.00  0.00    -0.401 OA
HETATM   35  H   UNL     1       2.267  24.156  49.291  1.00  0.00     0.209 HD
ENDBRANCH  33  34
ENDBRANCH  32  33
ENDBRANCH  31  32
ENDBRANCH   7  31
TORSDOF 7
ENDMDL
MODEL 7
REMARK VINA RESULT:      -9.0      3.058      4.425
REMARK  7 active torsions:
REMARK  status: ('A' for Active; 'I' for Inactive)
REMARK    1  A    between atoms: C_3  and  N_4 
REMARK       I    between atoms: N_4  and  C_5 
REMARK    2  A    between atoms: C_5  and  C_6 
REMARK    3  A    between atoms: C_7  and  C_8 
REMARK    4  A    between atoms: C_20  and  C_21 
REMARK    5  A    between atoms: C_21  and  C_22 
REMARK    6  A    between atoms: C_22  and  C_23 
REMARK    7  A    between atoms: C_23  and  O_24 
ROOT
HETATM    1  C   UNL     1       6.020  26.504  55.525  1.00  0.00     0.062 C 
HETATM    2  C   UNL     1       6.022  27.690  54.552  1.00  0.00     0.202 C 
HETATM    3  N   UNL     1       5.133  28.758  55.023  1.00  0.00    -0.083 N 
HETATM    4  C   UNL     1       4.213  28.598  56.021  1.00  0.00     0.726 A 
HETATM    5  N   UNL     1       4.177  27.440  56.703  1.00  0.00    -0.192 N 
HETATM    6  N   UNL     1       5.036  29.979  54.456  1.00  0.00    -0.140 NA
HETATM    7  C   UNL     1       3.981  30.477  55.117  1.00  0.00     0.166 A 
HETATM    8  N   UNL     1       3.469  29.669  56.106  1.00  0.00    -0.046 NA
HETATM    9  C   UNL     1       5.077  26.400  56.499  1.00  0.00     0.037 C 
HETATM   10  C   UNL     1       4.874  25.195  57.384  1.00  0.00     0.070 C 
HETATM   11  H   UNL     1       3.477  27.329  57.432  1.00  0.00     0.184 HD
ENDROOT
BRANCH   1  12
HETATM   12  C   UNL     1       7.102  25.501  55.284  1.00  0.00     0.256 C 
HETATM   13  N   UNL     1       6.644  24.215  55.115  1.00  0.00    -0.323 N 
HETATM   14  H   UNL     1       5.708  24.032  55.456  1.00  0.00     0.169 HD
HETATM   15  O   UNL     1       8.274  25.837  55.389  1.00  0.00    -0.267 OA
BRANCH  13  16
HETATM   16  C   UNL     1       7.352  23.078  54.661  1.00  0.00     0.041 A 
HETATM   17  C   UNL     1       7.919  22.898  53.385  1.00  0.00    -0.035 A 
HETATM   18  C   UNL     1       7.828  23.880  52.249  1.00  0.00     0.050 C 
HETATM   19  C   UNL     1       8.597  21.690  53.109  1.00  0.00     0.009 A 
HETATM   20  C   UNL     1       8.666  20.660  54.043  1.00  0.00     0.001 A 
HETATM   21  C   UNL     1       8.058  20.816  55.279  1.00  0.00     0.002 A 
HETATM   22  C   UNL     1       7.405  22.013  55.581  1.00  0.00     0.030 A 
ENDBRANCH  13  16
ENDBRANCH   1  12
BRANCH   2  23
HETATM   23  C   UNL     1       5.614  27.310  53.126  1.00  0.00    -0.026 A 
HETATM   24  C   UNL     1       5.822  28.183  52.042  1.00  0.00     0.035 A 
HETATM   25  C   UNL     1       5.445  27.819  50.744  1.00  0.00     0.056 A 
HETATM   26 CL   UNL     1       5.728  28.961  49.478  1.00  0.00    -0.083 Cl
HETATM   27  C   UNL     1       4.859  26.572  50.511  1.00  0.00     0.055 A 
HETATM   28 CL   UNL     1       4.366  26.057  48.938  1.00  0.00    -0.083 Cl
HETATM   29  C   UNL     1       4.655  25.693  51.578  1.00  0.00     0.026 A 
HETATM   30  C   UNL     1       5.030  26.058  52.874  1.00  0.00     0.011 A 
ENDBRANCH   2  23
BRANCH   7  31
HETATM   31  C   UNL     1       3.336  31.763  54.749  1.00  0.00     0.085 C 
BRANCH  31  32
HETATM   32  C   UNL     1       4.347  32.827  54.318  1.00  0.00     0.034 C 
BRANCH  32  33
HETATM   33  C   UNL     1       4.314  33.112  52.819  1.00  0.00     0.164 C 
BRANCH  33  34
HETATM   34  O   UNL     1       4.968  32.061  52.118  1.00  0.00    -0.401 OA
HETATM   35  H   UNL     1       4.316  31.358  51.960  1.00  0.00     0.209 HD
ENDBRANCH  33  34
ENDBRANCH  32  33
ENDBRANCH  31  32
ENDBRANCH   7  31
TORSDOF 7
ENDMDL
MODEL 8
REMARK VINA RESULT:      -8.9      4.152      8.600
REMARK  7 active torsions:
REMARK  status: ('A' for Active; 'I' for Inactive)
REMARK    1  A    between atoms: C_3  and  N_4 
REMARK       I    between atoms: N_4  and  C_5 
REMARK    2  A    between atoms: C_5  and  C_6 
REMARK    3  A    between atoms: C_7  and  C_8 
REMARK    4  A    between atoms: C_20  and  C_21 
REMARK    5  A    between atoms: C_21  and  C_22 
REMARK    6  A    between atoms: C_22  and  C_23 
REMARK    7  A    between atoms: C_23  and  O_24 
ROOT
HETATM    1  C   UNL     1       7.805  29.964  58.325  1.00  0.00     0.062 C 
HETATM    2  C   UNL     1       6.577  29.083  58.068  1.00  0.00     0.202 C 
HETATM    3  N   UNL     1       6.968  27.790  57.494  1.00  0.00    -0.083 N 
HETATM    4  C   UNL     1       8.209  27.527  56.986  1.00  0.00     0.726 A 
HETATM    5  N   UNL     1       9.179  28.450  57.109  1.00  0.00    -0.192 N 
HETATM    6  N   UNL     1       6.125  26.755  57.294  1.00  0.00    -0.140 NA
HETATM    7  C   UNL     1       6.911  25.927  56.591  1.00  0.00     0.166 A 
HETATM    8  N   UNL     1       8.205  26.355  56.409  1.00  0.00    -0.046 NA
HETATM    9  C   UNL     1       9.015  29.649  57.792  1.00  0.00     0.037 C 
HETATM   10  C   UNL     1      10.236  30.536  57.829  1.00  0.00     0.070 C 
HETATM   11  H   UNL     1      10.093  28.246  56.713  1.00  0.00     0.184 HD
ENDROOT
BRANCH   1  12
HETATM   12  C   UNL     1       7.539  31.171  59.166  1.00  0.00     0.256 C 
HETATM   13  N   UNL     1       7.197  30.882  60.466  1.00  0.00    -0.323 N 
HETATM   14  H   UNL     1       6.877  29.937  60.639  1.00  0.00     0.169 HD
HETATM   15  O   UNL     1       7.499  32.277  58.643  1.00  0.00    -0.267 OA
BRANCH  13  16
HETATM   16  C   UNL     1       7.095  31.761  61.570  1.00  0.00     0.041 A 
HETATM   17  C   UNL     1       6.042  32.659  61.832  1.00  0.00    -0.035 A 
HETATM   18  C   UNL     1       4.847  32.876  60.946  1.00  0.00     0.050 C 
HETATM   19  C   UNL     1       6.109  33.461  62.992  1.00  0.00     0.009 A 
HETATM   20  C   UNL     1       7.210  33.426  63.843  1.00  0.00     0.001 A 
HETATM   21  C   UNL     1       8.272  32.584  63.552  1.00  0.00     0.002 A 
HETATM   22  C   UNL     1       8.214  31.763  62.425  1.00  0.00     0.030 A 
ENDBRANCH  13  16
ENDBRANCH   1  12
BRANCH   2  23
HETATM   23  C   UNL     1       5.542  29.733  57.144  1.00  0.00    -0.026 A 
HETATM   24  C   UNL     1       5.565  29.529  55.752  1.00  0.00     0.035 A 
HETATM   25  C   UNL     1       4.610  30.128  54.923  1.00  0.00     0.056 A 
HETATM   26 CL   UNL     1       4.725  29.830  53.224  1.00  0.00    -0.083 Cl
HETATM   27  C   UNL     1       3.613  30.937  55.476  1.00  0.00     0.055 A 
HETATM   28 CL   UNL     1       2.406  31.712  54.515  1.00  0.00    -0.083 Cl
HETATM   29  C   UNL     1       3.576  31.141  56.858  1.00  0.00     0.026 A 
HETATM   30  C   UNL     1       4.531  30.543  57.686  1.00  0.00     0.011 A 
ENDBRANCH   2  23
BRANCH   7  31
HETATM   31  C   UNL     1       6.404  24.682  55.958  1.00  0.00     0.085 C 
BRANCH  31  32
HETATM   32  C   UNL     1       6.995  24.445  54.568  1.00  0.00     0.034 C 
BRANCH  32  33
HETATM   33  C   UNL     1       7.939  23.248  54.514  1.00  0.00     0.164 C 
BRANCH  33  34
HETATM   34  O   UNL     1       7.549  22.377  53.458  1.00  0.00    -0.401 OA
HETATM   35  H   UNL     1       6.786  22.778  53.010  1.00  0.00     0.209 HD
ENDBRANCH  33  34
ENDBRANCH  32  33
ENDBRANCH  31  32
ENDBRANCH   7  31
TORSDOF 7
ENDMDL
MODEL 9
REMARK VINA RESULT:      -8.7      5.103      7.068
REMARK  7 active torsions:
REMARK  status: ('A' for Active; 'I' for Inactive)
REMARK    1  A    between atoms: C_3  and  N_4 
REMARK       I    between atoms: N_4  and  C_5 
REMARK    2  A    between atoms: C_5  and  C_6 
REMARK    3  A    between atoms: C_7  and  C_8 
REMARK    4  A    between atoms: C_20  and  C_21 
REMARK    5  A    between atoms: C_21  and  C_22 
REMARK    6  A    between atoms: C_22  and  C_23 
REMARK    7  A    between atoms: C_23  and  O_24 
ROOT
HETATM    1  C   UNL     1       5.187  28.218  52.361  1.00  0.00     0.062 C 
HETATM    2  C   UNL     1       5.645  28.528  50.931  1.00  0.00     0.202 C 
HETATM    3  N   UNL     1       5.676  29.976  50.692  1.00  0.00    -0.083 N 
HETATM    4  C   UNL     1       5.097  30.897  51.519  1.00  0.00     0.726 A 
HETATM    5  N   UNL     1       4.561  30.491  52.683  1.00  0.00    -0.192 N 
HETATM    6  N   UNL     1       6.171  30.557  49.579  1.00  0.00    -0.140 NA
HETATM    7  C   UNL     1       5.789  31.828  49.771  1.00  0.00     0.166 A 
HETATM    8  N   UNL     1       5.153  32.079  50.965  1.00  0.00    -0.046 NA
HETATM    9  C   UNL     1       4.618  29.178  53.137  1.00  0.00     0.037 C 
HETATM   10  C   UNL     1       3.972  28.937  54.480  1.00  0.00     0.070 C 
HETATM   11  H   UNL     1       4.121  31.185  53.282  1.00  0.00     0.184 HD
ENDROOT
BRANCH   1  12
HETATM   12  C   UNL     1       5.399  26.800  52.787  1.00  0.00     0.256 C 
HETATM   13  N   UNL     1       6.722  26.441  52.897  1.00  0.00    -0.323 N 
HETATM   14  H   UNL     1       7.382  27.037  52.413  1.00  0.00     0.169 HD
HETATM   15  O   UNL     1       4.441  26.043  52.868  1.00  0.00    -0.267 OA
BRANCH  13  16
HETATM   16  C   UNL     1       7.276  25.275  53.475  1.00  0.00     0.041 A 
HETATM   17  C   UNL     1       7.629  25.096  54.826  1.00  0.00    -0.035 A 
HETATM   18  C   UNL     1       7.521  26.145  55.898  1.00  0.00     0.050 C 
HETATM   19  C   UNL     1       8.169  23.854  55.226  1.00  0.00     0.009 A 
HETATM   20  C   UNL     1       8.411  22.833  54.311  1.00  0.00     0.001 A 
HETATM   21  C   UNL     1       8.117  23.032  52.971  1.00  0.00     0.002 A 
HETATM   22  C   UNL     1       7.557  24.243  52.559  1.00  0.00     0.030 A 
ENDBRANCH  13  16
ENDBRANCH   1  12
BRANCH   2  23
HETATM   23  C   UNL     1       4.772  27.875  49.856  1.00  0.00    -0.026 A 
HETATM   24  C   UNL     1       3.439  28.275  49.645  1.00  0.00     0.035 A 
HETATM   25  C   UNL     1       2.655  27.669  48.657  1.00  0.00     0.056 A 
HETATM   26 CL   UNL     1       1.025  28.217  48.478  1.00  0.00    -0.083 Cl
HETATM   27  C   UNL     1       3.197  26.657  47.859  1.00  0.00     0.055 A 
HETATM   28 CL   UNL     1       2.289  25.862  46.623  1.00  0.00    -0.083 Cl
HETATM   29  C   UNL     1       4.521  26.257  48.053  1.00  0.00     0.026 A 
HETATM   30  C   UNL     1       5.303  26.861  49.042  1.00  0.00     0.011 A 
ENDBRANCH   2  23
BRANCH   7  31
HETATM   31  C   UNL     1       5.940  32.878  48.731  1.00  0.00     0.085 C 
BRANCH  31  32
HETATM   32  C   UNL     1       5.191  32.543  47.441  1.00  0.00     0.034 C 
BRANCH  32  33
HETATM   33  C   UNL     1       5.709  33.313  46.230  1.00  0.00     0.164 C 
BRANCH  33  34
HETATM   34  O   UNL     1       6.005  32.404  45.176  1.00  0.00    -0.401 OA
HETATM   35  H   UNL     1       6.067  32.915  44.351  1.00  0.00     0.209 HD
ENDBRANCH  33  34
ENDBRANCH  32  33
ENDBRANCH  31  32
ENDBRANCH   7  31
TORSDOF 7
ENDMDL
MODEL 10
REMARK VINA RESULT:      -8.3      7.252     11.289
REMARK  7 active torsions:
REMARK  status: ('A' for Active; 'I' for Inactive)
REMARK    1  A    between atoms: C_3  and  N_4 
REMARK       I    between atoms: N_4  and  C_5 
REMARK    2  A    between atoms: C_5  and  C_6 
REMARK    3  A    between atoms: C_7  and  C_8 
REMARK    4  A    between atoms: C_20  and  C_21 
REMARK    5  A    between atoms: C_21  and  C_22 
REMARK    6  A    between atoms: C_22  and  C_23 
REMARK    7  A    between atoms: C_23  and  O_24 
ROOT
HETATM    1  C   UNL     1       5.765  32.406  61.622  1.00  0.00     0.062 C 
HETATM    2  C   UNL     1       4.632  32.341  60.590  1.00  0.00     0.202 C 
HETATM    3  N   UNL     1       5.127  31.858  59.296  1.00  0.00    -0.083 N 
HETATM    4  C   UNL     1       6.452  31.766  58.974  1.00  0.00     0.726 A 
HETATM    5  N   UNL     1       7.377  32.018  59.916  1.00  0.00    -0.192 N 
HETATM    6  N   UNL     1       4.342  31.560  58.239  1.00  0.00    -0.140 NA
HETATM    7  C   UNL     1       5.268  31.368  57.288  1.00  0.00     0.166 A 
HETATM    8  N   UNL     1       6.575  31.457  57.710  1.00  0.00    -0.046 NA
HETATM    9  C   UNL     1       7.066  32.308  61.240  1.00  0.00     0.037 C 
HETATM   10  C   UNL     1       8.254  32.540  62.141  1.00  0.00     0.070 C 
HETATM   11  H   UNL     1       8.359  31.961  59.658  1.00  0.00     0.184 HD
ENDROOT
BRANCH   1  12
HETATM   12  C   UNL     1       5.310  32.608  63.032  1.00  0.00     0.256 C 
HETATM   13  N   UNL     1       5.734  33.790  63.592  1.00  0.00    -0.323 N 
HETATM   14  H   UNL     1       6.519  34.238  63.135  1.00  0.00     0.169 HD
HETATM   15  O   UNL     1       4.743  31.698  63.621  1.00  0.00    -0.267 OA
BRANCH  13  16
HETATM   16  C   UNL     1       5.318  34.394  64.801  1.00  0.00     0.041 A 
HETATM   17  C   UNL     1       4.365  35.421  64.941  1.00  0.00    -0.035 A 
HETATM   18  C   UNL     1       3.646  36.097  63.806  1.00  0.00     0.050 C 
HETATM   19  C   UNL     1       4.070  35.902  66.235  1.00  0.00     0.009 A 
HETATM   20  C   UNL     1       4.739  35.427  67.361  1.00  0.00     0.001 A 
HETATM   21  C   UNL     1       5.718  34.457  67.216  1.00  0.00     0.002 A 
HETATM   22  C   UNL     1       6.005  33.950  65.948  1.00  0.00     0.030 A 
ENDBRANCH  13  16
ENDBRANCH   1  12
BRANCH   2  23
HETATM   23  C   UNL     1       3.928  33.684  60.372  1.00  0.00    -0.026 A 
HETATM   24  C   UNL     1       2.527  33.799  60.433  1.00  0.00     0.035 A 
HETATM   25  C   UNL     1       1.899  35.034  60.233  1.00  0.00     0.056 A 
HETATM   26 CL   UNL     1       0.173  35.078  60.315  1.00  0.00    -0.083 Cl
HETATM   27  C   UNL     1       2.666  36.174  59.975  1.00  0.00     0.055 A 
HETATM   28 CL   UNL     1       1.961  37.729  59.715  1.00  0.00    -0.083 Cl
HETATM   29  C   UNL     1       4.058  36.073  59.919  1.00  0.00     0.026 A 
HETATM   30  C   UNL     1       4.685  34.839  60.117  1.00  0.00     0.011 A 
ENDBRANCH   2  23
BRANCH   7  31
HETATM   31  C   UNL     1       4.922  31.177  55.857  1.00  0.00     0.085 C 
BRANCH  31  32
HETATM   32  C   UNL     1       3.487  30.686  55.657  1.00  0.00     0.034 C 
BRANCH  32  33
HETATM   33  C   UNL     1       2.550  31.772  55.137  1.00  0.00     0.164 C 
BRANCH  33  34
HETATM   34  O   UNL     1       2.104  32.579  56.220  1.00  0.00    -0.401 OA
HETATM   35  H   UNL     1       2.119  33.505  55.927  1.00  0.00     0.209 HD
ENDBRANCH  33  34
ENDBRANCH  32  33
ENDBRANCH  31  32
ENDBRANCH   7  31
TORSDOF 7
ENDMDL
