MODEL 1
REMARK VINA RESULT:      -9.4      0.000      0.000
REMARK  8 active torsions:
REMARK  status: ('A' for Active; 'I' for Inactive)
REMARK    1  A    between atoms: C_4  and  N_5 
REMARK       I    between atoms: N_5  and  C_6 
REMARK    2  A    between atoms: C_6  and  C_7 
REMARK    3  A    between atoms: C_7  and  N_8 
REMARK    4  A    between atoms: N_8  and  C_10 
REMARK    5  A    between atoms: N_8  and  C_13 
REMARK    6  A    between atoms: C_13  and  C_14 
REMARK    7  A    between atoms: C_16  and  C_17 
REMARK    8  A    between atoms: C_27  and  O_28 
ROOT
HETATM    1  N   UNL     1       6.141  28.281  54.529  1.00  0.00    -0.055 N 
HETATM    2  H   UNL     1       5.667  27.481  54.975  1.00  0.00     0.281 HD
ENDROOT
BRANCH   1   3
HETATM    3  C   UNL     1       6.168  29.344  55.652  1.00  0.00     0.338 C 
BRANCH   3   4
HETATM    4  C   UNL     1       5.930  28.730  57.034  1.00  0.00     0.248 C 
HETATM    5  N   UNL     1       6.614  29.215  58.107  1.00  0.00    -0.323 N 
HETATM    6  H   UNL     1       6.174  29.045  59.012  1.00  0.00     0.169 HD
HETATM    7  O   UNL     1       5.041  27.887  57.183  1.00  0.00    -0.271 OA
BRANCH   5   8
HETATM    8  C   UNL     1       7.812  29.955  58.170  1.00  0.00     0.069 A 
HETATM    9  C   UNL     1       9.001  29.511  57.582  1.00  0.00     0.039 A 
HETATM   10  C   UNL     1      10.182  30.252  57.721  1.00  0.00    -0.060 A 
HETATM   11  C   UNL     1      11.481  29.737  57.172  1.00  0.00     0.048 C 
HETATM   12  C   UNL     1      10.160  31.433  58.470  1.00  0.00     0.009 A 
HETATM   13  C   UNL     1       8.980  31.873  59.076  1.00  0.00     0.039 A 
HETATM   14  C   UNL     1       7.804  31.136  58.939  1.00  0.00     0.095 A 
BRANCH  14  15
HETATM   15  O   UNL     1       6.591  31.474  59.489  1.00  0.00    -0.354 OA
HETATM   16  C   UNL     1       6.610  32.390  60.580  1.00  0.00     0.210 C 
ENDBRANCH  14  15
ENDBRANCH   5   8
ENDBRANCH   3   4
ENDBRANCH   1   3
BRANCH   1  17
HETATM   17  C   UNL     1       5.218  28.664  53.400  1.00  0.00     0.189 A 
HETATM   18  C   UNL     1       3.943  27.885  53.236  1.00  0.00     0.035 A 
HETATM   19  C   UNL     1       3.893  29.328  53.644  1.00  0.00     0.035 A 
ENDBRANCH   1  17
BRANCH   1  20
HETATM   20  C   UNL     1       7.509  27.802  54.128  1.00  0.00     0.274 C 
BRANCH  20  21
HETATM   21  C   UNL     1       7.553  26.382  53.631  1.00  0.00    -0.032 A 
HETATM   22  C   UNL     1       7.734  25.315  54.529  1.00  0.00     0.021 A 
HETATM   23  C   UNL     1       7.775  23.980  54.087  1.00  0.00    -0.024 A 
HETATM   24  C   UNL     1       7.638  23.738  52.712  1.00  0.00     0.012 A 
HETATM   25  C   UNL     1       7.458  24.787  51.809  1.00  0.00     0.001 A 
HETATM   26  C   UNL     1       7.414  26.102  52.265  1.00  0.00     0.009 A 
BRANCH  23  27
HETATM   27  C   UNL     1       7.947  22.872  55.040  1.00  0.00    -0.008 A 
HETATM   28  C   UNL     1       8.230  23.096  56.390  1.00  0.00     0.128 A 
HETATM   29  N   UNL     1       8.424  22.125  57.313  1.00  0.00    -0.272 NA
HETATM   30  C   UNL     1       8.311  20.852  56.886  1.00  0.00     0.116 A 
HETATM   31  C   UNL     1       8.020  20.508  55.578  1.00  0.00     0.020 A 
HETATM   32  C   UNL     1       7.840  21.531  54.648  1.00  0.00     0.015 A 
ENDBRANCH  23  27
ENDBRANCH  20  21
ENDBRANCH   1  20
TORSDOF 8
ENDMDL
MODEL 2
REMARK VINA RESULT:      -9.3      1.911      3.340
REMARK  8 active torsions:
REMARK  status: ('A' for Active; 'I' for Inactive)
REMARK    1  A    between atoms: C_4  and  N_5 
REMARK       I    between atoms: N_5  and  C_6 
REMARK    2  A    between atoms: C_6  and  C_7 
REMARK    3  A    between atoms: C_7  and  N_8 
REMARK    4  A    between atoms: N_8  and  C_10 
REMARK    5  A    between atoms: N_8  and  C_13 
REMARK    6  A    between atoms: C_13  and  C_14 
REMARK    7  A    between atoms: C_16  and  C_17 
REMARK    8  A    between atoms: C_27  and  O_28 
ROOT
HETATM    1  N   UNL     1       8.003  28.358  56.962  1.00  0.00    -0.055 N 
HETATM    2  H   UNL     1       7.655  28.735  56.067  1.00  0.00     0.281 HD
ENDROOT
BRANCH   1   3
HETATM    3  C   UNL     1       7.265  29.217  58.015  1.00  0.00     0.338 C 
BRANCH   3   4
HETATM    4  C   UNL     1       6.400  30.303  57.372  1.00  0.00     0.248 C 
HETATM    5  N   UNL     1       6.403  31.559  57.898  1.00  0.00    -0.323 N 
HETATM    6  H   UNL     1       6.125  32.298  57.252  1.00  0.00     0.169 HD
HETATM    7  O   UNL     1       5.799  30.062  56.321  1.00  0.00    -0.271 OA
BRANCH   5   8
HETATM    8  C   UNL     1       6.774  32.013  59.179  1.00  0.00     0.069 A 
HETATM    9  C   UNL     1       8.067  31.850  59.689  1.00  0.00     0.039 A 
HETATM   10  C   UNL     1       8.373  32.265  60.992  1.00  0.00    -0.060 A 
HETATM   11  C   UNL     1       9.733  32.011  61.578  1.00  0.00     0.048 C 
HETATM   12  C   UNL     1       7.367  32.827  61.783  1.00  0.00     0.009 A 
HETATM   13  C   UNL     1       6.068  32.976  61.287  1.00  0.00     0.039 A 
HETATM   14  C   UNL     1       5.761  32.563  59.990  1.00  0.00     0.095 A 
BRANCH  14  15
HETATM   15  O   UNL     1       4.523  32.662  59.402  1.00  0.00    -0.354 OA
HETATM   16  C   UNL     1       3.451  31.971  60.036  1.00  0.00     0.210 C 
ENDBRANCH  14  15
ENDBRANCH   5   8
ENDBRANCH   3   4
ENDBRANCH   1   3
BRANCH   1  17
HETATM   17  C   UNL     1       9.482  28.645  56.924  1.00  0.00     0.189 A 
HETATM   18  C   UNL     1       9.994  29.574  55.857  1.00  0.00     0.035 A 
HETATM   19  C   UNL     1      10.045  29.987  57.298  1.00  0.00     0.035 A 
ENDBRANCH   1  17
BRANCH   1  20
HETATM   20  C   UNL     1       7.614  26.906  56.998  1.00  0.00     0.274 C 
BRANCH  20  21
HETATM   21  C   UNL     1       7.622  26.224  55.656  1.00  0.00    -0.032 A 
HETATM   22  C   UNL     1       7.890  24.847  55.555  1.00  0.00     0.021 A 
HETATM   23  C   UNL     1       7.900  24.188  54.312  1.00  0.00    -0.024 A 
HETATM   24  C   UNL     1       7.641  24.950  53.163  1.00  0.00     0.012 A 
HETATM   25  C   UNL     1       7.374  26.317  53.247  1.00  0.00     0.001 A 
HETATM   26  C   UNL     1       7.362  26.952  54.488  1.00  0.00     0.009 A 
BRANCH  23  27
HETATM   27  C   UNL     1       8.165  22.744  54.223  1.00  0.00    -0.008 A 
HETATM   28  C   UNL     1       8.665  22.016  55.306  1.00  0.00     0.128 A 
HETATM   29  N   UNL     1       8.953  20.694  55.284  1.00  0.00    -0.272 NA
HETATM   30  C   UNL     1       8.714  20.040  54.131  1.00  0.00     0.116 A 
HETATM   31  C   UNL     1       8.207  20.651  52.997  1.00  0.00     0.020 A 
HETATM   32  C   UNL     1       7.934  22.017  53.047  1.00  0.00     0.015 A 
ENDBRANCH  23  27
ENDBRANCH  20  21
ENDBRANCH   1  20
TORSDOF 8
ENDMDL
MODEL 3
REMARK VINA RESULT:      -9.1      1.202      1.987
REMARK  8 active torsions:
REMARK  status: ('A' for Active; 'I' for Inactive)
REMARK    1  A    between atoms: C_4  and  N_5 
REMARK       I    between atoms: N_5  and  C_6 
REMARK    2  A    between atoms: C_6  and  C_7 
REMARK    3  A    between atoms: C_7  and  N_8 
REMARK    4  A    between atoms: N_8  and  C_10 
REMARK    5  A    between atoms: N_8  and  C_13 
REMARK    6  A    between atoms: C_13  and  C_14 
REMARK    7  A    between atoms: C_16  and  C_17 
REMARK    8  A    between atoms: C_27  and  O_28 
ROOT
HETATM    1  N   UNL     1       6.024  28.548  54.890  1.00  0.00    -0.055 N 
HETATM    2  H   UNL     1       5.451  27.884  55.434  1.00  0.00     0.281 HD
ENDROOT
BRANCH   1   3
HETATM    3  C   UNL     1       6.126  29.773  55.827  1.00  0.00     0.338 C 
BRANCH   3   4
HETATM    4  C   UNL     1       5.657  29.455  57.249  1.00  0.00     0.248 C 
HETATM    5  N   UNL     1       6.322  29.993  58.309  1.00  0.00    -0.323 N 
HETATM    6  H   UNL     1       5.781  30.058  59.170  1.00  0.00     0.169 HD
HETATM    7  O   UNL     1       4.617  28.812  57.420  1.00  0.00    -0.271 OA
BRANCH   5   8
HETATM    8  C   UNL     1       7.627  30.520  58.397  1.00  0.00     0.069 A 
HETATM    9  C   UNL     1       8.711  29.961  57.710  1.00  0.00     0.039 A 
HETATM   10  C   UNL     1      10.000  30.483  57.876  1.00  0.00    -0.060 A 
HETATM   11  C   UNL     1      11.182  29.833  57.215  1.00  0.00     0.048 C 
HETATM   12  C   UNL     1      10.194  31.558  58.750  1.00  0.00     0.009 A 
HETATM   13  C   UNL     1       9.118  32.108  59.454  1.00  0.00     0.039 A 
HETATM   14  C   UNL     1       7.834  31.590  59.291  1.00  0.00     0.095 A 
BRANCH  14  15
HETATM   15  O   UNL     1       6.708  32.052  59.929  1.00  0.00    -0.354 OA
HETATM   16  C   UNL     1       6.816  32.300  61.328  1.00  0.00     0.210 C 
ENDBRANCH  14  15
ENDBRANCH   5   8
ENDBRANCH   3   4
ENDBRANCH   1   3
BRANCH   1  17
HETATM   17  C   UNL     1       5.188  28.829  53.667  1.00  0.00     0.189 A 
HETATM   18  C   UNL     1       3.905  28.064  53.499  1.00  0.00     0.035 A 
HETATM   19  C   UNL     1       3.869  29.542  53.750  1.00  0.00     0.035 A 
ENDBRANCH   1  17
BRANCH   1  20
HETATM   20  C   UNL     1       7.346  27.874  54.644  1.00  0.00     0.274 C 
BRANCH  20  21
HETATM   21  C   UNL     1       7.564  26.615  55.442  1.00  0.00    -0.032 A 
HETATM   22  C   UNL     1       7.614  25.363  54.803  1.00  0.00     0.021 A 
HETATM   23  C   UNL     1       7.819  24.175  55.527  1.00  0.00    -0.024 A 
HETATM   24  C   UNL     1       7.964  24.271  56.920  1.00  0.00     0.012 A 
HETATM   25  C   UNL     1       7.915  25.507  57.568  1.00  0.00     0.001 A 
HETATM   26  C   UNL     1       7.718  26.674  56.833  1.00  0.00     0.009 A 
BRANCH  23  27
HETATM   27  C   UNL     1       7.888  22.874  54.844  1.00  0.00    -0.008 A 
HETATM   28  C   UNL     1       8.023  21.676  55.549  1.00  0.00     0.128 A 
HETATM   29  N   UNL     1       8.117  20.450  54.984  1.00  0.00    -0.272 NA
HETATM   30  C   UNL     1       8.051  20.396  53.638  1.00  0.00     0.116 A 
HETATM   31  C   UNL     1       7.904  21.514  52.836  1.00  0.00     0.020 A 
HETATM   32  C   UNL     1       7.825  22.764  53.449  1.00  0.00     0.015 A 
ENDBRANCH  23  27
ENDBRANCH  20  21
ENDBRANCH   1  20
TORSDOF 8
ENDMDL
MODEL 4
REMARK VINA RESULT:      -8.9      2.813      9.063
REMARK  8 active torsions:
REMARK  status: ('A' for Active; 'I' for Inactive)
REMARK    1  A    between atoms: C_4  and  N_5 
REMARK       I    between atoms: N_5  and  C_6 
REMARK    2  A    between atoms: C_6  and  C_7 
REMARK    3  A    between atoms: C_7  and  N_8 
REMARK    4  A    between atoms: N_8  and  C_10 
REMARK    5  A    between atoms: N_8  and  C_13 
REMARK    6  A    between atoms: C_13  and  C_14 
REMARK    7  A    between atoms: C_16  and  C_17 
REMARK    8  A    between atoms: C_27  and  O_28 
ROOT
HETATM    1  N   UNL     1       7.304  30.290  57.812  1.00  0.00    -0.055 N 
HETATM    2  H   UNL     1       7.031  29.553  58.480  1.00  0.00     0.281 HD
ENDROOT
BRANCH   1   3
HETATM    3  C   UNL     1       6.136  30.298  56.800  1.00  0.00     0.338 C 
BRANCH   3   4
HETATM    4  C   UNL     1       4.849  29.722  57.398  1.00  0.00     0.248 C 
HETATM    5  N   UNL     1       4.624  28.380  57.332  1.00  0.00    -0.323 N 
HETATM    6  H   UNL     1       3.978  28.016  58.032  1.00  0.00     0.169 HD
HETATM    7  O   UNL     1       4.087  30.457  58.032  1.00  0.00    -0.271 OA
BRANCH   5   8
HETATM    8  C   UNL     1       5.174  27.401  56.481  1.00  0.00     0.069 A 
HETATM    9  C   UNL     1       6.049  26.410  56.941  1.00  0.00     0.039 A 
HETATM   10  C   UNL     1       6.618  25.495  56.047  1.00  0.00    -0.060 A 
HETATM   11  C   UNL     1       7.627  24.487  56.519  1.00  0.00     0.048 C 
HETATM   12  C   UNL     1       6.315  25.594  54.686  1.00  0.00     0.009 A 
HETATM   13  C   UNL     1       5.457  26.593  54.215  1.00  0.00     0.039 A 
HETATM   14  C   UNL     1       4.891  27.506  55.104  1.00  0.00     0.095 A 
BRANCH  14  15
HETATM   15  O   UNL     1       4.036  28.524  54.753  1.00  0.00    -0.354 OA
HETATM   16  C   UNL     1       4.372  29.275  53.591  1.00  0.00     0.210 C 
ENDBRANCH  14  15
ENDBRANCH   5   8
ENDBRANCH   3   4
ENDBRANCH   1   3
BRANCH   1  17
HETATM   17  C   UNL     1       8.583  29.771  57.206  1.00  0.00     0.189 A 
HETATM   18  C   UNL     1       8.835  28.290  57.251  1.00  0.00     0.035 A 
HETATM   19  C   UNL     1       8.596  28.970  55.935  1.00  0.00     0.035 A 
ENDBRANCH   1  17
BRANCH   1  20
HETATM   20  C   UNL     1       7.419  31.565  58.602  1.00  0.00     0.274 C 
BRANCH  20  21
HETATM   21  C   UNL     1       7.852  31.377  60.032  1.00  0.00    -0.032 A 
HETATM   22  C   UNL     1       7.160  32.013  61.078  1.00  0.00     0.021 A 
HETATM   23  C   UNL     1       7.546  31.851  62.421  1.00  0.00    -0.024 A 
HETATM   24  C   UNL     1       8.655  31.036  62.692  1.00  0.00     0.012 A 
HETATM   25  C   UNL     1       9.353  30.399  61.664  1.00  0.00     0.001 A 
HETATM   26  C   UNL     1       8.953  30.566  60.340  1.00  0.00     0.009 A 
BRANCH  23  27
HETATM   27  C   UNL     1       6.802  32.508  63.507  1.00  0.00    -0.008 A 
HETATM   28  C   UNL     1       5.414  32.401  63.622  1.00  0.00     0.128 A 
HETATM   29  N   UNL     1       4.667  32.998  64.579  1.00  0.00    -0.272 NA
HETATM   30  C   UNL     1       5.330  33.730  65.497  1.00  0.00     0.116 A 
HETATM   31  C   UNL     1       6.703  33.896  65.494  1.00  0.00     0.020 A 
HETATM   32  C   UNL     1       7.443  33.280  64.485  1.00  0.00     0.015 A 
ENDBRANCH  23  27
ENDBRANCH  20  21
ENDBRANCH   1  20
TORSDOF 8
ENDMDL
MODEL 5
REMARK VINA RESULT:      -8.6      1.825      4.914
REMARK  8 active torsions:
REMARK  status: ('A' for Active; 'I' for Inactive)
REMARK    1  A    between atoms: C_4  and  N_5 
REMARK       I    between atoms: N_5  and  C_6 
REMARK    2  A    between atoms: C_6  and  C_7 
REMARK    3  A    between atoms: C_7  and  N_8 
REMARK    4  A    between atoms: N_8  and  C_10 
REMARK    5  A    between atoms: N_8  and  C_13 
REMARK    6  A    between atoms: C_13  and  C_14 
REMARK    7  A    between atoms: C_16  and  C_17 
REMARK    8  A    between atoms: C_27  and  O_28 
ROOT
HETATM    1  N   UNL     1       7.478  28.124  56.022  1.00  0.00    -0.055 N 
HETATM    2  H   UNL     1       8.122  28.151  55.216  1.00  0.00     0.281 HD
ENDROOT
BRANCH   1   3
HETATM    3  C   UNL     1       6.553  29.337  55.774  1.00  0.00     0.338 C 
BRANCH   3   4
HETATM    4  C   UNL     1       5.155  29.129  56.361  1.00  0.00     0.248 C 
HETATM    5  N   UNL     1       4.130  28.775  55.537  1.00  0.00    -0.323 N 
HETATM    6  H   UNL     1       3.350  28.306  55.996  1.00  0.00     0.169 HD
HETATM    7  O   UNL     1       4.994  29.169  57.584  1.00  0.00    -0.271 OA
BRANCH   5   8
HETATM    8  C   UNL     1       3.990  28.911  54.141  1.00  0.00     0.069 A 
HETATM    9  C   UNL     1       4.390  27.912  53.245  1.00  0.00     0.039 A 
HETATM   10  C   UNL     1       4.286  28.116  51.863  1.00  0.00    -0.060 A 
HETATM   11  C   UNL     1       4.798  27.088  50.895  1.00  0.00     0.048 C 
HETATM   12  C   UNL     1       3.795  29.336  51.389  1.00  0.00     0.009 A 
HETATM   13  C   UNL     1       3.411  30.346  52.278  1.00  0.00     0.039 A 
HETATM   14  C   UNL     1       3.514  30.145  53.654  1.00  0.00     0.095 A 
BRANCH  14  15
HETATM   15  O   UNL     1       3.166  31.063  54.615  1.00  0.00    -0.354 OA
HETATM   16  C   UNL     1       3.852  32.311  54.592  1.00  0.00     0.210 C 
ENDBRANCH  14  15
ENDBRANCH   5   8
ENDBRANCH   3   4
ENDBRANCH   1   3
BRANCH   1  17
HETATM   17  C   UNL     1       8.380  28.325  57.213  1.00  0.00     0.189 A 
HETATM   18  C   UNL     1       9.727  28.951  56.980  1.00  0.00     0.035 A 
HETATM   19  C   UNL     1       8.683  29.690  57.762  1.00  0.00     0.035 A 
ENDBRANCH   1  17
BRANCH   1  20
HETATM   20  C   UNL     1       6.761  26.804  55.954  1.00  0.00     0.274 C 
BRANCH  20  21
HETATM   21  C   UNL     1       7.230  25.893  54.851  1.00  0.00    -0.032 A 
HETATM   22  C   UNL     1       7.522  24.542  55.114  1.00  0.00     0.021 A 
HETATM   23  C   UNL     1       7.960  23.673  54.098  1.00  0.00    -0.024 A 
HETATM   24  C   UNL     1       8.108  24.195  52.804  1.00  0.00     0.012 A 
HETATM   25  C   UNL     1       7.823  25.534  52.529  1.00  0.00     0.001 A 
HETATM   26  C   UNL     1       7.384  26.379  53.546  1.00  0.00     0.009 A 
BRANCH  23  27
HETATM   27  C   UNL     1       8.245  22.258  54.383  1.00  0.00    -0.008 A 
HETATM   28  C   UNL     1       8.527  21.342  53.367  1.00  0.00     0.128 A 
HETATM   29  N   UNL     1       8.773  20.025  53.557  1.00  0.00    -0.272 NA
HETATM   30  C   UNL     1       8.763  19.584  54.831  1.00  0.00     0.116 A 
HETATM   31  C   UNL     1       8.510  20.400  55.920  1.00  0.00     0.020 A 
HETATM   32  C   UNL     1       8.246  21.749  55.689  1.00  0.00     0.015 A 
ENDBRANCH  23  27
ENDBRANCH  20  21
ENDBRANCH   1  20
TORSDOF 8
ENDMDL
MODEL 6
REMARK VINA RESULT:      -8.6      2.920      7.518
REMARK  8 active torsions:
REMARK  status: ('A' for Active; 'I' for Inactive)
REMARK    1  A    between atoms: C_4  and  N_5 
REMARK       I    between atoms: N_5  and  C_6 
REMARK    2  A    between atoms: C_6  and  C_7 
REMARK    3  A    between atoms: C_7  and  N_8 
REMARK    4  A    between atoms: N_8  and  C_10 
REMARK    5  A    between atoms: N_8  and  C_13 
REMARK    6  A    between atoms: C_13  and  C_14 
REMARK    7  A    between atoms: C_16  and  C_17 
REMARK    8  A    between atoms: C_27  and  O_28 
ROOT
HETATM    1  N   UNL     1       7.625  28.043  55.987  1.00  0.00    -0.055 N 
HETATM    2  H   UNL     1       6.687  27.715  56.264  1.00  0.00     0.281 HD
ENDROOT
BRANCH   1   3
HETATM    3  C   UNL     1       8.559  26.939  56.536  1.00  0.00     0.338 C 
BRANCH   3   4
HETATM    4  C   UNL     1       7.794  25.879  57.332  1.00  0.00     0.248 C 
HETATM    5  N   UNL     1       7.386  24.739  56.709  1.00  0.00    -0.323 N 
HETATM    6  H   UNL     1       7.225  23.944  57.326  1.00  0.00     0.169 HD
HETATM    7  O   UNL     1       7.657  26.013  58.552  1.00  0.00    -0.271 OA
BRANCH   5   8
HETATM    8  C   UNL     1       7.193  24.465  55.340  1.00  0.00     0.069 A 
HETATM    9  C   UNL     1       6.048  24.873  54.646  1.00  0.00     0.039 A 
HETATM   10  C   UNL     1       5.873  24.526  53.300  1.00  0.00    -0.060 A 
HETATM   11  C   UNL     1       4.607  24.881  52.574  1.00  0.00     0.048 C 
HETATM   12  C   UNL     1       6.848  23.751  52.664  1.00  0.00     0.009 A 
HETATM   13  C   UNL     1       7.985  23.324  53.356  1.00  0.00     0.039 A 
HETATM   14  C   UNL     1       8.161  23.668  54.696  1.00  0.00     0.095 A 
BRANCH  14  15
HETATM   15  O   UNL     1       9.236  23.305  55.471  1.00  0.00    -0.354 OA
HETATM   16  C   UNL     1       9.495  21.910  55.601  1.00  0.00     0.210 C 
ENDBRANCH  14  15
ENDBRANCH   5   8
ENDBRANCH   3   4
ENDBRANCH   1   3
BRANCH   1  17
HETATM   17  C   UNL     1       7.785  29.347  56.726  1.00  0.00     0.189 A 
HETATM   18  C   UNL     1       6.746  29.709  57.752  1.00  0.00     0.035 A 
HETATM   19  C   UNL     1       8.149  29.399  58.183  1.00  0.00     0.035 A 
ENDBRANCH   1  17
BRANCH   1  20
HETATM   20  C   UNL     1       7.624  28.132  54.486  1.00  0.00     0.274 C 
BRANCH  20  21
HETATM   21  C   UNL     1       6.257  28.266  53.869  1.00  0.00    -0.032 A 
HETATM   22  C   UNL     1       6.099  28.247  52.472  1.00  0.00     0.021 A 
HETATM   23  C   UNL     1       4.831  28.368  51.874  1.00  0.00    -0.024 A 
HETATM   24  C   UNL     1       3.719  28.518  52.715  1.00  0.00     0.012 A 
HETATM   25  C   UNL     1       3.861  28.539  54.104  1.00  0.00     0.001 A 
HETATM   26  C   UNL     1       5.124  28.412  54.679  1.00  0.00     0.009 A 
BRANCH  23  27
HETATM   27  C   UNL     1       4.678  28.328  50.411  1.00  0.00    -0.008 A 
HETATM   28  C   UNL     1       4.283  29.450  49.679  1.00  0.00     0.128 A 
HETATM   29  N   UNL     1       4.099  29.477  48.339  1.00  0.00    -0.272 NA
HETATM   30  C   UNL     1       4.341  28.331  47.671  1.00  0.00     0.116 A 
HETATM   31  C   UNL     1       4.749  27.161  48.286  1.00  0.00     0.020 A 
HETATM   32  C   UNL     1       4.916  27.163  49.670  1.00  0.00     0.015 A 
ENDBRANCH  23  27
ENDBRANCH  20  21
ENDBRANCH   1  20
TORSDOF 8
ENDMDL
MODEL 7
REMARK VINA RESULT:      -8.6      1.900      3.672
REMARK  8 active torsions:
REMARK  status: ('A' for Active; 'I' for Inactive)
REMARK    1  A    between atoms: C_4  and  N_5 
REMARK       I    between atoms: N_5  and  C_6 
REMARK    2  A    between atoms: C_6  and  C_7 
REMARK    3  A    between atoms: C_7  and  N_8 
REMARK    4  A    between atoms: N_8  and  C_10 
REMARK    5  A    between atoms: N_8  and  C_13 
REMARK    6  A    between atoms: C_13  and  C_14 
REMARK    7  A    between atoms: C_16  and  C_17 
REMARK    8  A    between atoms: C_27  and  O_28 
ROOT
HETATM    1  N   UNL     1       6.118  27.637  56.785  1.00  0.00    -0.055 N 
HETATM    2  H   UNL     1       6.496  27.973  55.886  1.00  0.00     0.281 HD
ENDROOT
BRANCH   1   3
HETATM    3  C   UNL     1       5.277  28.835  57.282  1.00  0.00     0.338 C 
BRANCH   3   4
HETATM    4  C   UNL     1       5.483  30.083  56.421  1.00  0.00     0.248 C 
HETATM    5  N   UNL     1       5.850  31.253  57.015  1.00  0.00    -0.323 N 
HETATM    6  H   UNL     1       6.316  31.921  56.402  1.00  0.00     0.169 HD
HETATM    7  O   UNL     1       5.428  29.992  55.191  1.00  0.00    -0.271 OA
BRANCH   5   8
HETATM    8  C   UNL     1       5.732  31.674  58.355  1.00  0.00     0.069 A 
HETATM    9  C   UNL     1       4.511  32.066  58.915  1.00  0.00     0.039 A 
HETATM   10  C   UNL     1       4.453  32.534  60.234  1.00  0.00    -0.060 A 
HETATM   11  C   UNL     1       3.163  33.042  60.812  1.00  0.00     0.048 C 
HETATM   12  C   UNL     1       5.633  32.620  60.979  1.00  0.00     0.009 A 
HETATM   13  C   UNL     1       6.859  32.248  60.420  1.00  0.00     0.039 A 
HETATM   14  C   UNL     1       6.919  31.783  59.107  1.00  0.00     0.095 A 
BRANCH  14  15
HETATM   15  O   UNL     1       8.066  31.390  58.459  1.00  0.00    -0.354 OA
HETATM   16  C   UNL     1       9.302  31.822  59.019  1.00  0.00     0.210 C 
ENDBRANCH  14  15
ENDBRANCH   5   8
ENDBRANCH   3   4
ENDBRANCH   1   3
BRANCH   1  17
HETATM   17  C   UNL     1       7.346  27.408  57.629  1.00  0.00     0.189 A 
HETATM   18  C   UNL     1       8.575  26.864  56.955  1.00  0.00     0.035 A 
HETATM   19  C   UNL     1       8.574  28.262  57.499  1.00  0.00     0.035 A 
ENDBRANCH   1  17
BRANCH   1  20
HETATM   20  C   UNL     1       5.294  26.417  56.476  1.00  0.00     0.274 C 
BRANCH  20  21
HETATM   21  C   UNL     1       5.711  25.681  55.230  1.00  0.00    -0.032 A 
HETATM   22  C   UNL     1       6.412  24.465  55.318  1.00  0.00     0.021 A 
HETATM   23  C   UNL     1       6.808  23.760  54.167  1.00  0.00    -0.024 A 
HETATM   24  C   UNL     1       6.491  24.310  52.917  1.00  0.00     0.012 A 
HETATM   25  C   UNL     1       5.796  25.517  52.813  1.00  0.00     0.001 A 
HETATM   26  C   UNL     1       5.406  26.199  53.964  1.00  0.00     0.009 A 
BRANCH  23  27
HETATM   27  C   UNL     1       7.526  22.479  54.274  1.00  0.00    -0.008 A 
HETATM   28  C   UNL     1       7.933  21.962  55.506  1.00  0.00     0.128 A 
HETATM   29  N   UNL     1       8.616  20.806  55.673  1.00  0.00    -0.272 NA
HETATM   30  C   UNL     1       8.898  20.101  54.559  1.00  0.00     0.116 A 
HETATM   31  C   UNL     1       8.534  20.506  53.287  1.00  0.00     0.020 A 
HETATM   32  C   UNL     1       7.844  21.710  53.147  1.00  0.00     0.015 A 
ENDBRANCH  23  27
ENDBRANCH  20  21
ENDBRANCH   1  20
TORSDOF 8
ENDMDL
MODEL 8
REMARK VINA RESULT:      -8.5      3.499      6.748
REMARK  8 active torsions:
REMARK  status: ('A' for Active; 'I' for Inactive)
REMARK    1  A    between atoms: C_4  and  N_5 
REMARK       I    between atoms: N_5  and  C_6 
REMARK    2  A    between atoms: C_6  and  C_7 
REMARK    3  A    between atoms: C_7  and  N_8 
REMARK    4  A    between atoms: N_8  and  C_10 
REMARK    5  A    between atoms: N_8  and  C_13 
REMARK    6  A    between atoms: C_13  and  C_14 
REMARK    7  A    between atoms: C_16  and  C_17 
REMARK    8  A    between atoms: C_27  and  O_28 
ROOT
HETATM    1  N   UNL     1       5.073  27.343  54.784  1.00  0.00    -0.055 N 
HETATM    2  H   UNL     1       6.068  27.614  54.791  1.00  0.00     0.281 HD
ENDROOT
BRANCH   1   3
HETATM    3  C   UNL     1       4.818  26.981  53.303  1.00  0.00     0.338 C 
BRANCH   3   4
HETATM    4  C   UNL     1       6.110  26.956  52.483  1.00  0.00     0.248 C 
HETATM    5  N   UNL     1       6.062  27.238  51.151  1.00  0.00    -0.323 N 
HETATM    6  H   UNL     1       6.940  27.563  50.747  1.00  0.00     0.169 HD
HETATM    7  O   UNL     1       7.193  26.796  53.054  1.00  0.00    -0.271 OA
BRANCH   5   8
HETATM    8  C   UNL     1       4.982  27.199  50.247  1.00  0.00     0.069 A 
HETATM    9  C   UNL     1       4.534  26.010  49.661  1.00  0.00     0.039 A 
HETATM   10  C   UNL     1       3.495  26.028  48.722  1.00  0.00    -0.060 A 
HETATM   11  C   UNL     1       3.071  24.768  48.022  1.00  0.00     0.048 C 
HETATM   12  C   UNL     1       2.923  27.252  48.363  1.00  0.00     0.009 A 
HETATM   13  C   UNL     1       3.378  28.447  48.929  1.00  0.00     0.039 A 
HETATM   14  C   UNL     1       4.413  28.431  49.864  1.00  0.00     0.095 A 
BRANCH  14  15
HETATM   15  O   UNL     1       4.936  29.540  50.483  1.00  0.00    -0.354 OA
HETATM   16  C   UNL     1       4.024  30.583  50.816  1.00  0.00     0.210 C 
ENDBRANCH  14  15
ENDBRANCH   5   8
ENDBRANCH   3   4
ENDBRANCH   1   3
BRANCH   1  17
HETATM   17  C   UNL     1       4.353  28.602  55.197  1.00  0.00     0.189 A 
HETATM   18  C   UNL     1       5.182  29.814  55.523  1.00  0.00     0.035 A 
HETATM   19  C   UNL     1       4.296  29.815  54.313  1.00  0.00     0.035 A 
ENDBRANCH   1  17
BRANCH   1  20
HETATM   20  C   UNL     1       4.939  26.172  55.717  1.00  0.00     0.274 C 
BRANCH  20  21
HETATM   21  C   UNL     1       6.234  25.469  56.027  1.00  0.00    -0.032 A 
HETATM   22  C   UNL     1       6.562  24.259  55.389  1.00  0.00     0.021 A 
HETATM   23  C   UNL     1       7.767  23.587  55.662  1.00  0.00    -0.024 A 
HETATM   24  C   UNL     1       8.639  24.155  56.603  1.00  0.00     0.012 A 
HETATM   25  C   UNL     1       8.326  25.355  57.244  1.00  0.00     0.001 A 
HETATM   26  C   UNL     1       7.131  26.011  56.957  1.00  0.00     0.009 A 
BRANCH  23  27
HETATM   27  C   UNL     1       8.106  22.331  54.974  1.00  0.00    -0.008 A 
HETATM   28  C   UNL     1       8.687  21.254  55.647  1.00  0.00     0.128 A 
HETATM   29  N   UNL     1       9.045  20.082  55.072  1.00  0.00    -0.272 NA
HETATM   30  C   UNL     1       8.795  19.952  53.754  1.00  0.00     0.116 A 
HETATM   31  C   UNL     1       8.211  20.944  52.986  1.00  0.00     0.020 A 
HETATM   32  C   UNL     1       7.867  22.145  53.606  1.00  0.00     0.015 A 
ENDBRANCH  23  27
ENDBRANCH  20  21
ENDBRANCH   1  20
TORSDOF 8
ENDMDL
MODEL 9
REMARK VINA RESULT:      -8.4      1.975      2.955
REMARK  8 active torsions:
REMARK  status: ('A' for Active; 'I' for Inactive)
REMARK    1  A    between atoms: C_4  and  N_5 
REMARK       I    between atoms: N_5  and  C_6 
REMARK    2  A    between atoms: C_6  and  C_7 
REMARK    3  A    between atoms: C_7  and  N_8 
REMARK    4  A    between atoms: N_8  and  C_10 
REMARK    5  A    between atoms: N_8  and  C_13 
REMARK    6  A    between atoms: C_13  and  C_14 
REMARK    7  A    between atoms: C_16  and  C_17 
REMARK    8  A    between atoms: C_27  and  O_28 
ROOT
HETATM    1  N   UNL     1       7.218  28.120  55.584  1.00  0.00    -0.055 N 
HETATM    2  H   UNL     1       7.645  27.414  56.203  1.00  0.00     0.281 HD
ENDROOT
BRANCH   1   3
HETATM    3  C   UNL     1       7.729  29.456  56.169  1.00  0.00     0.338 C 
BRANCH   3   4
HETATM    4  C   UNL     1       8.813  29.246  57.230  1.00  0.00     0.248 C 
HETATM    5  N   UNL     1       8.602  29.691  58.499  1.00  0.00    -0.323 N 
HETATM    6  H   UNL     1       9.154  29.223  59.218  1.00  0.00     0.169 HD
HETATM    7  O   UNL     1       9.813  28.577  56.956  1.00  0.00    -0.271 OA
BRANCH   5   8
HETATM    8  C   UNL     1       7.709  30.664  58.990  1.00  0.00     0.069 A 
HETATM    9  C   UNL     1       6.710  31.237  58.195  1.00  0.00     0.039 A 
HETATM   10  C   UNL     1       5.883  32.244  58.710  1.00  0.00    -0.060 A 
HETATM   11  C   UNL     1       4.870  32.927  57.836  1.00  0.00     0.048 C 
HETATM   12  C   UNL     1       6.080  32.682  60.023  1.00  0.00     0.009 A 
HETATM   13  C   UNL     1       7.089  32.128  60.818  1.00  0.00     0.039 A 
HETATM   14  C   UNL     1       7.913  31.126  60.306  1.00  0.00     0.095 A 
BRANCH  14  15
HETATM   15  O   UNL     1       8.931  30.512  60.996  1.00  0.00    -0.354 OA
HETATM   16  C   UNL     1       8.805  30.452  62.413  1.00  0.00     0.210 C 
ENDBRANCH  14  15
ENDBRANCH   5   8
ENDBRANCH   3   4
ENDBRANCH   1   3
BRANCH   1  17
HETATM   17  C   UNL     1       5.736  27.934  55.791  1.00  0.00     0.189 A 
HETATM   18  C   UNL     1       5.284  26.794  56.661  1.00  0.00     0.035 A 
HETATM   19  C   UNL     1       5.075  28.209  57.112  1.00  0.00     0.035 A 
ENDBRANCH   1  17
BRANCH   1  20
HETATM   20  C   UNL     1       7.729  27.842  54.197  1.00  0.00     0.274 C 
BRANCH  20  21
HETATM   21  C   UNL     1       7.179  26.589  53.569  1.00  0.00    -0.032 A 
HETATM   22  C   UNL     1       7.596  25.322  54.017  1.00  0.00     0.021 A 
HETATM   23  C   UNL     1       7.095  24.138  53.446  1.00  0.00    -0.024 A 
HETATM   24  C   UNL     1       6.165  24.254  52.402  1.00  0.00     0.012 A 
HETATM   25  C   UNL     1       5.742  25.505  51.947  1.00  0.00     0.001 A 
HETATM   26  C   UNL     1       6.245  26.667  52.528  1.00  0.00     0.009 A 
BRANCH  23  27
HETATM   27  C   UNL     1       7.526  22.820  53.937  1.00  0.00    -0.008 A 
HETATM   28  C   UNL     1       7.953  21.813  53.068  1.00  0.00     0.128 A 
HETATM   29  N   UNL     1       8.338  20.573  53.449  1.00  0.00    -0.272 NA
HETATM   30  C   UNL     1       8.326  20.313  54.772  1.00  0.00     0.116 A 
HETATM   31  C   UNL     1       7.937  21.236  55.727  1.00  0.00     0.020 A 
HETATM   32  C   UNL     1       7.532  22.500  55.301  1.00  0.00     0.015 A 
ENDBRANCH  23  27
ENDBRANCH  20  21
ENDBRANCH   1  20
TORSDOF 8
ENDMDL
MODEL 10
REMARK VINA RESULT:      -8.3      1.983      3.075
REMARK  8 active torsions:
REMARK  status: ('A' for Active; 'I' for Inactive)
REMARK    1  A    between atoms: C_4  and  N_5 
REMARK       I    between atoms: N_5  and  C_6 
REMARK    2  A    between atoms: C_6  and  C_7 
REMARK    3  A    between atoms: C_7  and  N_8 
REMARK    4  A    between atoms: N_8  and  C_10 
REMARK    5  A    between atoms: N_8  and  C_13 
REMARK    6  A    between atoms: C_13  and  C_14 
REMARK    7  A    between atoms: C_16  and  C_17 
REMARK    8  A    between atoms: C_27  and  O_28 
ROOT
HETATM    1  N   UNL     1       4.900  29.482  54.019  1.00  0.00    -0.055 N 
HETATM    2  H   UNL     1       4.151  28.813  54.255  1.00  0.00     0.281 HD
ENDROOT
BRANCH   1   3
HETATM    3  C   UNL     1       4.934  30.418  55.249  1.00  0.00     0.338 C 
BRANCH   3   4
HETATM    4  C   UNL     1       4.177  29.833  56.443  1.00  0.00     0.248 C 
HETATM    5  N   UNL     1       4.871  29.202  57.431  1.00  0.00    -0.323 N 
HETATM    6  H   UNL     1       4.398  29.164  58.333  1.00  0.00     0.169 HD
HETATM    7  O   UNL     1       2.965  30.037  56.557  1.00  0.00    -0.271 OA
BRANCH   5   8
HETATM    8  C   UNL     1       6.159  28.632  57.422  1.00  0.00     0.069 A 
HETATM    9  C   UNL     1       7.324  29.406  57.467  1.00  0.00     0.039 A 
HETATM   10  C   UNL     1       8.584  28.798  57.397  1.00  0.00    -0.060 A 
HETATM   11  C   UNL     1       9.835  29.627  57.351  1.00  0.00     0.048 C 
HETATM   12  C   UNL     1       8.663  27.408  57.263  1.00  0.00     0.009 A 
HETATM   13  C   UNL     1       7.504  26.629  57.199  1.00  0.00     0.039 A 
HETATM   14  C   UNL     1       6.248  27.234  57.268  1.00  0.00     0.095 A 
BRANCH  14  15
HETATM   15  O   UNL     1       5.047  26.568  57.216  1.00  0.00    -0.354 OA
HETATM   16  C   UNL     1       5.092  25.183  56.888  1.00  0.00     0.210 C 
ENDBRANCH  14  15
ENDBRANCH   5   8
ENDBRANCH   3   4
ENDBRANCH   1   3
BRANCH   1  17
HETATM   17  C   UNL     1       4.388  30.178  52.784  1.00  0.00     0.189 A 
HETATM   18  C   UNL     1       3.007  29.831  52.300  1.00  0.00     0.035 A 
HETATM   19  C   UNL     1       3.290  31.201  52.842  1.00  0.00     0.035 A 
ENDBRANCH   1  17
BRANCH   1  20
HETATM   20  C   UNL     1       6.159  28.677  53.848  1.00  0.00     0.274 C 
BRANCH  20  21
HETATM   21  C   UNL     1       5.934  27.249  53.426  1.00  0.00    -0.032 A 
HETATM   22  C   UNL     1       6.827  26.237  53.821  1.00  0.00     0.021 A 
HETATM   23  C   UNL     1       6.636  24.896  53.441  1.00  0.00    -0.024 A 
HETATM   24  C   UNL     1       5.523  24.593  52.641  1.00  0.00     0.012 A 
HETATM   25  C   UNL     1       4.628  25.586  52.241  1.00  0.00     0.001 A 
HETATM   26  C   UNL     1       4.831  26.908  52.632  1.00  0.00     0.009 A 
BRANCH  23  27
HETATM   27  C   UNL     1       7.568  23.845  53.876  1.00  0.00    -0.008 A 
HETATM   28  C   UNL     1       8.303  23.954  55.059  1.00  0.00     0.128 A 
HETATM   29  N   UNL     1       9.194  23.038  55.505  1.00  0.00    -0.272 NA
HETATM   30  C   UNL     1       9.357  21.933  54.750  1.00  0.00     0.116 A 
HETATM   31  C   UNL     1       8.674  21.708  53.568  1.00  0.00     0.020 A 
HETATM   32  C   UNL     1       7.774  22.678  53.129  1.00  0.00     0.015 A 
ENDBRANCH  23  27
ENDBRANCH  20  21
ENDBRANCH   1  20
TORSDOF 8
ENDMDL
