MODEL 1
REMARK VINA RESULT:      -9.6      0.000      0.000
REMARK  10 active torsions:
REMARK  status: ('A' for Active; 'I' for Inactive)
REMARK    1  A    between atoms: C_2  and  N_3 
REMARK    2  A    between atoms: N_3  and  C_4 
REMARK    3  A    between atoms: N_3  and  C_37 
REMARK    4  A    between atoms: C_7  and  C_8 
REMARK    5  A    between atoms: N_9  and  C_11 
REMARK    6  A    between atoms: C_11  and  C_12 
REMARK       I    between atoms: C_12  and  N_13 
REMARK    7  A    between atoms: N_13  and  C_14 
REMARK    8  A    between atoms: C_20  and  C_21 
REMARK    9  A    between atoms: C_21  and  O_22 
REMARK   10  A    between atoms: C_28  and  O_29 
ROOT
HETATM    1  C   UNL     1       7.551  24.094  54.392  1.00  0.00     0.228 C 
HETATM    2  N   UNL     1       7.182  24.555  55.803  1.00  0.00    -0.054 N 
HETATM    3  H   UNL     1       7.516  25.524  55.795  1.00  0.00     0.281 HD
HETATM    4  C   UNL     1       8.013  23.913  56.883  1.00  0.00     0.239 C 
HETATM    5  C   UNL     1       8.151  22.403  56.760  1.00  0.00     0.066 C 
HETATM    6  C   UNL     1       8.524  21.958  55.347  1.00  0.00     0.065 C 
HETATM    7  C   UNL     1       7.578  22.553  54.279  1.00  0.00     0.055 C 
HETATM    8  C   UNL     1       8.547  20.421  55.251  1.00  0.00     0.038 C 
HETATM    9  C   UNL     1       8.931  19.934  53.854  1.00  0.00     0.003 C 
HETATM   10  C   UNL     1       8.050  20.557  52.779  1.00  0.00     0.001 C 
HETATM   11  C   UNL     1       8.026  22.082  52.873  1.00  0.00     0.010 C 
ENDROOT
BRANCH   2  12
HETATM   12  C   UNL     1       5.694  24.754  56.145  1.00  0.00     0.338 C 
BRANCH  12  13
HETATM   13  C   UNL     1       5.278  26.044  56.855  1.00  0.00     0.248 C 
HETATM   14  N   UNL     1       5.845  27.177  56.297  1.00  0.00    -0.319 N 
HETATM   15  H   UNL     1       6.577  27.078  55.590  1.00  0.00     0.169 HD
HETATM   16  O   UNL     1       4.553  26.005  57.841  1.00  0.00    -0.271 OA
BRANCH  14  17
HETATM   17  C   UNL     1       5.652  28.491  56.717  1.00  0.00     0.094 A 
HETATM   18  S   UNL     1       4.269  29.358  56.279  1.00  0.00    -0.076 SA
HETATM   19  C   UNL     1       4.766  30.748  57.125  1.00  0.00    -0.012 A 
HETATM   20  C   UNL     1       3.878  31.953  57.130  1.00  0.00     0.057 C 
HETATM   21  C   UNL     1       5.994  30.572  57.748  1.00  0.00    -0.030 A 
HETATM   22  C   UNL     1       6.658  31.621  58.589  1.00  0.00     0.050 C 
HETATM   23  C   UNL     1       6.539  29.246  57.476  1.00  0.00     0.080 A 
BRANCH  23  24
HETATM   24  C   UNL     1       7.821  28.679  57.920  1.00  0.00     0.296 C 
HETATM   25  O   UNL     1       7.915  27.516  58.310  1.00  0.00    -0.259 OA
BRANCH  24  26
HETATM   26  O   UNL     1       8.864  29.548  57.848  1.00  0.00    -0.322 OA
HETATM   27  C   UNL     1       9.855  29.215  56.876  1.00  0.00     0.213 C 
ENDBRANCH  24  26
ENDBRANCH  23  24
ENDBRANCH  14  17
ENDBRANCH  12  13
ENDBRANCH   2  12
BRANCH   1  28
HETATM   28  C   UNL     1       6.777  24.856  53.330  1.00  0.00    -0.027 A 
HETATM   29  C   UNL     1       7.250  26.108  52.910  1.00  0.00     0.011 A 
HETATM   30  C   UNL     1       6.597  26.823  51.898  1.00  0.00     0.030 A 
HETATM   31  C   UNL     1       5.443  26.334  51.276  1.00  0.00     0.030 A 
HETATM   32  C   UNL     1       4.957  25.100  51.735  1.00  0.00     0.030 A 
HETATM   33  C   UNL     1       5.606  24.369  52.740  1.00  0.00     0.011 A 
BRANCH  31  34
HETATM   34  N   UNL     1       4.821  26.989  50.216  1.00  0.00    -0.382 N 
BRANCH  34  35
HETATM   35  C   UNL     1       4.189  26.233  49.122  1.00  0.00     0.118 C 
HETATM   36  C   UNL     1       4.754  26.638  47.767  1.00  0.00     0.026 C 
ENDBRANCH  34  35
BRANCH  34  37
HETATM   37  C   UNL     1       5.286  28.345  49.878  1.00  0.00     0.118 C 
HETATM   38  C   UNL     1       4.313  29.405  50.378  1.00  0.00     0.026 C 
ENDBRANCH  34  37
ENDBRANCH  31  34
ENDBRANCH   1  28
BRANCH   6  39
HETATM   39  O   UNL     1       9.844  22.472  55.106  1.00  0.00    -0.389 OA
HETATM   40  H   UNL     1      10.268  22.671  55.964  1.00  0.00     0.210 HD
ENDBRANCH   6  39
TORSDOF 10
ENDMDL
MODEL 2
REMARK VINA RESULT:      -9.5      2.181      6.151
REMARK  10 active torsions:
REMARK  status: ('A' for Active; 'I' for Inactive)
REMARK    1  A    between atoms: C_2  and  N_3 
REMARK    2  A    between atoms: N_3  and  C_4 
REMARK    3  A    between atoms: N_3  and  C_37 
REMARK    4  A    between atoms: C_7  and  C_8 
REMARK    5  A    between atoms: N_9  and  C_11 
REMARK    6  A    between atoms: C_11  and  C_12 
REMARK       I    between atoms: C_12  and  N_13 
REMARK    7  A    between atoms: N_13  and  C_14 
REMARK    8  A    between atoms: C_20  and  C_21 
REMARK    9  A    between atoms: C_21  and  O_22 
REMARK   10  A    between atoms: C_28  and  O_29 
ROOT
HETATM    1  C   UNL     1       5.116  27.170  53.775  1.00  0.00     0.228 C 
HETATM    2  N   UNL     1       5.240  28.243  54.858  1.00  0.00    -0.054 N 
HETATM    3  H   UNL     1       4.860  27.755  55.675  1.00  0.00     0.281 HD
HETATM    4  C   UNL     1       4.288  29.397  54.674  1.00  0.00     0.239 C 
HETATM    5  C   UNL     1       4.250  29.965  53.264  1.00  0.00     0.066 C 
HETATM    6  C   UNL     1       4.121  28.883  52.194  1.00  0.00     0.065 C 
HETATM    7  C   UNL     1       5.188  27.775  52.355  1.00  0.00     0.055 C 
HETATM    8  C   UNL     1       4.194  29.502  50.785  1.00  0.00     0.038 C 
HETATM    9  C   UNL     1       4.055  28.450  49.684  1.00  0.00     0.003 C 
HETATM   10  C   UNL     1       5.056  27.316  49.859  1.00  0.00     0.001 C 
HETATM   11  C   UNL     1       4.986  26.702  51.257  1.00  0.00     0.010 C 
ENDROOT
BRANCH   2  12
HETATM   12  C   UNL     1       6.645  28.621  55.361  1.00  0.00     0.338 C 
BRANCH  12  13
HETATM   13  C   UNL     1       6.811  29.005  56.832  1.00  0.00     0.248 C 
HETATM   14  N   UNL     1       7.063  30.354  57.015  1.00  0.00    -0.319 N 
HETATM   15  H   UNL     1       7.261  30.944  56.205  1.00  0.00     0.169 HD
HETATM   16  O   UNL     1       6.762  28.150  57.707  1.00  0.00    -0.271 OA
BRANCH  14  17
HETATM   17  C   UNL     1       7.252  31.002  58.234  1.00  0.00     0.094 A 
HETATM   18  S   UNL     1       5.941  31.560  59.144  1.00  0.00    -0.076 SA
HETATM   19  C   UNL     1       6.944  32.171  60.375  1.00  0.00    -0.012 A 
HETATM   20  C   UNL     1       6.317  32.824  61.567  1.00  0.00     0.057 C 
HETATM   21  C   UNL     1       8.290  31.963  60.107  1.00  0.00    -0.030 A 
HETATM   22  C   UNL     1       9.396  32.370  61.035  1.00  0.00     0.050 C 
HETATM   23  C   UNL     1       8.477  31.303  58.819  1.00  0.00     0.080 A 
BRANCH  23  24
HETATM   24  C   UNL     1       9.737  30.934  58.158  1.00  0.00     0.296 C 
HETATM   25  O   UNL     1      10.620  31.762  57.937  1.00  0.00    -0.259 OA
BRANCH  24  26
HETATM   26  O   UNL     1       9.825  29.618  57.833  1.00  0.00    -0.322 OA
HETATM   27  C   UNL     1      10.613  29.337  56.675  1.00  0.00     0.213 C 
ENDBRANCH  24  26
ENDBRANCH  23  24
ENDBRANCH  14  17
ENDBRANCH  12  13
ENDBRANCH   2  12
BRANCH   1  28
HETATM   28  C   UNL     1       6.002  25.971  54.067  1.00  0.00    -0.027 A 
HETATM   29  C   UNL     1       5.750  25.200  55.210  1.00  0.00     0.011 A 
HETATM   30  C   UNL     1       6.509  24.057  55.492  1.00  0.00     0.030 A 
HETATM   31  C   UNL     1       7.556  23.644  54.661  1.00  0.00     0.030 A 
HETATM   32  C   UNL     1       7.824  24.448  53.543  1.00  0.00     0.030 A 
HETATM   33  C   UNL     1       7.066  25.589  53.244  1.00  0.00     0.011 A 
BRANCH  31  34
HETATM   34  N   UNL     1       8.273  22.470  54.877  1.00  0.00    -0.382 N 
BRANCH  34  35
HETATM   35  C   UNL     1       8.772  22.121  56.218  1.00  0.00     0.118 C 
HETATM   36  C   UNL     1       8.323  20.726  56.632  1.00  0.00     0.026 C 
ENDBRANCH  34  35
BRANCH  34  37
HETATM   37  C   UNL     1       9.021  21.903  53.743  1.00  0.00     0.118 C 
HETATM   38  C   UNL     1       8.197  20.857  53.003  1.00  0.00     0.026 C 
ENDBRANCH  34  37
ENDBRANCH  31  34
ENDBRANCH   1  28
BRANCH   6  39
HETATM   39  O   UNL     1       2.829  28.287  52.389  1.00  0.00    -0.389 OA
HETATM   40  H   UNL     1       2.938  27.320  52.483  1.00  0.00     0.210 HD
ENDBRANCH   6  39
TORSDOF 10
ENDMDL
MODEL 3
REMARK VINA RESULT:      -9.4      1.445      2.343
REMARK  10 active torsions:
REMARK  status: ('A' for Active; 'I' for Inactive)
REMARK    1  A    between atoms: C_2  and  N_3 
REMARK    2  A    between atoms: N_3  and  C_4 
REMARK    3  A    between atoms: N_3  and  C_37 
REMARK    4  A    between atoms: C_7  and  C_8 
REMARK    5  A    between atoms: N_9  and  C_11 
REMARK    6  A    between atoms: C_11  and  C_12 
REMARK       I    between atoms: C_12  and  N_13 
REMARK    7  A    between atoms: N_13  and  C_14 
REMARK    8  A    between atoms: C_20  and  C_21 
REMARK    9  A    between atoms: C_21  and  O_22 
REMARK   10  A    between atoms: C_28  and  O_29 
ROOT
HETATM    1  C   UNL     1       7.665  24.197  54.365  1.00  0.00     0.228 C 
HETATM    2  N   UNL     1       7.440  24.785  55.759  1.00  0.00    -0.054 N 
HETATM    3  H   UNL     1       7.834  25.725  55.652  1.00  0.00     0.281 HD
HETATM    4  C   UNL     1       8.311  24.167  56.821  1.00  0.00     0.239 C 
HETATM    5  C   UNL     1       8.342  22.646  56.807  1.00  0.00     0.066 C 
HETATM    6  C   UNL     1       8.572  22.074  55.410  1.00  0.00     0.065 C 
HETATM    7  C   UNL     1       7.584  22.655  54.372  1.00  0.00     0.055 C 
HETATM    8  C   UNL     1       8.488  20.536  55.433  1.00  0.00     0.038 C 
HETATM    9  C   UNL     1       8.727  19.923  54.053  1.00  0.00     0.003 C 
HETATM   10  C   UNL     1       7.806  20.526  53.001  1.00  0.00     0.001 C 
HETATM   11  C   UNL     1       7.887  22.052  52.978  1.00  0.00     0.010 C 
ENDROOT
BRANCH   2  12
HETATM   12  C   UNL     1       6.000  25.113  56.195  1.00  0.00     0.338 C 
BRANCH  12  13
HETATM   13  C   UNL     1       5.749  26.417  56.954  1.00  0.00     0.248 C 
HETATM   14  N   UNL     1       6.665  27.408  56.646  1.00  0.00    -0.319 N 
HETATM   15  H   UNL     1       7.487  27.178  56.084  1.00  0.00     0.169 HD
HETATM   16  O   UNL     1       4.843  26.495  57.774  1.00  0.00    -0.271 OA
BRANCH  14  17
HETATM   17  C   UNL     1       6.694  28.700  57.168  1.00  0.00     0.094 A 
HETATM   18  S   UNL     1       7.891  29.178  58.261  1.00  0.00    -0.076 SA
HETATM   19  C   UNL     1       7.264  30.754  58.393  1.00  0.00    -0.012 A 
HETATM   20  C   UNL     1       7.960  31.742  59.276  1.00  0.00     0.057 C 
HETATM   21  C   UNL     1       6.132  30.935  57.610  1.00  0.00    -0.030 A 
HETATM   22  C   UNL     1       5.392  32.236  57.508  1.00  0.00     0.050 C 
HETATM   23  C   UNL     1       5.770  29.707  56.911  1.00  0.00     0.080 A 
BRANCH  23  24
HETATM   24  C   UNL     1       4.629  29.470  56.015  1.00  0.00     0.296 C 
HETATM   25  O   UNL     1       3.466  29.545  56.411  1.00  0.00    -0.259 OA
BRANCH  24  26
HETATM   26  O   UNL     1       4.983  29.177  54.736  1.00  0.00    -0.322 OA
HETATM   27  C   UNL     1       4.150  28.214  54.089  1.00  0.00     0.213 C 
ENDBRANCH  24  26
ENDBRANCH  23  24
ENDBRANCH  14  17
ENDBRANCH  12  13
ENDBRANCH   2  12
BRANCH   1  28
HETATM   28  C   UNL     1       6.860  24.933  53.307  1.00  0.00    -0.027 A 
HETATM   29  C   UNL     1       7.347  26.147  52.803  1.00  0.00     0.011 A 
HETATM   30  C   UNL     1       6.664  26.833  51.791  1.00  0.00     0.030 A 
HETATM   31  C   UNL     1       5.465  26.353  51.253  1.00  0.00     0.030 A 
HETATM   32  C   UNL     1       4.968  25.159  51.797  1.00  0.00     0.030 A 
HETATM   33  C   UNL     1       5.646  24.456  52.803  1.00  0.00     0.011 A 
BRANCH  31  34
HETATM   34  N   UNL     1       4.809  26.976  50.195  1.00  0.00    -0.382 N 
BRANCH  34  35
HETATM   35  C   UNL     1       4.167  28.290  50.367  1.00  0.00     0.118 C 
HETATM   36  C   UNL     1       5.127  29.425  50.037  1.00  0.00     0.026 C 
ENDBRANCH  34  35
BRANCH  34  37
HETATM   37  C   UNL     1       4.255  26.122  49.130  1.00  0.00     0.118 C 
HETATM   38  C   UNL     1       4.718  26.580  47.754  1.00  0.00     0.026 C 
ENDBRANCH  34  37
ENDBRANCH  31  34
ENDBRANCH   1  28
BRANCH   6  39
HETATM   39  O   UNL     1       9.898  22.475  55.032  1.00  0.00    -0.389 OA
HETATM   40  H   UNL     1      10.536  22.101  55.671  1.00  0.00     0.210 HD
ENDBRANCH   6  39
TORSDOF 10
ENDMDL
MODEL 4
REMARK VINA RESULT:      -9.2      2.164      6.140
REMARK  10 active torsions:
REMARK  status: ('A' for Active; 'I' for Inactive)
REMARK    1  A    between atoms: C_2  and  N_3 
REMARK    2  A    between atoms: N_3  and  C_4 
REMARK    3  A    between atoms: N_3  and  C_37 
REMARK    4  A    between atoms: C_7  and  C_8 
REMARK    5  A    between atoms: N_9  and  C_11 
REMARK    6  A    between atoms: C_11  and  C_12 
REMARK       I    between atoms: C_12  and  N_13 
REMARK    7  A    between atoms: N_13  and  C_14 
REMARK    8  A    between atoms: C_20  and  C_21 
REMARK    9  A    between atoms: C_21  and  O_22 
REMARK   10  A    between atoms: C_28  and  O_29 
ROOT
HETATM    1  C   UNL     1       4.492  27.139  51.926  1.00  0.00     0.228 C 
HETATM    2  N   UNL     1       4.341  28.290  52.923  1.00  0.00    -0.054 N 
HETATM    3  H   UNL     1       3.894  27.818  53.715  1.00  0.00     0.281 HD
HETATM    4  C   UNL     1       3.314  29.313  52.509  1.00  0.00     0.239 C 
HETATM    5  C   UNL     1       3.431  29.777  51.066  1.00  0.00     0.066 C 
HETATM    6  C   UNL     1       3.577  28.618  50.083  1.00  0.00     0.065 C 
HETATM    7  C   UNL     1       4.715  27.651  50.486  1.00  0.00     0.055 C 
HETATM    8  C   UNL     1       3.798  29.144  48.652  1.00  0.00     0.038 C 
HETATM    9  C   UNL     1       3.936  28.012  47.634  1.00  0.00     0.003 C 
HETATM   10  C   UNL     1       5.010  27.013  48.044  1.00  0.00     0.001 C 
HETATM   11  C   UNL     1       4.793  26.491  49.463  1.00  0.00     0.010 C 
ENDROOT
BRANCH   2  12
HETATM   12  C   UNL     1       5.608  28.859  53.588  1.00  0.00     0.338 C 
BRANCH  12  13
HETATM   13  C   UNL     1       5.606  29.055  55.105  1.00  0.00     0.248 C 
HETATM   14  N   UNL     1       6.423  30.093  55.518  1.00  0.00    -0.319 N 
HETATM   15  H   UNL     1       7.053  30.536  54.847  1.00  0.00     0.169 HD
HETATM   16  O   UNL     1       4.962  28.305  55.828  1.00  0.00    -0.271 OA
BRANCH  14  17
HETATM   17  C   UNL     1       6.623  30.516  56.831  1.00  0.00     0.094 A 
HETATM   18  S   UNL     1       5.629  31.687  57.536  1.00  0.00    -0.076 SA
HETATM   19  C   UNL     1       6.469  31.635  59.015  1.00  0.00    -0.012 A 
HETATM   20  C   UNL     1       6.013  32.507  60.142  1.00  0.00     0.057 C 
HETATM   21  C   UNL     1       7.520  30.728  58.989  1.00  0.00    -0.030 A 
HETATM   22  C   UNL     1       8.410  30.453  60.165  1.00  0.00     0.050 C 
HETATM   23  C   UNL     1       7.637  30.091  57.682  1.00  0.00     0.080 A 
BRANCH  23  24
HETATM   24  C   UNL     1       8.629  29.103  57.235  1.00  0.00     0.296 C 
HETATM   25  O   UNL     1       8.616  27.940  57.638  1.00  0.00    -0.259 OA
BRANCH  24  26
HETATM   26  O   UNL     1       9.534  29.592  56.346  1.00  0.00    -0.322 OA
HETATM   27  C   UNL     1      10.872  29.680  56.838  1.00  0.00     0.213 C 
ENDBRANCH  24  26
ENDBRANCH  23  24
ENDBRANCH  14  17
ENDBRANCH  12  13
ENDBRANCH   2  12
BRANCH   1  28
HETATM   28  C   UNL     1       5.443  26.072  52.441  1.00  0.00    -0.027 A 
HETATM   29  C   UNL     1       5.094  25.345  53.588  1.00  0.00     0.011 A 
HETATM   30  C   UNL     1       5.915  24.317  54.068  1.00  0.00     0.030 A 
HETATM   31  C   UNL     1       7.120  23.981  53.441  1.00  0.00     0.030 A 
HETATM   32  C   UNL     1       7.477  24.745  52.319  1.00  0.00     0.030 A 
HETATM   33  C   UNL     1       6.660  25.769  51.821  1.00  0.00     0.011 A 
BRANCH  31  34
HETATM   34  N   UNL     1       7.914  22.915  53.853  1.00  0.00    -0.382 N 
BRANCH  34  35
HETATM   35  C   UNL     1       8.765  23.019  55.051  1.00  0.00     0.118 C 
HETATM   36  C   UNL     1       8.176  22.241  56.220  1.00  0.00     0.026 C 
ENDBRANCH  34  35
BRANCH  34  37
HETATM   37  C   UNL     1       8.355  21.950  52.831  1.00  0.00     0.118 C 
HETATM   38  C   UNL     1       7.785  20.563  53.094  1.00  0.00     0.026 C 
ENDBRANCH  34  37
ENDBRANCH  31  34
ENDBRANCH   1  28
BRANCH   6  39
HETATM   39  O   UNL     1       2.339  27.893  50.140  1.00  0.00    -0.389 OA
HETATM   40  H   UNL     1       1.688  28.416  50.648  1.00  0.00     0.210 HD
ENDBRANCH   6  39
TORSDOF 10
ENDMDL
MODEL 5
REMARK VINA RESULT:      -9.2      2.486      6.401
REMARK  10 active torsions:
REMARK  status: ('A' for Active; 'I' for Inactive)
REMARK    1  A    between atoms: C_2  and  N_3 
REMARK    2  A    between atoms: N_3  and  C_4 
REMARK    3  A    between atoms: N_3  and  C_37 
REMARK    4  A    between atoms: C_7  and  C_8 
REMARK    5  A    between atoms: N_9  and  C_11 
REMARK    6  A    between atoms: C_11  and  C_12 
REMARK       I    between atoms: C_12  and  N_13 
REMARK    7  A    between atoms: N_13  and  C_14 
REMARK    8  A    between atoms: C_20  and  C_21 
REMARK    9  A    between atoms: C_21  and  O_22 
REMARK   10  A    between atoms: C_28  and  O_29 
ROOT
HETATM    1  C   UNL     1       5.027  27.127  53.553  1.00  0.00     0.228 C 
HETATM    2  N   UNL     1       5.112  28.221  54.618  1.00  0.00    -0.054 N 
HETATM    3  H   UNL     1       4.715  27.744  55.434  1.00  0.00     0.281 HD
HETATM    4  C   UNL     1       4.155  29.361  54.387  1.00  0.00     0.239 C 
HETATM    5  C   UNL     1       4.149  29.903  52.966  1.00  0.00     0.066 C 
HETATM    6  C   UNL     1       4.059  28.800  51.914  1.00  0.00     0.065 C 
HETATM    7  C   UNL     1       5.131  27.705  52.124  1.00  0.00     0.055 C 
HETATM    8  C   UNL     1       4.163  29.392  50.496  1.00  0.00     0.038 C 
HETATM    9  C   UNL     1       4.063  28.319  49.412  1.00  0.00     0.003 C 
HETATM   10  C   UNL     1       5.070  27.198  49.635  1.00  0.00     0.001 C 
HETATM   11  C   UNL     1       4.968  26.610  51.042  1.00  0.00     0.010 C 
ENDROOT
BRANCH   2  12
HETATM   12  C   UNL     1       6.500  28.622  55.151  1.00  0.00     0.338 C 
BRANCH  12  13
HETATM   13  C   UNL     1       6.658  28.871  56.651  1.00  0.00     0.248 C 
HETATM   14  N   UNL     1       7.169  30.124  56.943  1.00  0.00    -0.319 N 
HETATM   15  H   UNL     1       7.528  30.710  56.187  1.00  0.00     0.169 HD
HETATM   16  O   UNL     1       6.387  27.991  57.459  1.00  0.00    -0.271 OA
BRANCH  14  17
HETATM   17  C   UNL     1       7.418  30.641  58.212  1.00  0.00     0.094 A 
HETATM   18  S   UNL     1       8.728  30.105  59.137  1.00  0.00    -0.076 SA
HETATM   19  C   UNL     1       8.353  31.145  60.430  1.00  0.00    -0.012 A 
HETATM   20  C   UNL     1       9.233  31.147  61.641  1.00  0.00     0.057 C 
HETATM   21  C   UNL     1       7.222  31.910  60.177  1.00  0.00    -0.030 A 
HETATM   22  C   UNL     1       6.681  32.935  61.130  1.00  0.00     0.050 C 
HETATM   23  C   UNL     1       6.645  31.586  58.877  1.00  0.00     0.080 A 
BRANCH  23  24
HETATM   24  C   UNL     1       5.437  32.144  58.252  1.00  0.00     0.296 C 
HETATM   25  O   UNL     1       5.499  32.928  57.305  1.00  0.00    -0.259 OA
BRANCH  24  26
HETATM   26  O   UNL     1       4.275  31.709  58.808  1.00  0.00    -0.322 OA
HETATM   27  C   UNL     1       3.557  30.753  58.026  1.00  0.00     0.213 C 
ENDBRANCH  24  26
ENDBRANCH  23  24
ENDBRANCH  14  17
ENDBRANCH  12  13
ENDBRANCH   2  12
BRANCH   1  28
HETATM   28  C   UNL     1       5.916  25.942  53.891  1.00  0.00    -0.027 A 
HETATM   29  C   UNL     1       5.674  25.223  55.070  1.00  0.00     0.011 A 
HETATM   30  C   UNL     1       6.436  24.094  55.396  1.00  0.00     0.030 A 
HETATM   31  C   UNL     1       7.477  23.644  54.576  1.00  0.00     0.030 A 
HETATM   32  C   UNL     1       7.735  24.397  53.421  1.00  0.00     0.030 A 
HETATM   33  C   UNL     1       6.974  25.524  53.077  1.00  0.00     0.011 A 
BRANCH  31  34
HETATM   34  N   UNL     1       8.196  22.482  54.839  1.00  0.00    -0.382 N 
BRANCH  34  35
HETATM   35  C   UNL     1       8.691  22.185  56.194  1.00  0.00     0.118 C 
HETATM   36  C   UNL     1       8.645  20.691  56.487  1.00  0.00     0.026 C 
ENDBRANCH  34  35
BRANCH  34  37
HETATM   37  C   UNL     1       8.949  21.874  53.730  1.00  0.00     0.118 C 
HETATM   38  C   UNL     1       8.115  20.831  52.997  1.00  0.00     0.026 C 
ENDBRANCH  34  37
ENDBRANCH  31  34
ENDBRANCH   1  28
BRANCH   6  39
HETATM   39  O   UNL     1       2.767  28.194  52.086  1.00  0.00    -0.389 OA
HETATM   40  H   UNL     1       2.838  27.482  52.751  1.00  0.00     0.210 HD
ENDBRANCH   6  39
TORSDOF 10
ENDMDL
MODEL 6
REMARK VINA RESULT:      -8.6      2.117      3.183
REMARK  10 active torsions:
REMARK  status: ('A' for Active; 'I' for Inactive)
REMARK    1  A    between atoms: C_2  and  N_3 
REMARK    2  A    between atoms: N_3  and  C_4 
REMARK    3  A    between atoms: N_3  and  C_37 
REMARK    4  A    between atoms: C_7  and  C_8 
REMARK    5  A    between atoms: N_9  and  C_11 
REMARK    6  A    between atoms: C_11  and  C_12 
REMARK       I    between atoms: C_12  and  N_13 
REMARK    7  A    between atoms: N_13  and  C_14 
REMARK    8  A    between atoms: C_20  and  C_21 
REMARK    9  A    between atoms: C_21  and  O_22 
REMARK   10  A    between atoms: C_28  and  O_29 
ROOT
HETATM    1  C   UNL     1       7.395  24.535  54.129  1.00  0.00     0.228 C 
HETATM    2  N   UNL     1       7.160  25.318  55.423  1.00  0.00    -0.054 N 
HETATM    3  H   UNL     1       7.549  26.235  55.180  1.00  0.00     0.281 HD
HETATM    4  C   UNL     1       8.032  24.865  56.566  1.00  0.00     0.239 C 
HETATM    5  C   UNL     1       8.072  23.359  56.772  1.00  0.00     0.066 C 
HETATM    6  C   UNL     1       8.311  22.592  55.474  1.00  0.00     0.065 C 
HETATM    7  C   UNL     1       7.323  23.009  54.359  1.00  0.00     0.055 C 
HETATM    8  C   UNL     1       8.237  21.073  55.719  1.00  0.00     0.038 C 
HETATM    9  C   UNL     1       8.485  20.268  54.444  1.00  0.00     0.003 C 
HETATM   10  C   UNL     1       7.564  20.706  53.313  1.00  0.00     0.001 C 
HETATM   11  C   UNL     1       7.635  22.213  53.068  1.00  0.00     0.010 C 
ENDROOT
BRANCH   2  12
HETATM   12  C   UNL     1       5.716  25.695  55.803  1.00  0.00     0.338 C 
BRANCH  12  13
HETATM   13  C   UNL     1       5.405  27.161  56.105  1.00  0.00     0.248 C 
HETATM   14  N   UNL     1       4.583  27.748  55.158  1.00  0.00    -0.319 N 
HETATM   15  H   UNL     1       4.372  27.245  54.293  1.00  0.00     0.169 HD
HETATM   16  O   UNL     1       5.903  27.715  57.077  1.00  0.00    -0.271 OA
BRANCH  14  17
HETATM   17  C   UNL     1       4.122  29.062  55.163  1.00  0.00     0.094 A 
HETATM   18  S   UNL     1       3.746  29.855  56.609  1.00  0.00    -0.076 SA
HETATM   19  C   UNL     1       3.300  31.288  55.808  1.00  0.00    -0.012 A 
HETATM   20  C   UNL     1       2.855  32.466  56.618  1.00  0.00     0.057 C 
HETATM   21  C   UNL     1       3.426  31.181  54.430  1.00  0.00    -0.030 A 
HETATM   22  C   UNL     1       3.133  32.302  53.477  1.00  0.00     0.050 C 
HETATM   23  C   UNL     1       3.878  29.849  54.043  1.00  0.00     0.080 A 
BRANCH  23  24
HETATM   24  C   UNL     1       4.105  29.320  52.690  1.00  0.00     0.296 C 
HETATM   25  O   UNL     1       5.131  29.571  52.058  1.00  0.00    -0.259 OA
BRANCH  24  26
HETATM   26  O   UNL     1       3.094  28.539  52.225  1.00  0.00    -0.322 OA
HETATM   27  C   UNL     1       2.357  29.096  51.137  1.00  0.00     0.213 C 
ENDBRANCH  24  26
ENDBRANCH  23  24
ENDBRANCH  14  17
ENDBRANCH  12  13
ENDBRANCH   2  12
BRANCH   1  28
HETATM   28  C   UNL     1       6.588  25.104  52.974  1.00  0.00    -0.027 A 
HETATM   29  C   UNL     1       7.082  26.219  52.282  1.00  0.00     0.011 A 
HETATM   30  C   UNL     1       6.399  26.745  51.179  1.00  0.00     0.030 A 
HETATM   31  C   UNL     1       5.191  26.198  50.730  1.00  0.00     0.030 A 
HETATM   32  C   UNL     1       4.687  25.109  51.457  1.00  0.00     0.030 A 
HETATM   33  C   UNL     1       5.367  24.565  52.557  1.00  0.00     0.011 A 
BRANCH  31  34
HETATM   34  N   UNL     1       4.533  26.654  49.591  1.00  0.00    -0.382 N 
BRANCH  34  35
HETATM   35  C   UNL     1       3.807  25.724  48.709  1.00  0.00     0.118 C 
HETATM   36  C   UNL     1       2.526  26.352  48.175  1.00  0.00     0.026 C 
ENDBRANCH  34  35
BRANCH  34  37
HETATM   37  C   UNL     1       5.029  27.888  48.958  1.00  0.00     0.118 C 
HETATM   38  C   UNL     1       5.521  27.627  47.541  1.00  0.00     0.026 C 
ENDBRANCH  34  37
ENDBRANCH  31  34
ENDBRANCH   1  28
BRANCH   6  39
HETATM   39  O   UNL     1       9.636  22.943  55.045  1.00  0.00    -0.389 OA
HETATM   40  H   UNL     1       9.840  23.847  55.354  1.00  0.00     0.210 HD
ENDBRANCH   6  39
TORSDOF 10
ENDMDL
MODEL 7
REMARK VINA RESULT:      -8.3      1.120      1.702
REMARK  10 active torsions:
REMARK  status: ('A' for Active; 'I' for Inactive)
REMARK    1  A    between atoms: C_2  and  N_3 
REMARK    2  A    between atoms: N_3  and  C_4 
REMARK    3  A    between atoms: N_3  and  C_37 
REMARK    4  A    between atoms: C_7  and  C_8 
REMARK    5  A    between atoms: N_9  and  C_11 
REMARK    6  A    between atoms: C_11  and  C_12 
REMARK       I    between atoms: C_12  and  N_13 
REMARK    7  A    between atoms: N_13  and  C_14 
REMARK    8  A    between atoms: C_20  and  C_21 
REMARK    9  A    between atoms: C_21  and  O_22 
REMARK   10  A    between atoms: C_28  and  O_29 
ROOT
HETATM    1  C   UNL     1       7.443  24.566  54.425  1.00  0.00     0.228 C 
HETATM    2  N   UNL     1       7.170  25.272  55.754  1.00  0.00    -0.054 N 
HETATM    3  H   UNL     1       7.608  26.185  55.595  1.00  0.00     0.281 HD
HETATM    4  C   UNL     1       7.958  24.708  56.907  1.00  0.00     0.239 C 
HETATM    5  C   UNL     1       7.927  23.192  57.013  1.00  0.00     0.066 C 
HETATM    6  C   UNL     1       8.205  22.501  55.680  1.00  0.00     0.065 C 
HETATM    7  C   UNL     1       7.297  23.033  54.547  1.00  0.00     0.055 C 
HETATM    8  C   UNL     1       8.056  20.974  55.819  1.00  0.00     0.038 C 
HETATM    9  C   UNL     1       8.341  20.243  54.506  1.00  0.00     0.003 C 
HETATM   10  C   UNL     1       7.501  20.795  53.361  1.00  0.00     0.001 C 
HETATM   11  C   UNL     1       7.647  22.309  53.223  1.00  0.00     0.010 C 
ENDROOT
BRANCH   2  12
HETATM   12  C   UNL     1       5.724  25.687  56.083  1.00  0.00     0.338 C 
BRANCH  12  13
HETATM   13  C   UNL     1       5.376  27.176  56.076  1.00  0.00     0.248 C 
HETATM   14  N   UNL     1       5.720  27.819  57.252  1.00  0.00    -0.319 N 
HETATM   15  H   UNL     1       6.024  27.268  58.058  1.00  0.00     0.169 HD
HETATM   16  O   UNL     1       4.808  27.677  55.114  1.00  0.00    -0.271 OA
BRANCH  14  17
HETATM   17  C   UNL     1       5.536  29.169  57.542  1.00  0.00     0.094 A 
HETATM   18  S   UNL     1       4.066  29.942  57.225  1.00  0.00    -0.076 SA
HETATM   19  C   UNL     1       4.623  31.436  57.818  1.00  0.00    -0.012 A 
HETATM   20  C   UNL     1       3.695  32.610  57.821  1.00  0.00     0.057 C 
HETATM   21  C   UNL     1       5.938  31.368  58.260  1.00  0.00    -0.030 A 
HETATM   22  C   UNL     1       6.675  32.527  58.862  1.00  0.00     0.050 C 
HETATM   23  C   UNL     1       6.493  30.033  58.063  1.00  0.00     0.080 A 
BRANCH  23  24
HETATM   24  C   UNL     1       7.850  29.556  58.366  1.00  0.00     0.296 C 
HETATM   25  O   UNL     1       8.490  28.869  57.571  1.00  0.00    -0.259 OA
BRANCH  24  26
HETATM   26  O   UNL     1       8.315  29.950  59.581  1.00  0.00    -0.322 OA
HETATM   27  C   UNL     1       9.640  30.484  59.572  1.00  0.00     0.213 C 
ENDBRANCH  24  26
ENDBRANCH  23  24
ENDBRANCH  14  17
ENDBRANCH  12  13
ENDBRANCH   2  12
BRANCH   1  28
HETATM   28  C   UNL     1       6.724  25.244  53.270  1.00  0.00    -0.027 A 
HETATM   29  C   UNL     1       5.417  24.848  52.954  1.00  0.00     0.011 A 
HETATM   30  C   UNL     1       4.699  25.480  51.932  1.00  0.00     0.030 A 
HETATM   31  C   UNL     1       5.254  26.516  51.172  1.00  0.00     0.030 A 
HETATM   32  C   UNL     1       6.577  26.873  51.471  1.00  0.00     0.030 A 
HETATM   33  C   UNL     1       7.304  26.256  52.498  1.00  0.00     0.011 A 
BRANCH  31  34
HETATM   34  N   UNL     1       4.534  27.211  50.204  1.00  0.00    -0.382 N 
BRANCH  34  35
HETATM   35  C   UNL     1       3.932  28.522  50.500  1.00  0.00     0.118 C 
HETATM   36  C   UNL     1       2.715  28.786  49.623  1.00  0.00     0.026 C 
ENDBRANCH  34  35
BRANCH  34  37
HETATM   37  C   UNL     1       3.887  26.431  49.136  1.00  0.00     0.118 C 
HETATM   38  C   UNL     1       4.662  26.529  47.829  1.00  0.00     0.026 C 
ENDBRANCH  34  37
ENDBRANCH  31  34
ENDBRANCH   1  28
BRANCH   6  39
HETATM   39  O   UNL     1       9.565  22.821  55.346  1.00  0.00    -0.389 OA
HETATM   40  H   UNL     1       9.584  23.687  54.895  1.00  0.00     0.210 HD
ENDBRANCH   6  39
TORSDOF 10
ENDMDL
MODEL 8
REMARK VINA RESULT:      -8.1      3.010      9.137
REMARK  10 active torsions:
REMARK  status: ('A' for Active; 'I' for Inactive)
REMARK    1  A    between atoms: C_2  and  N_3 
REMARK    2  A    between atoms: N_3  and  C_4 
REMARK    3  A    between atoms: N_3  and  C_37 
REMARK    4  A    between atoms: C_7  and  C_8 
REMARK    5  A    between atoms: N_9  and  C_11 
REMARK    6  A    between atoms: C_11  and  C_12 
REMARK       I    between atoms: C_12  and  N_13 
REMARK    7  A    between atoms: N_13  and  C_14 
REMARK    8  A    between atoms: C_20  and  C_21 
REMARK    9  A    between atoms: C_21  and  O_22 
REMARK   10  A    between atoms: C_28  and  O_29 
ROOT
HETATM    1  C   UNL     1       6.273  29.675  55.715  1.00  0.00     0.228 C 
HETATM    2  N   UNL     1       6.461  28.162  55.593  1.00  0.00    -0.054 N 
HETATM    3  H   UNL     1       7.483  28.083  55.581  1.00  0.00     0.281 HD
HETATM    4  C   UNL     1       6.059  27.612  54.249  1.00  0.00     0.239 C 
HETATM    5  C   UNL     1       4.705  28.092  53.750  1.00  0.00     0.066 C 
HETATM    6  C   UNL     1       4.533  29.604  53.874  1.00  0.00     0.065 C 
HETATM    7  C   UNL     1       4.851  30.113  55.299  1.00  0.00     0.055 C 
HETATM    8  C   UNL     1       3.111  30.025  53.455  1.00  0.00     0.038 C 
HETATM    9  C   UNL     1       2.903  31.536  53.552  1.00  0.00     0.003 C 
HETATM   10  C   UNL     1       3.270  32.068  54.931  1.00  0.00     0.001 C 
HETATM   11  C   UNL     1       4.680  31.651  55.348  1.00  0.00     0.010 C 
ENDROOT
BRANCH   2  12
HETATM   12  C   UNL     1       6.107  27.277  56.802  1.00  0.00     0.338 C 
BRANCH  12  13
HETATM   13  C   UNL     1       6.187  25.758  56.639  1.00  0.00     0.248 C 
HETATM   14  N   UNL     1       7.326  25.344  55.970  1.00  0.00    -0.319 N 
HETATM   15  H   UNL     1       7.927  26.039  55.521  1.00  0.00     0.169 HD
HETATM   16  O   UNL     1       5.279  25.041  57.040  1.00  0.00    -0.271 OA
BRANCH  14  17
HETATM   17  C   UNL     1       7.681  24.029  55.676  1.00  0.00     0.094 A 
HETATM   18  S   UNL     1       8.361  23.021  56.851  1.00  0.00    -0.076 SA
HETATM   19  C   UNL     1       8.486  21.708  55.776  1.00  0.00    -0.012 A 
HETATM   20  C   UNL     1       9.043  20.411  56.274  1.00  0.00     0.057 C 
HETATM   21  C   UNL     1       8.016  22.021  54.508  1.00  0.00    -0.030 A 
HETATM   22  C   UNL     1       7.976  21.044  53.371  1.00  0.00     0.050 C 
HETATM   23  C   UNL     1       7.573  23.410  54.437  1.00  0.00     0.080 A 
BRANCH  23  24
HETATM   24  C   UNL     1       7.041  24.138  53.276  1.00  0.00     0.296 C 
HETATM   25  O   UNL     1       7.768  24.511  52.355  1.00  0.00    -0.259 OA
BRANCH  24  26
HETATM   26  O   UNL     1       5.698  24.344  53.321  1.00  0.00    -0.322 OA
HETATM   27  C   UNL     1       5.124  24.824  52.104  1.00  0.00     0.213 C 
ENDBRANCH  24  26
ENDBRANCH  23  24
ENDBRANCH  14  17
ENDBRANCH  12  13
ENDBRANCH   2  12
BRANCH   1  28
HETATM   28  C   UNL     1       6.806  30.204  57.036  1.00  0.00    -0.027 A 
HETATM   29  C   UNL     1       5.965  30.975  57.850  1.00  0.00     0.011 A 
HETATM   30  C   UNL     1       6.397  31.440  59.098  1.00  0.00     0.030 A 
HETATM   31  C   UNL     1       7.684  31.173  59.580  1.00  0.00     0.030 A 
HETATM   32  C   UNL     1       8.529  30.435  58.736  1.00  0.00     0.030 A 
HETATM   33  C   UNL     1       8.106  29.955  57.489  1.00  0.00     0.011 A 
BRANCH  31  34
HETATM   34  N   UNL     1       8.110  31.558  60.848  1.00  0.00    -0.382 N 
BRANCH  34  35
HETATM   35  C   UNL     1       9.475  31.258  61.314  1.00  0.00     0.118 C 
HETATM   36  C   UNL     1       9.487  30.075  62.273  1.00  0.00     0.026 C 
ENDBRANCH  34  35
BRANCH  34  37
HETATM   37  C   UNL     1       7.090  31.714  61.898  1.00  0.00     0.118 C 
HETATM   38  C   UNL     1       7.236  33.048  62.620  1.00  0.00     0.026 C 
ENDBRANCH  34  37
ENDBRANCH  31  34
ENDBRANCH   1  28
BRANCH   6  39
HETATM   39  O   UNL     1       5.488  30.186  52.972  1.00  0.00    -0.389 OA
HETATM   40  H   UNL     1       5.457  29.703  52.123  1.00  0.00     0.210 HD
ENDBRANCH   6  39
TORSDOF 10
ENDMDL
MODEL 9
REMARK VINA RESULT:      -7.7      3.362      7.476
REMARK  10 active torsions:
REMARK  status: ('A' for Active; 'I' for Inactive)
REMARK    1  A    between atoms: C_2  and  N_3 
REMARK    2  A    between atoms: N_3  and  C_4 
REMARK    3  A    between atoms: N_3  and  C_37 
REMARK    4  A    between atoms: C_7  and  C_8 
REMARK    5  A    between atoms: N_9  and  C_11 
REMARK    6  A    between atoms: C_11  and  C_12 
REMARK       I    between atoms: C_12  and  N_13 
REMARK    7  A    between atoms: N_13  and  C_14 
REMARK    8  A    between atoms: C_20  and  C_21 
REMARK    9  A    between atoms: C_21  and  O_22 
REMARK   10  A    between atoms: C_28  and  O_29 
ROOT
HETATM    1  C   UNL     1       5.973  26.637  54.769  1.00  0.00     0.228 C 
HETATM    2  N   UNL     1       5.784  26.777  53.257  1.00  0.00    -0.054 N 
HETATM    3  H   UNL     1       4.788  27.010  53.196  1.00  0.00     0.281 HD
HETATM    4  C   UNL     1       5.877  25.468  52.516  1.00  0.00     0.239 C 
HETATM    5  C   UNL     1       7.072  24.609  52.896  1.00  0.00     0.066 C 
HETATM    6  C   UNL     1       7.246  24.475  54.408  1.00  0.00     0.065 C 
HETATM    7  C   UNL     1       7.256  25.849  55.118  1.00  0.00     0.055 C 
HETATM    8  C   UNL     1       8.528  23.688  54.739  1.00  0.00     0.038 C 
HETATM    9  C   UNL     1       8.730  23.520  56.245  1.00  0.00     0.003 C 
HETATM   10  C   UNL     1       8.681  24.856  56.973  1.00  0.00     0.001 C 
HETATM   11  C   UNL     1       7.410  25.640  56.644  1.00  0.00     0.010 C 
ENDROOT
BRANCH   2  12
HETATM   12  C   UNL     1       6.420  27.985  52.545  1.00  0.00     0.338 C 
BRANCH  12  13
HETATM   13  C   UNL     1       5.574  28.758  51.533  1.00  0.00     0.248 C 
HETATM   14  N   UNL     1       4.349  28.165  51.283  1.00  0.00    -0.319 N 
HETATM   15  H   UNL     1       4.158  27.230  51.649  1.00  0.00     0.169 HD
HETATM   16  O   UNL     1       6.015  29.768  50.997  1.00  0.00    -0.271 OA
BRANCH  14  17
HETATM   17  C   UNL     1       3.363  28.634  50.418  1.00  0.00     0.094 A 
HETATM   18  S   UNL     1       2.416  29.978  50.813  1.00  0.00    -0.076 SA
HETATM   19  C   UNL     1       1.540  29.898  49.357  1.00  0.00    -0.012 A 
HETATM   20  C   UNL     1       0.479  30.919  49.088  1.00  0.00     0.057 C 
HETATM   21  C   UNL     1       1.953  28.844  48.553  1.00  0.00    -0.030 A 
HETATM   22  C   UNL     1       1.378  28.555  47.198  1.00  0.00     0.050 C 
HETATM   23  C   UNL     1       3.010  28.071  49.197  1.00  0.00     0.080 A 
BRANCH  23  24
HETATM   24  C   UNL     1       3.693  26.868  48.698  1.00  0.00     0.296 C 
HETATM   25  O   UNL     1       3.085  25.821  48.478  1.00  0.00    -0.259 OA
BRANCH  24  26
HETATM   26  O   UNL     1       5.028  27.033  48.503  1.00  0.00    -0.322 OA
HETATM   27  C   UNL     1       5.374  27.881  47.408  1.00  0.00     0.213 C 
ENDBRANCH  24  26
ENDBRANCH  23  24
ENDBRANCH  14  17
ENDBRANCH  12  13
ENDBRANCH   2  12
BRANCH   1  28
HETATM   28  C   UNL     1       5.749  27.956  55.488  1.00  0.00    -0.027 A 
HETATM   29  C   UNL     1       4.437  28.368  55.763  1.00  0.00     0.011 A 
HETATM   30  C   UNL     1       4.185  29.551  56.468  1.00  0.00     0.030 A 
HETATM   31  C   UNL     1       5.221  30.379  56.914  1.00  0.00     0.030 A 
HETATM   32  C   UNL     1       6.527  29.977  56.596  1.00  0.00     0.030 A 
HETATM   33  C   UNL     1       6.794  28.790  55.899  1.00  0.00     0.011 A 
BRANCH  31  34
HETATM   34  N   UNL     1       4.999  31.519  57.683  1.00  0.00    -0.382 N 
BRANCH  34  35
HETATM   35  C   UNL     1       4.041  32.551  57.252  1.00  0.00     0.118 C 
HETATM   36  C   UNL     1       4.636  33.447  56.175  1.00  0.00     0.026 C 
ENDBRANCH  34  35
BRANCH  34  37
HETATM   37  C   UNL     1       6.085  31.975  58.565  1.00  0.00     0.118 C 
HETATM   38  C   UNL     1       5.541  32.709  59.784  1.00  0.00     0.026 C 
ENDBRANCH  34  37
ENDBRANCH  31  34
ENDBRANCH   1  28
BRANCH   6  39
HETATM   39  O   UNL     1       6.101  23.744  54.874  1.00  0.00    -0.389 OA
HETATM   40  H   UNL     1       6.372  22.827  55.076  1.00  0.00     0.210 HD
ENDBRANCH   6  39
TORSDOF 10
ENDMDL
MODEL 10
REMARK VINA RESULT:      -7.7      3.286      7.552
REMARK  10 active torsions:
REMARK  status: ('A' for Active; 'I' for Inactive)
REMARK    1  A    between atoms: C_2  and  N_3 
REMARK    2  A    between atoms: N_3  and  C_4 
REMARK    3  A    between atoms: N_3  and  C_37 
REMARK    4  A    between atoms: C_7  and  C_8 
REMARK    5  A    between atoms: N_9  and  C_11 
REMARK    6  A    between atoms: C_11  and  C_12 
REMARK       I    between atoms: C_12  and  N_13 
REMARK    7  A    between atoms: N_13  and  C_14 
REMARK    8  A    between atoms: C_20  and  C_21 
REMARK    9  A    between atoms: C_21  and  O_22 
REMARK   10  A    between atoms: C_28  and  O_29 
ROOT
HETATM    1  C   UNL     1       6.271  26.686  55.595  1.00  0.00     0.228 C 
HETATM    2  N   UNL     1       5.649  26.986  54.230  1.00  0.00    -0.054 N 
HETATM    3  H   UNL     1       4.733  27.359  54.499  1.00  0.00     0.281 HD
HETATM    4  C   UNL     1       5.298  25.749  53.444  1.00  0.00     0.239 C 
HETATM    5  C   UNL     1       6.400  24.702  53.387  1.00  0.00     0.066 C 
HETATM    6  C   UNL     1       7.008  24.410  54.757  1.00  0.00     0.065 C 
HETATM    7  C   UNL     1       7.456  25.700  55.484  1.00  0.00     0.055 C 
HETATM    8  C   UNL     1       8.186  23.427  54.629  1.00  0.00     0.038 C 
HETATM    9  C   UNL     1       8.815  23.098  55.983  1.00  0.00     0.003 C 
HETATM   10  C   UNL     1       9.206  24.358  56.744  1.00  0.00     0.001 C 
HETATM   11  C   UNL     1       8.039  25.335  56.871  1.00  0.00     0.010 C 
ENDROOT
BRANCH   2  12
HETATM   12  C   UNL     1       6.218  28.154  53.403  1.00  0.00     0.338 C 
BRANCH  12  13
HETATM   13  C   UNL     1       5.247  29.003  52.582  1.00  0.00     0.248 C 
HETATM   14  N   UNL     1       5.805  29.485  51.411  1.00  0.00    -0.319 N 
HETATM   15  H   UNL     1       6.809  29.380  51.251  1.00  0.00     0.169 HD
HETATM   16  O   UNL     1       4.119  29.234  52.998  1.00  0.00    -0.271 OA
BRANCH  14  17
HETATM   17  C   UNL     1       5.171  30.279  50.457  1.00  0.00     0.094 A 
HETATM   18  S   UNL     1       4.872  31.919  50.739  1.00  0.00    -0.076 SA
HETATM   19  C   UNL     1       4.136  32.135  49.220  1.00  0.00    -0.012 A 
HETATM   20  C   UNL     1       3.636  33.493  48.840  1.00  0.00     0.057 C 
HETATM   21  C   UNL     1       4.104  30.960  48.480  1.00  0.00    -0.030 A 
HETATM   22  C   UNL     1       3.544  30.866  47.092  1.00  0.00     0.050 C 
HETATM   23  C   UNL     1       4.684  29.849  49.228  1.00  0.00     0.080 A 
BRANCH  23  24
HETATM   24  C   UNL     1       4.813  28.443  48.818  1.00  0.00     0.296 C 
HETATM   25  O   UNL     1       5.514  28.107  47.864  1.00  0.00    -0.259 OA
BRANCH  24  26
HETATM   26  O   UNL     1       4.103  27.576  49.587  1.00  0.00    -0.322 OA
HETATM   27  C   UNL     1       4.757  26.335  49.851  1.00  0.00     0.213 C 
ENDBRANCH  24  26
ENDBRANCH  23  24
ENDBRANCH  14  17
ENDBRANCH  12  13
ENDBRANCH   2  12
BRANCH   1  28
HETATM   28  C   UNL     1       6.493  27.953  56.402  1.00  0.00    -0.027 A 
HETATM   29  C   UNL     1       5.381  28.655  56.888  1.00  0.00     0.011 A 
HETATM   30  C   UNL     1       5.539  29.800  57.679  1.00  0.00     0.030 A 
HETATM   31  C   UNL     1       6.804  30.302  58.006  1.00  0.00     0.030 A 
HETATM   32  C   UNL     1       7.908  29.614  57.478  1.00  0.00     0.030 A 
HETATM   33  C   UNL     1       7.764  28.461  56.693  1.00  0.00     0.011 A 
BRANCH  31  34
HETATM   34  N   UNL     1       6.989  31.391  58.853  1.00  0.00    -0.382 N 
BRANCH  34  35
HETATM   35  C   UNL     1       7.868  31.297  60.031  1.00  0.00     0.118 C 
HETATM   36  C   UNL     1       9.136  32.120  59.844  1.00  0.00     0.026 C 
ENDBRANCH  34  35
BRANCH  34  37
HETATM   37  C   UNL     1       5.911  32.392  58.931  1.00  0.00     0.118 C 
HETATM   38  C   UNL     1       5.492  32.645  60.374  1.00  0.00     0.026 C 
ENDBRANCH  34  37
ENDBRANCH  31  34
ENDBRANCH   1  28
BRANCH   6  39
HETATM   39  O   UNL     1       5.962  23.805  55.533  1.00  0.00    -0.389 OA
HETATM   40  H   UNL     1       5.380  23.295  54.937  1.00  0.00     0.210 HD
ENDBRANCH   6  39
TORSDOF 10
ENDMDL
