MODEL 1
REMARK VINA RESULT:      -9.5      0.000      0.000
REMARK  8 active torsions:
REMARK  status: ('A' for Active; 'I' for Inactive)
REMARK    1  A    between atoms: C_2  and  O_3 
REMARK    2  A    between atoms: O_3  and  C_4 
REMARK    3  A    between atoms: C_5  and  N_6 
REMARK       I    between atoms: N_9  and  C_10 
REMARK    4  A    between atoms: C_10  and  C_11 
REMARK    5  A    between atoms: C_14  and  C_15 
REMARK       I    between atoms: C_15  and  N_16 
REMARK    6  A    between atoms: N_16  and  C_17 
REMARK    7  A    between atoms: C_17  and  C_18 
REMARK    8  A    between atoms: N_23  and  C_24 
ROOT
HETATM    1  C   UNL     1       6.998  28.459  56.940  1.00  0.00     0.098 A 
HETATM    2  C   UNL     1       6.837  29.641  57.840  1.00  0.00     0.206 A 
HETATM    3  O   UNL     1       7.445  29.730  58.906  1.00  0.00    -0.286 OA
HETATM    4  C   UNL     1       5.882  30.706  57.420  1.00  0.00     0.098 A 
HETATM    5  C   UNL     1       5.144  30.469  56.321  1.00  0.00     0.112 A 
HETATM    6  N   UNL     1       5.239  29.339  55.510  1.00  0.00    -0.360 N 
HETATM    7  C   UNL     1       6.230  28.420  55.841  1.00  0.00     0.112 A 
ENDROOT
BRANCH   1   8
HETATM    8  C   UNL     1       8.058  27.448  57.197  1.00  0.00     0.259 C 
HETATM    9  N   UNL     1       7.700  26.174  57.634  1.00  0.00    -0.346 N 
HETATM   10  C   UNL     1       6.438  25.489  57.347  1.00  0.00     0.141 C 
HETATM   11  C   UNL     1       8.777  25.212  57.877  1.00  0.00     0.141 C 
HETATM   12  C   UNL     1       6.590  24.637  56.060  1.00  0.00     0.115 C 
HETATM   13  N   UNL     1       7.713  23.664  56.201  1.00  0.00    -0.278 NA
HETATM   14  C   UNL     1       8.988  24.311  56.644  1.00  0.00     0.115 C 
HETATM   15  O   UNL     1       9.233  27.778  57.045  1.00  0.00    -0.267 OA
BRANCH  13  16
HETATM   16  C   UNL     1       7.814  22.734  55.131  1.00  0.00     0.044 A 
HETATM   17  C   UNL     1       8.044  23.124  53.789  1.00  0.00     0.090 A 
HETATM   18  C   UNL     1       8.193  22.192  52.751  1.00  0.00     0.038 A 
HETATM   19  C   UNL     1       8.051  20.835  53.000  1.00  0.00     0.003 A 
HETATM   20  C   UNL     1       7.768  20.413  54.292  1.00  0.00     0.002 A 
HETATM   21  C   UNL     1       7.652  21.346  55.332  1.00  0.00     0.026 A 
BRANCH  17  22
HETATM   22  O   UNL     1       8.146  24.435  53.386  1.00  0.00    -0.350 OA
BRANCH  22  23
HETATM   23  C   UNL     1       7.541  24.625  52.102  1.00  0.00     0.171 C 
HETATM   24  C   UNL     1       6.069  24.918  52.335  1.00  0.00     0.034 C 
ENDBRANCH  22  23
ENDBRANCH  17  22
ENDBRANCH  13  16
ENDBRANCH   1   8
BRANCH   4  25
HETATM   25  C   UNL     1       5.681  32.001  58.131  1.00  0.00     0.257 C 
HETATM   26  N   UNL     1       5.532  31.912  59.491  1.00  0.00    -0.356 N 
HETATM   27  H   UNL     1       5.486  30.986  59.917  1.00  0.00     0.162 HD
HETATM   28  O   UNL     1       5.674  33.071  57.527  1.00  0.00    -0.267 OA
BRANCH  26  29
HETATM   29  C   UNL     1       5.391  33.078  60.338  1.00  0.00     0.126 C 
BRANCH  29  30
HETATM   30  C   UNL     1       6.278  33.017  61.589  1.00  0.00    -0.005 C 
HETATM   31  C   UNL     1       7.726  32.673  61.232  1.00  0.00     0.011 C 
HETATM   32  C   UNL     1       6.227  34.354  62.331  1.00  0.00     0.011 C 
ENDBRANCH  29  30
ENDBRANCH  26  29
ENDBRANCH   4  25
BRANCH   6  33
HETATM   33  C   UNL     1       4.148  29.050  54.549  1.00  0.00     0.088 C 
HETATM   34  C   UNL     1       3.835  30.152  53.533  1.00  0.00     0.026 C 
HETATM   35  C   UNL     1       3.225  29.380  52.371  1.00  0.00     0.002 C 
HETATM   36  C   UNL     1       4.109  28.146  52.272  1.00  0.00     0.002 C 
HETATM   37  C   UNL     1       4.461  27.795  53.715  1.00  0.00     0.026 C 
ENDBRANCH   6  33
TORSDOF 8
ENDMDL
MODEL 2
REMARK VINA RESULT:      -9.5      1.818      5.390
REMARK  8 active torsions:
REMARK  status: ('A' for Active; 'I' for Inactive)
REMARK    1  A    between atoms: C_2  and  O_3 
REMARK    2  A    between atoms: O_3  and  C_4 
REMARK    3  A    between atoms: C_5  and  N_6 
REMARK       I    between atoms: N_9  and  C_10 
REMARK    4  A    between atoms: C_10  and  C_11 
REMARK    5  A    between atoms: C_14  and  C_15 
REMARK       I    between atoms: C_15  and  N_16 
REMARK    6  A    between atoms: N_16  and  C_17 
REMARK    7  A    between atoms: C_17  and  C_18 
REMARK    8  A    between atoms: N_23  and  C_24 
ROOT
HETATM    1  C   UNL     1       6.563  28.547  56.540  1.00  0.00     0.098 A 
HETATM    2  C   UNL     1       6.166  28.543  55.100  1.00  0.00     0.206 A 
HETATM    3  O   UNL     1       6.769  27.870  54.265  1.00  0.00    -0.286 OA
HETATM    4  C   UNL     1       5.026  29.413  54.692  1.00  0.00     0.098 A 
HETATM    5  C   UNL     1       4.515  30.232  55.630  1.00  0.00     0.112 A 
HETATM    6  N   UNL     1       4.922  30.292  56.962  1.00  0.00    -0.360 N 
HETATM    7  C   UNL     1       5.894  29.377  57.355  1.00  0.00     0.112 A 
ENDROOT
BRANCH   1   8
HETATM    8  C   UNL     1       7.567  27.578  57.054  1.00  0.00     0.259 C 
HETATM    9  N   UNL     1       7.146  26.329  57.507  1.00  0.00    -0.346 N 
HETATM   10  C   UNL     1       5.965  25.599  57.043  1.00  0.00     0.141 C 
HETATM   11  C   UNL     1       8.170  25.409  58.007  1.00  0.00     0.141 C 
HETATM   12  C   UNL     1       6.357  24.667  55.867  1.00  0.00     0.115 C 
HETATM   13  N   UNL     1       7.444  23.730  56.278  1.00  0.00    -0.278 NA
HETATM   14  C   UNL     1       8.611  24.432  56.899  1.00  0.00     0.115 C 
HETATM   15  O   UNL     1       8.748  27.922  57.096  1.00  0.00    -0.267 OA
BRANCH  13  16
HETATM   16  C   UNL     1       7.747  22.733  55.311  1.00  0.00     0.044 A 
HETATM   17  C   UNL     1       8.153  23.038  53.990  1.00  0.00     0.090 A 
HETATM   18  C   UNL     1       8.499  22.044  53.061  1.00  0.00     0.038 A 
HETATM   19  C   UNL     1       8.389  20.702  53.396  1.00  0.00     0.003 A 
HETATM   20  C   UNL     1       7.938  20.359  54.662  1.00  0.00     0.002 A 
HETATM   21  C   UNL     1       7.625  21.356  55.597  1.00  0.00     0.026 A 
BRANCH  17  22
HETATM   22  O   UNL     1       8.250  24.321  53.501  1.00  0.00    -0.350 OA
BRANCH  22  23
HETATM   23  C   UNL     1       7.723  24.404  52.172  1.00  0.00     0.171 C 
HETATM   24  C   UNL     1       6.329  24.998  52.274  1.00  0.00     0.034 C 
ENDBRANCH  22  23
ENDBRANCH  17  22
ENDBRANCH  13  16
ENDBRANCH   1   8
BRANCH   4  25
HETATM   25  C   UNL     1       4.422  29.447  53.330  1.00  0.00     0.257 C 
HETATM   26  N   UNL     1       5.289  29.733  52.307  1.00  0.00    -0.356 N 
HETATM   27  H   UNL     1       6.251  29.980  52.538  1.00  0.00     0.162 HD
HETATM   28  O   UNL     1       3.230  29.211  53.149  1.00  0.00    -0.267 OA
BRANCH  26  29
HETATM   29  C   UNL     1       4.879  29.744  50.918  1.00  0.00     0.126 C 
BRANCH  29  30
HETATM   30  C   UNL     1       5.366  28.513  50.143  1.00  0.00    -0.005 C 
HETATM   31  C   UNL     1       4.329  27.388  50.169  1.00  0.00     0.011 C 
HETATM   32  C   UNL     1       5.683  28.898  48.696  1.00  0.00     0.011 C 
ENDBRANCH  29  30
ENDBRANCH  26  29
ENDBRANCH   4  25
BRANCH   6  33
HETATM   33  C   UNL     1       4.521  31.458  57.784  1.00  0.00     0.088 C 
HETATM   34  C   UNL     1       3.554  31.171  58.936  1.00  0.00     0.026 C 
HETATM   35  C   UNL     1       3.845  32.300  59.914  1.00  0.00     0.002 C 
HETATM   36  C   UNL     1       5.362  32.406  59.882  1.00  0.00     0.002 C 
HETATM   37  C   UNL     1       5.746  32.130  58.431  1.00  0.00     0.026 C 
ENDBRANCH   6  33
TORSDOF 8
ENDMDL
MODEL 3
REMARK VINA RESULT:      -9.3      3.528      6.629
REMARK  8 active torsions:
REMARK  status: ('A' for Active; 'I' for Inactive)
REMARK    1  A    between atoms: C_2  and  O_3 
REMARK    2  A    between atoms: O_3  and  C_4 
REMARK    3  A    between atoms: C_5  and  N_6 
REMARK       I    between atoms: N_9  and  C_10 
REMARK    4  A    between atoms: C_10  and  C_11 
REMARK    5  A    between atoms: C_14  and  C_15 
REMARK       I    between atoms: C_15  and  N_16 
REMARK    6  A    between atoms: N_16  and  C_17 
REMARK    7  A    between atoms: C_17  and  C_18 
REMARK    8  A    between atoms: N_23  and  C_24 
ROOT
HETATM    1  C   UNL     1       5.787  28.048  54.665  1.00  0.00     0.098 A 
HETATM    2  C   UNL     1       6.589  28.889  55.603  1.00  0.00     0.206 A 
HETATM    3  O   UNL     1       6.385  30.096  55.724  1.00  0.00    -0.286 OA
HETATM    4  C   UNL     1       7.680  28.223  56.371  1.00  0.00     0.098 A 
HETATM    5  C   UNL     1       7.942  26.938  56.074  1.00  0.00     0.112 A 
HETATM    6  N   UNL     1       7.241  26.161  55.152  1.00  0.00    -0.360 N 
HETATM    7  C   UNL     1       6.142  26.759  54.546  1.00  0.00     0.112 A 
ENDROOT
BRANCH   1   8
HETATM    8  C   UNL     1       4.574  28.596  54.002  1.00  0.00     0.259 C 
HETATM    9  N   UNL     1       4.697  29.251  52.778  1.00  0.00    -0.346 N 
HETATM   10  C   UNL     1       5.727  29.002  51.769  1.00  0.00     0.141 C 
HETATM   11  C   UNL     1       3.475  29.775  52.164  1.00  0.00     0.141 C 
HETATM   12  C   UNL     1       5.224  27.933  50.764  1.00  0.00     0.115 C 
HETATM   13  N   UNL     1       3.942  28.365  50.132  1.00  0.00    -0.278 NA
HETATM   14  C   UNL     1       2.911  28.775  51.136  1.00  0.00     0.115 C 
HETATM   15  O   UNL     1       3.490  28.481  54.573  1.00  0.00    -0.267 OA
BRANCH  13  16
HETATM   16  C   UNL     1       3.500  27.520  49.079  1.00  0.00     0.044 A 
HETATM   17  C   UNL     1       2.689  27.977  48.012  1.00  0.00     0.090 A 
HETATM   18  C   UNL     1       2.304  27.143  46.951  1.00  0.00     0.038 A 
HETATM   19  C   UNL     1       2.656  25.802  46.948  1.00  0.00     0.003 A 
HETATM   20  C   UNL     1       3.402  25.299  48.005  1.00  0.00     0.002 A 
HETATM   21  C   UNL     1       3.813  26.143  49.046  1.00  0.00     0.026 A 
BRANCH  17  22
HETATM   22  O   UNL     1       2.216  29.265  47.915  1.00  0.00    -0.350 OA
BRANCH  22  23
HETATM   23  C   UNL     1       2.769  29.930  46.773  1.00  0.00     0.171 C 
HETATM   24  C   UNL     1       4.009  30.673  47.238  1.00  0.00     0.034 C 
ENDBRANCH  22  23
ENDBRANCH  17  22
ENDBRANCH  13  16
ENDBRANCH   1   8
BRANCH   4  25
HETATM   25  C   UNL     1       8.501  28.877  57.430  1.00  0.00     0.257 C 
HETATM   26  N   UNL     1       7.794  29.535  58.404  1.00  0.00    -0.356 N 
HETATM   27  H   UNL     1       6.781  29.608  58.306  1.00  0.00     0.162 HD
HETATM   28  O   UNL     1       9.727  28.804  57.430  1.00  0.00    -0.267 OA
BRANCH  26  29
HETATM   29  C   UNL     1       8.433  30.169  59.537  1.00  0.00     0.126 C 
BRANCH  29  30
HETATM   30  C   UNL     1       8.694  31.665  59.315  1.00  0.00    -0.005 C 
HETATM   31  C   UNL     1       8.476  32.468  60.598  1.00  0.00     0.011 C 
HETATM   32  C   UNL     1      10.121  31.876  58.802  1.00  0.00     0.011 C 
ENDBRANCH  29  30
ENDBRANCH  26  29
ENDBRANCH   4  25
BRANCH   6  33
HETATM   33  C   UNL     1       7.842  24.891  54.680  1.00  0.00     0.088 C 
HETATM   34  C   UNL     1       7.139  23.605  55.124  1.00  0.00     0.026 C 
HETATM   35  C   UNL     1       7.521  22.613  54.034  1.00  0.00     0.002 C 
HETATM   36  C   UNL     1       7.399  23.434  52.760  1.00  0.00     0.002 C 
HETATM   37  C   UNL     1       7.878  24.832  53.142  1.00  0.00     0.026 C 
ENDBRANCH   6  33
TORSDOF 8
ENDMDL
MODEL 4
REMARK VINA RESULT:      -9.3      3.167      8.139
REMARK  8 active torsions:
REMARK  status: ('A' for Active; 'I' for Inactive)
REMARK    1  A    between atoms: C_2  and  O_3 
REMARK    2  A    between atoms: O_3  and  C_4 
REMARK    3  A    between atoms: C_5  and  N_6 
REMARK       I    between atoms: N_9  and  C_10 
REMARK    4  A    between atoms: C_10  and  C_11 
REMARK    5  A    between atoms: C_14  and  C_15 
REMARK       I    between atoms: C_15  and  N_16 
REMARK    6  A    between atoms: N_16  and  C_17 
REMARK    7  A    between atoms: C_17  and  C_18 
REMARK    8  A    between atoms: N_23  and  C_24 
ROOT
HETATM    1  C   UNL     1       5.971  27.903  55.590  1.00  0.00     0.098 A 
HETATM    2  C   UNL     1       6.143  26.420  55.622  1.00  0.00     0.206 A 
HETATM    3  O   UNL     1       5.270  25.659  55.208  1.00  0.00    -0.286 OA
HETATM    4  C   UNL     1       7.403  25.880  56.210  1.00  0.00     0.098 A 
HETATM    5  C   UNL     1       8.241  26.765  56.779  1.00  0.00     0.112 A 
HETATM    6  N   UNL     1       8.059  28.147  56.813  1.00  0.00    -0.360 N 
HETATM    7  C   UNL     1       6.947  28.642  56.140  1.00  0.00     0.112 A 
ENDROOT
BRANCH   1   8
HETATM    8  C   UNL     1       4.831  28.520  54.862  1.00  0.00     0.259 C 
HETATM    9  N   UNL     1       5.062  29.176  53.654  1.00  0.00    -0.346 N 
HETATM   10  C   UNL     1       6.135  28.878  52.704  1.00  0.00     0.141 C 
HETATM   11  C   UNL     1       3.909  29.771  52.974  1.00  0.00     0.141 C 
HETATM   12  C   UNL     1       5.636  27.846  51.661  1.00  0.00     0.115 C 
HETATM   13  N   UNL     1       4.419  28.352  50.959  1.00  0.00    -0.278 NA
HETATM   14  C   UNL     1       3.353  28.810  51.905  1.00  0.00     0.115 C 
HETATM   15  O   UNL     1       3.711  28.461  55.367  1.00  0.00    -0.267 OA
BRANCH  13  16
HETATM   16  C   UNL     1       3.995  27.539  49.873  1.00  0.00     0.044 A 
HETATM   17  C   UNL     1       3.248  28.041  48.780  1.00  0.00     0.090 A 
HETATM   18  C   UNL     1       2.881  27.238  47.689  1.00  0.00     0.038 A 
HETATM   19  C   UNL     1       3.187  25.885  47.679  1.00  0.00     0.003 A 
HETATM   20  C   UNL     1       3.867  25.340  48.758  1.00  0.00     0.002 A 
HETATM   21  C   UNL     1       4.261  26.153  49.831  1.00  0.00     0.026 A 
BRANCH  17  22
HETATM   22  O   UNL     1       2.824  29.346  48.684  1.00  0.00    -0.350 OA
BRANCH  22  23
HETATM   23  C   UNL     1       3.310  29.956  47.483  1.00  0.00     0.171 C 
HETATM   24  C   UNL     1       4.653  30.588  47.807  1.00  0.00     0.034 C 
ENDBRANCH  22  23
ENDBRANCH  17  22
ENDBRANCH  13  16
ENDBRANCH   1   8
BRANCH   4  25
HETATM   25  C   UNL     1       7.793  24.442  56.220  1.00  0.00     0.257 C 
HETATM   26  N   UNL     1       7.266  23.679  55.209  1.00  0.00    -0.356 N 
HETATM   27  H   UNL     1       6.592  24.109  54.575  1.00  0.00     0.162 HD
HETATM   28  O   UNL     1       8.553  23.987  57.072  1.00  0.00    -0.267 OA
BRANCH  26  29
HETATM   29  C   UNL     1       7.593  22.280  55.037  1.00  0.00     0.126 C 
BRANCH  29  30
HETATM   30  C   UNL     1       8.286  21.990  53.699  1.00  0.00    -0.005 C 
HETATM   31  C   UNL     1       7.862  20.633  53.132  1.00  0.00     0.011 C 
HETATM   32  C   UNL     1       7.968  23.099  52.695  1.00  0.00     0.011 C 
ENDBRANCH  29  30
ENDBRANCH  26  29
ENDBRANCH   4  25
BRANCH   6  33
HETATM   33  C   UNL     1       8.869  28.956  57.755  1.00  0.00     0.088 C 
HETATM   34  C   UNL     1       9.881  29.916  57.123  1.00  0.00     0.026 C 
HETATM   35  C   UNL     1      10.043  30.990  58.190  1.00  0.00     0.002 C 
HETATM   36  C   UNL     1       8.620  31.212  58.678  1.00  0.00     0.002 C 
HETATM   37  C   UNL     1       7.972  29.830  58.649  1.00  0.00     0.026 C 
ENDBRANCH   6  33
TORSDOF 8
ENDMDL
MODEL 5
REMARK VINA RESULT:      -9.0      1.828      2.238
REMARK  8 active torsions:
REMARK  status: ('A' for Active; 'I' for Inactive)
REMARK    1  A    between atoms: C_2  and  O_3 
REMARK    2  A    between atoms: O_3  and  C_4 
REMARK    3  A    between atoms: C_5  and  N_6 
REMARK       I    between atoms: N_9  and  C_10 
REMARK    4  A    between atoms: C_10  and  C_11 
REMARK    5  A    between atoms: C_14  and  C_15 
REMARK       I    between atoms: C_15  and  N_16 
REMARK    6  A    between atoms: N_16  and  C_17 
REMARK    7  A    between atoms: C_17  and  C_18 
REMARK    8  A    between atoms: N_23  and  C_24 
ROOT
HETATM    1  C   UNL     1       5.981  28.370  55.728  1.00  0.00     0.098 A 
HETATM    2  C   UNL     1       5.166  29.371  56.479  1.00  0.00     0.206 A 
HETATM    3  O   UNL     1       5.271  29.508  57.697  1.00  0.00    -0.286 OA
HETATM    4  C   UNL     1       4.185  30.187  55.707  1.00  0.00     0.098 A 
HETATM    5  C   UNL     1       4.019  29.877  54.408  1.00  0.00     0.112 A 
HETATM    6  N   UNL     1       4.728  28.899  53.712  1.00  0.00    -0.360 N 
HETATM    7  C   UNL     1       5.733  28.243  54.415  1.00  0.00     0.112 A 
ENDROOT
BRANCH   1   8
HETATM    8  C   UNL     1       7.100  27.650  56.392  1.00  0.00     0.259 C 
HETATM    9  N   UNL     1       6.840  26.476  57.094  1.00  0.00    -0.346 N 
HETATM   10  C   UNL     1       5.755  25.532  56.822  1.00  0.00     0.141 C 
HETATM   11  C   UNL     1       7.974  25.803  57.733  1.00  0.00     0.141 C 
HETATM   12  C   UNL     1       6.250  24.438  55.841  1.00  0.00     0.115 C 
HETATM   13  N   UNL     1       7.448  23.738  56.393  1.00  0.00    -0.278 NA
HETATM   14  C   UNL     1       8.523  24.684  56.826  1.00  0.00     0.115 C 
HETATM   15  O   UNL     1       8.230  28.134  56.326  1.00  0.00    -0.267 OA
BRANCH  13  16
HETATM   16  C   UNL     1       7.864  22.612  55.633  1.00  0.00     0.044 A 
HETATM   17  C   UNL     1       8.361  22.715  54.311  1.00  0.00     0.090 A 
HETATM   18  C   UNL     1       8.818  21.600  53.591  1.00  0.00     0.038 A 
HETATM   19  C   UNL     1       8.732  20.328  54.138  1.00  0.00     0.003 A 
HETATM   20  C   UNL     1       8.196  20.176  55.409  1.00  0.00     0.002 A 
HETATM   21  C   UNL     1       7.772  21.296  56.137  1.00  0.00     0.026 A 
BRANCH  17  22
HETATM   22  O   UNL     1       8.448  23.902  53.622  1.00  0.00    -0.350 OA
BRANCH  22  23
HETATM   23  C   UNL     1       7.666  23.856  52.422  1.00  0.00     0.171 C 
HETATM   24  C   UNL     1       7.283  25.285  52.078  1.00  0.00     0.034 C 
ENDBRANCH  22  23
ENDBRANCH  17  22
ENDBRANCH  13  16
ENDBRANCH   1   8
BRANCH   4  25
HETATM   25  C   UNL     1       3.376  31.306  56.267  1.00  0.00     0.257 C 
HETATM   26  N   UNL     1       4.046  32.156  57.109  1.00  0.00    -0.356 N 
HETATM   27  H   UNL     1       5.009  31.934  57.361  1.00  0.00     0.162 HD
HETATM   28  O   UNL     1       2.193  31.457  55.969  1.00  0.00    -0.267 OA
BRANCH  26  29
HETATM   29  C   UNL     1       3.425  33.328  57.689  1.00  0.00     0.126 C 
BRANCH  29  30
HETATM   30  C   UNL     1       3.675  33.450  59.198  1.00  0.00    -0.005 C 
HETATM   31  C   UNL     1       2.742  34.480  59.838  1.00  0.00     0.011 C 
HETATM   32  C   UNL     1       3.490  32.088  59.870  1.00  0.00     0.011 C 
ENDBRANCH  29  30
ENDBRANCH  26  29
ENDBRANCH   4  25
BRANCH   6  33
HETATM   33  C   UNL     1       4.213  28.433  52.402  1.00  0.00     0.088 C 
HETATM   34  C   UNL     1       3.050  29.236  51.811  1.00  0.00     0.026 C 
HETATM   35  C   UNL     1       3.188  28.983  50.316  1.00  0.00     0.002 C 
HETATM   36  C   UNL     1       4.689  29.073  50.085  1.00  0.00     0.002 C 
HETATM   37  C   UNL     1       5.318  28.456  51.331  1.00  0.00     0.026 C 
ENDBRANCH   6  33
TORSDOF 8
ENDMDL
MODEL 6
REMARK VINA RESULT:      -8.9      2.154      9.018
REMARK  8 active torsions:
REMARK  status: ('A' for Active; 'I' for Inactive)
REMARK    1  A    between atoms: C_2  and  O_3 
REMARK    2  A    between atoms: O_3  and  C_4 
REMARK    3  A    between atoms: C_5  and  N_6 
REMARK       I    between atoms: N_9  and  C_10 
REMARK    4  A    between atoms: C_10  and  C_11 
REMARK    5  A    between atoms: C_14  and  C_15 
REMARK       I    between atoms: C_15  and  N_16 
REMARK    6  A    between atoms: N_16  and  C_17 
REMARK    7  A    between atoms: C_17  and  C_18 
REMARK    8  A    between atoms: N_23  and  C_24 
ROOT
HETATM    1  C   UNL     1       7.055  25.523  55.491  1.00  0.00     0.098 A 
HETATM    2  C   UNL     1       6.039  25.796  54.431  1.00  0.00     0.206 A 
HETATM    3  O   UNL     1       5.124  26.599  54.605  1.00  0.00    -0.286 OA
HETATM    4  C   UNL     1       6.146  25.033  53.154  1.00  0.00     0.098 A 
HETATM    5  C   UNL     1       7.079  24.065  53.095  1.00  0.00     0.112 A 
HETATM    6  N   UNL     1       7.991  23.757  54.104  1.00  0.00    -0.360 N 
HETATM    7  C   UNL     1       7.964  24.569  55.233  1.00  0.00     0.112 A 
ENDROOT
BRANCH   1   8
HETATM    8  C   UNL     1       7.124  26.366  56.714  1.00  0.00     0.259 C 
HETATM    9  N   UNL     1       7.699  27.632  56.643  1.00  0.00    -0.346 N 
HETATM   10  C   UNL     1       7.740  28.495  55.461  1.00  0.00     0.141 C 
HETATM   11  C   UNL     1       7.747  28.425  57.874  1.00  0.00     0.141 C 
HETATM   12  C   UNL     1       6.500  29.427  55.453  1.00  0.00     0.115 C 
HETATM   13  N   UNL     1       6.440  30.233  56.708  1.00  0.00    -0.278 NA
HETATM   14  C   UNL     1       6.550  29.394  57.942  1.00  0.00     0.115 C 
HETATM   15  O   UNL     1       6.694  25.903  57.770  1.00  0.00    -0.267 OA
BRANCH  13  16
HETATM   16  C   UNL     1       5.428  31.230  56.709  1.00  0.00     0.044 A 
HETATM   17  C   UNL     1       5.464  32.366  57.555  1.00  0.00     0.090 A 
HETATM   18  C   UNL     1       4.484  33.369  57.508  1.00  0.00     0.038 A 
HETATM   19  C   UNL     1       3.392  33.245  56.661  1.00  0.00     0.003 A 
HETATM   20  C   UNL     1       3.287  32.119  55.857  1.00  0.00     0.002 A 
HETATM   21  C   UNL     1       4.286  31.135  55.883  1.00  0.00     0.026 A 
BRANCH  17  22
HETATM   22  O   UNL     1       6.453  32.590  58.484  1.00  0.00    -0.350 OA
BRANCH  22  23
HETATM   23  C   UNL     1       5.914  32.609  59.811  1.00  0.00     0.171 C 
HETATM   24  C   UNL     1       7.057  32.313  60.767  1.00  0.00     0.034 C 
ENDBRANCH  22  23
ENDBRANCH  17  22
ENDBRANCH  13  16
ENDBRANCH   1   8
BRANCH   4  25
HETATM   25  C   UNL     1       5.295  25.257  51.952  1.00  0.00     0.257 C 
HETATM   26  N   UNL     1       5.521  26.430  51.278  1.00  0.00    -0.356 N 
HETATM   27  H   UNL     1       6.181  27.099  51.673  1.00  0.00     0.162 HD
HETATM   28  O   UNL     1       4.465  24.427  51.587  1.00  0.00    -0.267 OA
BRANCH  26  29
HETATM   29  C   UNL     1       4.825  26.773  50.056  1.00  0.00     0.126 C 
BRANCH  29  30
HETATM   30  C   UNL     1       5.347  28.067  49.416  1.00  0.00    -0.005 C 
HETATM   31  C   UNL     1       4.502  28.473  48.207  1.00  0.00     0.011 C 
HETATM   32  C   UNL     1       5.357  29.194  50.450  1.00  0.00     0.011 C 
ENDBRANCH  29  30
ENDBRANCH  26  29
ENDBRANCH   4  25
BRANCH   6  33
HETATM   33  C   UNL     1       8.719  22.467  54.045  1.00  0.00     0.088 C 
HETATM   34  C   UNL     1       8.521  21.525  55.236  1.00  0.00     0.026 C 
HETATM   35  C   UNL     1       8.796  20.154  54.635  1.00  0.00     0.002 C 
HETATM   36  C   UNL     1       8.100  20.221  53.285  1.00  0.00     0.002 C 
HETATM   37  C   UNL     1       8.309  21.654  52.804  1.00  0.00     0.026 C 
ENDBRANCH   6  33
TORSDOF 8
ENDMDL
MODEL 7
REMARK VINA RESULT:      -8.8      2.985     10.180
REMARK  8 active torsions:
REMARK  status: ('A' for Active; 'I' for Inactive)
REMARK    1  A    between atoms: C_2  and  O_3 
REMARK    2  A    between atoms: O_3  and  C_4 
REMARK    3  A    between atoms: C_5  and  N_6 
REMARK       I    between atoms: N_9  and  C_10 
REMARK    4  A    between atoms: C_10  and  C_11 
REMARK    5  A    between atoms: C_14  and  C_15 
REMARK       I    between atoms: C_15  and  N_16 
REMARK    6  A    between atoms: N_16  and  C_17 
REMARK    7  A    between atoms: C_17  and  C_18 
REMARK    8  A    between atoms: N_23  and  C_24 
ROOT
HETATM    1  C   UNL     1       6.071  28.886  56.081  1.00  0.00     0.098 A 
HETATM    2  C   UNL     1       6.054  27.394  56.028  1.00  0.00     0.206 A 
HETATM    3  O   UNL     1       5.036  26.769  55.732  1.00  0.00    -0.286 OA
HETATM    4  C   UNL     1       7.311  26.673  56.381  1.00  0.00     0.098 A 
HETATM    5  C   UNL     1       8.335  27.415  56.839  1.00  0.00     0.112 A 
HETATM    6  N   UNL     1       8.339  28.804  56.956  1.00  0.00    -0.360 N 
HETATM    7  C   UNL     1       7.208  29.469  56.494  1.00  0.00     0.112 A 
ENDROOT
BRANCH   1   8
HETATM    8  C   UNL     1       4.920  29.679  55.573  1.00  0.00     0.259 C 
HETATM    9  N   UNL     1       3.915  30.073  56.455  1.00  0.00    -0.346 N 
HETATM   10  C   UNL     1       4.077  30.323  57.888  1.00  0.00     0.141 C 
HETATM   11  C   UNL     1       2.800  30.849  55.908  1.00  0.00     0.141 C 
HETATM   12  C   UNL     1       4.404  31.821  58.121  1.00  0.00     0.115 C 
HETATM   13  N   UNL     1       3.339  32.690  57.538  1.00  0.00    -0.278 NA
HETATM   14  C   UNL     1       3.038  32.359  56.110  1.00  0.00     0.115 C 
HETATM   15  O   UNL     1       4.871  29.939  54.372  1.00  0.00    -0.267 OA
BRANCH  13  16
HETATM   16  C   UNL     1       3.478  34.068  57.853  1.00  0.00     0.044 A 
HETATM   17  C   UNL     1       2.764  34.696  58.902  1.00  0.00     0.090 A 
HETATM   18  C   UNL     1       2.950  36.047  59.235  1.00  0.00     0.038 A 
HETATM   19  C   UNL     1       3.808  36.842  58.489  1.00  0.00     0.003 A 
HETATM   20  C   UNL     1       4.484  36.280  57.415  1.00  0.00     0.002 A 
HETATM   21  C   UNL     1       4.320  34.922  57.107  1.00  0.00     0.026 A 
BRANCH  17  22
HETATM   22  O   UNL     1       1.838  34.047  59.685  1.00  0.00    -0.350 OA
BRANCH  22  23
HETATM   23  C   UNL     1       1.255  34.944  60.638  1.00  0.00     0.171 C 
HETATM   24  C   UNL     1      -0.249  34.734  60.595  1.00  0.00     0.034 C 
ENDBRANCH  22  23
ENDBRANCH  17  22
ENDBRANCH  13  16
ENDBRANCH   1   8
BRANCH   4  25
HETATM   25  C   UNL     1       7.509  25.200  56.271  1.00  0.00     0.257 C 
HETATM   26  N   UNL     1       7.022  24.621  55.128  1.00  0.00    -0.356 N 
HETATM   27  H   UNL     1       6.494  25.200  54.475  1.00  0.00     0.162 HD
HETATM   28  O   UNL     1       8.092  24.563  57.146  1.00  0.00    -0.267 OA
BRANCH  26  29
HETATM   29  C   UNL     1       7.187  23.213  54.835  1.00  0.00     0.126 C 
BRANCH  29  30
HETATM   30  C   UNL     1       8.161  22.954  53.678  1.00  0.00    -0.005 C 
HETATM   31  C   UNL     1       7.975  21.552  53.094  1.00  0.00     0.011 C 
HETATM   32  C   UNL     1       7.964  24.006  52.585  1.00  0.00     0.011 C 
ENDBRANCH  29  30
ENDBRANCH  26  29
ENDBRANCH   4  25
BRANCH   6  33
HETATM   33  C   UNL     1       9.384  29.453  57.784  1.00  0.00     0.088 C 
HETATM   34  C   UNL     1      10.367  30.362  57.041  1.00  0.00     0.026 C 
HETATM   35  C   UNL     1      10.828  31.324  58.127  1.00  0.00     0.002 C 
HETATM   36  C   UNL     1       9.544  31.639  58.880  1.00  0.00     0.002 C 
HETATM   37  C   UNL     1       8.757  30.331  58.881  1.00  0.00     0.026 C 
ENDBRANCH   6  33
TORSDOF 8
ENDMDL
MODEL 8
REMARK VINA RESULT:      -8.6      3.131      9.383
REMARK  8 active torsions:
REMARK  status: ('A' for Active; 'I' for Inactive)
REMARK    1  A    between atoms: C_2  and  O_3 
REMARK    2  A    between atoms: O_3  and  C_4 
REMARK    3  A    between atoms: C_5  and  N_6 
REMARK       I    between atoms: N_9  and  C_10 
REMARK    4  A    between atoms: C_10  and  C_11 
REMARK    5  A    between atoms: C_14  and  C_15 
REMARK       I    between atoms: C_15  and  N_16 
REMARK    6  A    between atoms: N_16  and  C_17 
REMARK    7  A    between atoms: C_17  and  C_18 
REMARK    8  A    between atoms: N_23  and  C_24 
ROOT
HETATM    1  C   UNL     1       5.055  28.564  53.408  1.00  0.00     0.098 A 
HETATM    2  C   UNL     1       4.390  28.421  52.079  1.00  0.00     0.206 A 
HETATM    3  O   UNL     1       3.328  28.986  51.823  1.00  0.00    -0.286 OA
HETATM    4  C   UNL     1       5.041  27.537  51.069  1.00  0.00     0.098 A 
HETATM    5  C   UNL     1       6.116  26.836  51.472  1.00  0.00     0.112 A 
HETATM    6  N   UNL     1       6.706  26.911  52.733  1.00  0.00    -0.360 N 
HETATM    7  C   UNL     1       6.167  27.842  53.615  1.00  0.00     0.112 A 
ENDROOT
BRANCH   1   8
HETATM    8  C   UNL     1       4.568  29.561  54.398  1.00  0.00     0.259 C 
HETATM    9  N   UNL     1       4.554  29.234  55.753  1.00  0.00    -0.346 N 
HETATM   10  C   UNL     1       5.456  28.293  56.420  1.00  0.00     0.141 C 
HETATM   11  C   UNL     1       4.064  30.247  56.690  1.00  0.00     0.141 C 
HETATM   12  C   UNL     1       6.694  29.054  56.961  1.00  0.00     0.115 C 
HETATM   13  N   UNL     1       6.277  30.150  57.885  1.00  0.00    -0.278 NA
HETATM   14  C   UNL     1       5.238  31.047  57.289  1.00  0.00     0.115 C 
HETATM   15  O   UNL     1       4.158  30.645  53.986  1.00  0.00    -0.267 OA
BRANCH  13  16
HETATM   16  C   UNL     1       7.356  30.789  58.553  1.00  0.00     0.044 A 
HETATM   17  C   UNL     1       7.170  31.740  59.585  1.00  0.00     0.090 A 
HETATM   18  C   UNL     1       8.246  32.324  60.271  1.00  0.00     0.038 A 
HETATM   19  C   UNL     1       9.552  32.032  59.908  1.00  0.00     0.003 A 
HETATM   20  C   UNL     1       9.779  31.148  58.863  1.00  0.00     0.002 A 
HETATM   21  C   UNL     1       8.702  30.542  58.202  1.00  0.00     0.026 A 
BRANCH  17  22
HETATM   22  O   UNL     1       5.934  32.170  60.008  1.00  0.00    -0.350 OA
BRANCH  22  23
HETATM   23  C   UNL     1       5.925  32.390  61.424  1.00  0.00     0.171 C 
HETATM   24  C   UNL     1       4.915  33.489  61.705  1.00  0.00     0.034 C 
ENDBRANCH  22  23
ENDBRANCH  17  22
ENDBRANCH  13  16
ENDBRANCH   1   8
BRANCH   4  25
HETATM   25  C   UNL     1       4.585  27.369  49.660  1.00  0.00     0.257 C 
HETATM   26  N   UNL     1       3.353  26.788  49.504  1.00  0.00    -0.356 N 
HETATM   27  H   UNL     1       2.870  26.439  50.331  1.00  0.00     0.162 HD
HETATM   28  O   UNL     1       5.268  27.751  48.713  1.00  0.00    -0.267 OA
BRANCH  26  29
HETATM   29  C   UNL     1       2.734  26.609  48.207  1.00  0.00     0.126 C 
BRANCH  29  30
HETATM   30  C   UNL     1       1.390  27.337  48.081  1.00  0.00    -0.005 C 
HETATM   31  C   UNL     1       1.487  28.780  48.579  1.00  0.00     0.011 C 
HETATM   32  C   UNL     1       0.919  27.317  46.626  1.00  0.00     0.011 C 
ENDBRANCH  29  30
ENDBRANCH  26  29
ENDBRANCH   4  25
BRANCH   6  33
HETATM   33  C   UNL     1       7.655  25.850  53.147  1.00  0.00     0.088 C 
HETATM   34  C   UNL     1       7.322  25.119  54.451  1.00  0.00     0.026 C 
HETATM   35  C   UNL     1       8.006  23.771  54.270  1.00  0.00     0.002 C 
HETATM   36  C   UNL     1       7.708  23.422  52.820  1.00  0.00     0.002 C 
HETATM   37  C   UNL     1       7.763  24.752  52.074  1.00  0.00     0.026 C 
ENDBRANCH   6  33
TORSDOF 8
ENDMDL
MODEL 9
REMARK VINA RESULT:      -8.6      1.986      5.742
REMARK  8 active torsions:
REMARK  status: ('A' for Active; 'I' for Inactive)
REMARK    1  A    between atoms: C_2  and  O_3 
REMARK    2  A    between atoms: O_3  and  C_4 
REMARK    3  A    between atoms: C_5  and  N_6 
REMARK       I    between atoms: N_9  and  C_10 
REMARK    4  A    between atoms: C_10  and  C_11 
REMARK    5  A    between atoms: C_14  and  C_15 
REMARK       I    between atoms: C_15  and  N_16 
REMARK    6  A    between atoms: N_16  and  C_17 
REMARK    7  A    between atoms: C_17  and  C_18 
REMARK    8  A    between atoms: N_23  and  C_24 
ROOT
HETATM    1  C   UNL     1       6.072  28.832  56.547  1.00  0.00     0.098 A 
HETATM    2  C   UNL     1       5.753  28.967  55.094  1.00  0.00     0.206 A 
HETATM    3  O   UNL     1       6.423  28.403  54.230  1.00  0.00    -0.286 OA
HETATM    4  C   UNL     1       4.606  29.842  54.714  1.00  0.00     0.098 A 
HETATM    5  C   UNL     1       4.018  30.543  55.700  1.00  0.00     0.112 A 
HETATM    6  N   UNL     1       4.351  30.475  57.052  1.00  0.00    -0.360 N 
HETATM    7  C   UNL     1       5.331  29.552  57.403  1.00  0.00     0.112 A 
ENDROOT
BRANCH   1   8
HETATM    8  C   UNL     1       7.079  27.843  57.015  1.00  0.00     0.259 C 
HETATM    9  N   UNL     1       6.670  26.556  57.356  1.00  0.00    -0.346 N 
HETATM   10  C   UNL     1       5.518  25.843  56.800  1.00  0.00     0.141 C 
HETATM   11  C   UNL     1       7.698  25.617  57.815  1.00  0.00     0.141 C 
HETATM   12  C   UNL     1       5.963  25.013  55.568  1.00  0.00     0.115 C 
HETATM   13  N   UNL     1       7.057  24.066  55.938  1.00  0.00    -0.278 NA
HETATM   14  C   UNL     1       8.190  24.738  56.648  1.00  0.00     0.115 C 
HETATM   15  O   UNL     1       8.251  28.204  57.120  1.00  0.00    -0.267 OA
BRANCH  13  16
HETATM   16  C   UNL     1       7.408  23.154  54.907  1.00  0.00     0.044 A 
HETATM   17  C   UNL     1       7.497  21.756  55.112  1.00  0.00     0.090 A 
HETATM   18  C   UNL     1       7.794  20.861  54.071  1.00  0.00     0.038 A 
HETATM   19  C   UNL     1       8.080  21.334  52.799  1.00  0.00     0.003 A 
HETATM   20  C   UNL     1       8.061  22.703  52.569  1.00  0.00     0.002 A 
HETATM   21  C   UNL     1       7.732  23.590  53.603  1.00  0.00     0.026 A 
BRANCH  17  22
HETATM   22  O   UNL     1       7.298  21.152  56.331  1.00  0.00    -0.350 OA
BRANCH  22  23
HETATM   23  C   UNL     1       8.516  21.104  57.084  1.00  0.00     0.171 C 
HETATM   24  C   UNL     1       9.495  20.241  56.306  1.00  0.00     0.034 C 
ENDBRANCH  22  23
ENDBRANCH  17  22
ENDBRANCH  13  16
ENDBRANCH   1   8
BRANCH   4  25
HETATM   25  C   UNL     1       4.076  30.001  53.330  1.00  0.00     0.257 C 
HETATM   26  N   UNL     1       3.773  28.835  52.675  1.00  0.00    -0.356 N 
HETATM   27  H   UNL     1       4.000  27.949  53.128  1.00  0.00     0.162 HD
HETATM   28  O   UNL     1       3.905  31.110  52.830  1.00  0.00    -0.267 OA
BRANCH  26  29
HETATM   29  C   UNL     1       3.191  28.813  51.350  1.00  0.00     0.126 C 
BRANCH  29  30
HETATM   30  C   UNL     1       4.177  28.345  50.272  1.00  0.00    -0.005 C 
HETATM   31  C   UNL     1       5.187  27.342  50.836  1.00  0.00     0.011 C 
HETATM   32  C   UNL     1       3.415  27.718  49.103  1.00  0.00     0.011 C 
ENDBRANCH  29  30
ENDBRANCH  26  29
ENDBRANCH   4  25
BRANCH   6  33
HETATM   33  C   UNL     1       3.866  31.537  57.966  1.00  0.00     0.088 C 
HETATM   34  C   UNL     1       3.350  31.069  59.329  1.00  0.00     0.026 C 
HETATM   35  C   UNL     1       3.556  32.294  60.209  1.00  0.00     0.002 C 
HETATM   36  C   UNL     1       4.921  32.808  59.776  1.00  0.00     0.002 C 
HETATM   37  C   UNL     1       4.978  32.556  58.272  1.00  0.00     0.026 C 
ENDBRANCH   6  33
TORSDOF 8
ENDMDL
MODEL 10
REMARK VINA RESULT:      -8.6      2.535      5.936
REMARK  8 active torsions:
REMARK  status: ('A' for Active; 'I' for Inactive)
REMARK    1  A    between atoms: C_2  and  O_3 
REMARK    2  A    between atoms: O_3  and  C_4 
REMARK    3  A    between atoms: C_5  and  N_6 
REMARK       I    between atoms: N_9  and  C_10 
REMARK    4  A    between atoms: C_10  and  C_11 
REMARK    5  A    between atoms: C_14  and  C_15 
REMARK       I    between atoms: C_15  and  N_16 
REMARK    6  A    between atoms: N_16  and  C_17 
REMARK    7  A    between atoms: C_17  and  C_18 
REMARK    8  A    between atoms: N_23  and  C_24 
ROOT
HETATM    1  C   UNL     1       5.769  28.901  55.074  1.00  0.00     0.098 A 
HETATM    2  C   UNL     1       5.462  28.615  53.641  1.00  0.00     0.206 A 
HETATM    3  O   UNL     1       6.230  27.967  52.932  1.00  0.00    -0.286 OA
HETATM    4  C   UNL     1       4.199  29.175  53.078  1.00  0.00     0.098 A 
HETATM    5  C   UNL     1       3.488  29.998  53.869  1.00  0.00     0.112 A 
HETATM    6  N   UNL     1       3.800  30.324  55.187  1.00  0.00    -0.360 N 
HETATM    7  C   UNL     1       4.907  29.686  55.738  1.00  0.00     0.112 A 
ENDROOT
BRANCH   1   8
HETATM    8  C   UNL     1       6.911  28.234  55.754  1.00  0.00     0.259 C 
HETATM    9  N   UNL     1       6.666  27.178  56.630  1.00  0.00    -0.346 N 
HETATM   10  C   UNL     1       5.535  26.251  56.566  1.00  0.00     0.141 C 
HETATM   11  C   UNL     1       7.822  26.553  57.279  1.00  0.00     0.141 C 
HETATM   12  C   UNL     1       5.923  25.013  55.716  1.00  0.00     0.115 C 
HETATM   13  N   UNL     1       7.136  24.348  56.278  1.00  0.00    -0.278 NA
HETATM   14  C   UNL     1       8.269  25.299  56.501  1.00  0.00     0.115 C 
HETATM   15  O   UNL     1       8.047  28.657  55.546  1.00  0.00    -0.267 OA
BRANCH  13  16
HETATM   16  C   UNL     1       7.460  23.112  55.657  1.00  0.00     0.044 A 
HETATM   17  C   UNL     1       7.314  22.886  54.266  1.00  0.00     0.090 A 
HETATM   18  C   UNL     1       7.688  21.678  53.658  1.00  0.00     0.038 A 
HETATM   19  C   UNL     1       8.160  20.622  54.425  1.00  0.00     0.003 A 
HETATM   20  C   UNL     1       8.264  20.782  55.799  1.00  0.00     0.002 A 
HETATM   21  C   UNL     1       7.920  22.002  56.398  1.00  0.00     0.026 A 
BRANCH  17  22
HETATM   22  O   UNL     1       6.804  23.820  53.394  1.00  0.00    -0.350 OA
BRANCH  22  23
HETATM   23  C   UNL     1       7.744  24.116  52.354  1.00  0.00     0.171 C 
HETATM   24  C   UNL     1       8.209  25.547  52.559  1.00  0.00     0.034 C 
ENDBRANCH  22  23
ENDBRANCH  17  22
ENDBRANCH  13  16
ENDBRANCH   1   8
BRANCH   4  25
HETATM   25  C   UNL     1       3.678  28.896  51.709  1.00  0.00     0.257 C 
HETATM   26  N   UNL     1       4.627  28.611  50.762  1.00  0.00    -0.356 N 
HETATM   27  H   UNL     1       5.611  28.685  51.020  1.00  0.00     0.162 HD
HETATM   28  O   UNL     1       2.473  28.903  51.466  1.00  0.00    -0.267 OA
BRANCH  26  29
HETATM   29  C   UNL     1       4.287  28.257  49.400  1.00  0.00     0.126 C 
BRANCH  29  30
HETATM   30  C   UNL     1       4.592  26.789  49.072  1.00  0.00    -0.005 C 
HETATM   31  C   UNL     1       4.955  25.999  50.330  1.00  0.00     0.011 C 
HETATM   32  C   UNL     1       3.387  26.147  48.381  1.00  0.00     0.011 C 
ENDBRANCH  29  30
ENDBRANCH  26  29
ENDBRANCH   4  25
BRANCH   6  33
HETATM   33  C   UNL     1       3.135  31.491  55.816  1.00  0.00     0.088 C 
HETATM   34  C   UNL     1       3.796  32.043  57.082  1.00  0.00     0.026 C 
HETATM   35  C   UNL     1       3.344  33.496  57.096  1.00  0.00     0.002 C 
HETATM   36  C   UNL     1       3.466  33.912  55.638  1.00  0.00     0.002 C 
HETATM   37  C   UNL     1       3.056  32.678  54.840  1.00  0.00     0.026 C 
ENDBRANCH   6  33
TORSDOF 8
ENDMDL
