MODEL 1
REMARK VINA RESULT:      -9.9      0.000      0.000
REMARK  5 active torsions:
REMARK  status: ('A' for Active; 'I' for Inactive)
REMARK    1  A    between atoms: O_2  and  C_3 
REMARK    2  A    between atoms: C_4  and  O_5 
REMARK    3  A    between atoms: C_8  and  C_9 
REMARK    4  A    between atoms: N_10  and  N_11 
REMARK       I    between atoms: N_11  and  C_12 
REMARK    5  A    between atoms: C_12  and  C_13 
ROOT
HETATM    1  N   UNL     1       7.721  28.467  58.113  1.00  0.00    -0.242 N 
HETATM    2  C   UNL     1       8.419  29.663  58.193  1.00  0.00     0.292 C 
HETATM    3  O   UNL     1       9.516  29.877  57.682  1.00  0.00    -0.264 OA
HETATM    4  H   UNL     1       6.816  28.423  58.576  1.00  0.00     0.192 HD
ENDROOT
BRANCH   2   5
HETATM    5  C   UNL     1       7.697  30.686  58.969  1.00  0.00     0.154 A 
HETATM    6  N   UNL     1       6.669  31.397  58.446  1.00  0.00    -0.168 NA
HETATM    7  N   UNL     1       6.311  32.240  59.442  1.00  0.00    -0.276 N 
HETATM    8  H   UNL     1       5.546  32.884  59.277  1.00  0.00     0.189 HD
HETATM    9  C   UNL     1       7.057  32.099  60.571  1.00  0.00     0.069 A 
HETATM   10  C   UNL     1       7.952  31.087  60.304  1.00  0.00     0.007 A 
HETATM   11  C   UNL     1       6.988  32.820  61.830  1.00  0.00    -0.001 A 
HETATM   12  C   UNL     1       8.965  30.655  61.305  1.00  0.00     0.048 C 
HETATM   13  C   UNL     1       8.489  30.968  62.744  1.00  0.00     0.044 C 
HETATM   14  C   UNL     1       7.749  32.291  62.903  1.00  0.00    -0.045 A 
HETATM   15  C   UNL     1       7.740  32.943  64.142  1.00  0.00     0.008 A 
HETATM   16  C   UNL     1       7.009  34.119  64.308  1.00  0.00     0.001 A 
HETATM   17  C   UNL     1       6.271  34.643  63.246  1.00  0.00     0.001 A 
HETATM   18  C   UNL     1       6.256  33.997  62.009  1.00  0.00     0.014 A 
ENDBRANCH   2   5
BRANCH   1  19
HETATM   19  N   UNL     1       8.219  27.423  57.396  1.00  0.00    -0.184 NA
HETATM   20  C   UNL     1       7.406  26.445  57.164  1.00  0.00     0.150 C 
BRANCH  20  21
HETATM   21  C   UNL     1       7.842  25.268  56.383  1.00  0.00    -0.014 A 
HETATM   22  C   UNL     1       8.422  24.171  57.032  1.00  0.00     0.016 A 
HETATM   23  C   UNL     1       8.842  23.069  56.292  1.00  0.00     0.040 A 
HETATM   24  C   UNL     1       8.669  23.075  54.915  1.00  0.00     0.099 A 
HETATM   25  C   UNL     1       8.079  24.159  54.249  1.00  0.00     0.102 A 
HETATM   26  C   UNL     1       7.669  25.268  54.991  1.00  0.00     0.052 A 
BRANCH  24  27
HETATM   27  O   UNL     1       9.089  21.980  54.208  1.00  0.00    -0.358 OA
HETATM   28  H   UNL     1      10.063  22.042  54.196  1.00  0.00     0.218 HD
ENDBRANCH  24  27
BRANCH  25  29
HETATM   29  O   UNL     1       7.973  24.009  52.890  1.00  0.00    -0.353 OA
HETATM   30  C   UNL     1       7.630  25.169  52.142  1.00  0.00     0.210 C 
ENDBRANCH  25  29
ENDBRANCH  20  21
ENDBRANCH   1  19
TORSDOF 5
ENDMDL
MODEL 2
REMARK VINA RESULT:      -9.9      0.728      1.786
REMARK  5 active torsions:
REMARK  status: ('A' for Active; 'I' for Inactive)
REMARK    1  A    between atoms: O_2  and  C_3 
REMARK    2  A    between atoms: C_4  and  O_5 
REMARK    3  A    between atoms: C_8  and  C_9 
REMARK    4  A    between atoms: N_10  and  N_11 
REMARK       I    between atoms: N_11  and  C_12 
REMARK    5  A    between atoms: C_12  and  C_13 
ROOT
HETATM    1  N   UNL     1       7.539  28.276  57.730  1.00  0.00    -0.242 N 
HETATM    2  C   UNL     1       8.306  29.399  58.002  1.00  0.00     0.292 C 
HETATM    3  O   UNL     1       9.458  29.579  57.615  1.00  0.00    -0.264 OA
HETATM    4  H   UNL     1       6.593  28.255  58.104  1.00  0.00     0.192 HD
ENDROOT
BRANCH   2   5
HETATM    5  C   UNL     1       7.584  30.390  58.818  1.00  0.00     0.154 A 
HETATM    6  N   UNL     1       6.460  31.007  58.379  1.00  0.00    -0.168 NA
HETATM    7  N   UNL     1       6.134  31.852  59.384  1.00  0.00    -0.276 N 
HETATM    8  H   UNL     1       5.310  32.433  59.277  1.00  0.00     0.189 HD
HETATM    9  C   UNL     1       6.992  31.803  60.438  1.00  0.00     0.069 A 
HETATM   10  C   UNL     1       7.933  30.852  60.112  1.00  0.00     0.007 A 
HETATM   11  C   UNL     1       6.988  32.557  61.680  1.00  0.00    -0.001 A 
HETATM   12  C   UNL     1       9.065  30.528  61.021  1.00  0.00     0.048 C 
HETATM   13  C   UNL     1       8.705  30.850  62.490  1.00  0.00     0.044 C 
HETATM   14  C   UNL     1       7.884  32.119  62.687  1.00  0.00    -0.045 A 
HETATM   15  C   UNL     1       7.943  32.808  63.905  1.00  0.00     0.008 A 
HETATM   16  C   UNL     1       7.143  33.932  64.112  1.00  0.00     0.001 A 
HETATM   17  C   UNL     1       6.270  34.366  63.114  1.00  0.00     0.001 A 
HETATM   18  C   UNL     1       6.188  33.681  61.900  1.00  0.00     0.014 A 
ENDBRANCH   2   5
BRANCH   1  19
HETATM   19  N   UNL     1       8.031  27.276  56.949  1.00  0.00    -0.184 NA
HETATM   20  C   UNL     1       7.204  26.333  56.635  1.00  0.00     0.150 C 
BRANCH  20  21
HETATM   21  C   UNL     1       7.633  25.205  55.780  1.00  0.00    -0.014 A 
HETATM   22  C   UNL     1       7.502  25.291  54.388  1.00  0.00     0.016 A 
HETATM   23  C   UNL     1       7.897  24.222  53.587  1.00  0.00     0.040 A 
HETATM   24  C   UNL     1       8.424  23.087  54.187  1.00  0.00     0.099 A 
HETATM   25  C   UNL     1       8.573  22.988  55.577  1.00  0.00     0.102 A 
HETATM   26  C   UNL     1       8.167  24.055  56.380  1.00  0.00     0.052 A 
BRANCH  24  27
HETATM   27  O   UNL     1       8.805  22.050  53.379  1.00  0.00    -0.358 OA
HETATM   28  H   UNL     1       8.002  21.507  53.263  1.00  0.00     0.218 HD
ENDBRANCH  24  27
BRANCH  25  29
HETATM   29  O   UNL     1       9.115  21.806  56.014  1.00  0.00    -0.353 OA
HETATM   30  C   UNL     1       8.314  21.018  56.886  1.00  0.00     0.210 C 
ENDBRANCH  25  29
ENDBRANCH  20  21
ENDBRANCH   1  19
TORSDOF 5
ENDMDL
MODEL 3
REMARK VINA RESULT:      -9.5      2.692     10.242
REMARK  5 active torsions:
REMARK  status: ('A' for Active; 'I' for Inactive)
REMARK    1  A    between atoms: O_2  and  C_3 
REMARK    2  A    between atoms: C_4  and  O_5 
REMARK    3  A    between atoms: C_8  and  C_9 
REMARK    4  A    between atoms: N_10  and  N_11 
REMARK       I    between atoms: N_11  and  C_12 
REMARK    5  A    between atoms: C_12  and  C_13 
ROOT
HETATM    1  N   UNL     1       7.415  27.894  56.656  1.00  0.00    -0.242 N 
HETATM    2  C   UNL     1       6.738  27.751  55.454  1.00  0.00     0.292 C 
HETATM    3  O   UNL     1       5.854  28.501  55.046  1.00  0.00    -0.264 OA
HETATM    4  H   UNL     1       8.132  27.207  56.873  1.00  0.00     0.192 HD
ENDROOT
BRANCH   2   5
HETATM    5  C   UNL     1       7.196  26.581  54.685  1.00  0.00     0.154 A 
HETATM    6  N   UNL     1       7.605  26.678  53.397  1.00  0.00    -0.168 NA
HETATM    7  N   UNL     1       7.902  25.405  53.048  1.00  0.00    -0.276 N 
HETATM    8  H   UNL     1       8.235  25.228  52.107  1.00  0.00     0.189 HD
HETATM    9  C   UNL     1       7.704  24.505  54.049  1.00  0.00     0.069 A 
HETATM   10  C   UNL     1       7.265  25.237  55.130  1.00  0.00     0.007 A 
HETATM   11  C   UNL     1       7.893  23.065  54.058  1.00  0.00    -0.001 A 
HETATM   12  C   UNL     1       6.917  24.589  56.423  1.00  0.00     0.048 C 
HETATM   13  C   UNL     1       7.677  23.253  56.596  1.00  0.00     0.044 C 
HETATM   14  C   UNL     1       7.822  22.427  55.322  1.00  0.00    -0.045 A 
HETATM   15  C   UNL     1       7.981  21.038  55.404  1.00  0.00     0.008 A 
HETATM   16  C   UNL     1       8.180  20.288  54.245  1.00  0.00     0.001 A 
HETATM   17  C   UNL     1       8.238  20.918  53.002  1.00  0.00     0.001 A 
HETATM   18  C   UNL     1       8.097  22.304  52.904  1.00  0.00     0.014 A 
ENDBRANCH   2   5
BRANCH   1  19
HETATM   19  N   UNL     1       7.151  28.948  57.475  1.00  0.00    -0.184 NA
HETATM   20  C   UNL     1       8.070  29.254  58.332  1.00  0.00     0.150 C 
BRANCH  20  21
HETATM   21  C   UNL     1       7.891  30.391  59.260  1.00  0.00    -0.014 A 
HETATM   22  C   UNL     1       8.820  30.613  60.284  1.00  0.00     0.016 A 
HETATM   23  C   UNL     1       8.642  31.678  61.164  1.00  0.00     0.040 A 
HETATM   24  C   UNL     1       7.542  32.509  61.003  1.00  0.00     0.099 A 
HETATM   25  C   UNL     1       6.609  32.309  59.977  1.00  0.00     0.102 A 
HETATM   26  C   UNL     1       6.782  31.235  59.103  1.00  0.00     0.052 A 
BRANCH  24  27
HETATM   27  O   UNL     1       7.388  33.549  61.880  1.00  0.00    -0.358 OA
HETATM   28  H   UNL     1       8.099  34.180  61.656  1.00  0.00     0.218 HD
ENDBRANCH  24  27
BRANCH  25  29
HETATM   29  O   UNL     1       5.583  33.220  59.948  1.00  0.00    -0.353 OA
HETATM   30  C   UNL     1       4.294  32.745  60.318  1.00  0.00     0.210 C 
ENDBRANCH  25  29
ENDBRANCH  20  21
ENDBRANCH   1  19
TORSDOF 5
ENDMDL
MODEL 4
REMARK VINA RESULT:      -9.4      7.505     10.725
REMARK  5 active torsions:
REMARK  status: ('A' for Active; 'I' for Inactive)
REMARK    1  A    between atoms: O_2  and  C_3 
REMARK    2  A    between atoms: C_4  and  O_5 
REMARK    3  A    between atoms: C_8  and  C_9 
REMARK    4  A    between atoms: N_10  and  N_11 
REMARK       I    between atoms: N_11  and  C_12 
REMARK    5  A    between atoms: C_12  and  C_13 
ROOT
HETATM    1  N   UNL     1       5.056  26.440  52.323  1.00  0.00    -0.242 N 
HETATM    2  C   UNL     1       6.116  26.773  53.154  1.00  0.00     0.292 C 
HETATM    3  O   UNL     1       6.753  27.822  53.103  1.00  0.00    -0.264 OA
HETATM    4  H   UNL     1       4.607  25.541  52.476  1.00  0.00     0.192 HD
ENDROOT
BRANCH   2   5
HETATM    5  C   UNL     1       6.411  25.718  54.140  1.00  0.00     0.154 A 
HETATM    6  N   UNL     1       6.084  25.841  55.449  1.00  0.00    -0.168 NA
HETATM    7  N   UNL     1       6.549  24.702  56.013  1.00  0.00    -0.276 N 
HETATM    8  H   UNL     1       6.417  24.569  57.009  1.00  0.00     0.189 HD
HETATM    9  C   UNL     1       7.151  23.862  55.129  1.00  0.00     0.069 A 
HETATM   10  C   UNL     1       7.063  24.482  53.903  1.00  0.00     0.007 A 
HETATM   11  C   UNL     1       7.779  22.570  55.349  1.00  0.00    -0.001 A 
HETATM   12  C   UNL     1       7.639  23.871  52.674  1.00  0.00     0.048 C 
HETATM   13  C   UNL     1       7.722  22.333  52.808  1.00  0.00     0.044 C 
HETATM   14  C   UNL     1       8.118  21.828  54.191  1.00  0.00    -0.045 A 
HETATM   15  C   UNL     1       8.738  20.580  54.328  1.00  0.00     0.008 A 
HETATM   16  C   UNL     1       9.043  20.087  55.597  1.00  0.00     0.001 A 
HETATM   17  C   UNL     1       8.717  20.826  56.734  1.00  0.00     0.001 A 
HETATM   18  C   UNL     1       8.085  22.065  56.615  1.00  0.00     0.014 A 
ENDBRANCH   2   5
BRANCH   1  19
HETATM   19  N   UNL     1       4.617  27.319  51.381  1.00  0.00    -0.184 NA
HETATM   20  C   UNL     1       4.693  26.926  50.151  1.00  0.00     0.150 C 
BRANCH  20  21
HETATM   21  C   UNL     1       4.230  27.797  49.049  1.00  0.00    -0.014 A 
HETATM   22  C   UNL     1       5.126  28.673  48.425  1.00  0.00     0.016 A 
HETATM   23  C   UNL     1       4.685  29.500  47.395  1.00  0.00     0.040 A 
HETATM   24  C   UNL     1       3.356  29.435  47.000  1.00  0.00     0.099 A 
HETATM   25  C   UNL     1       2.448  28.556  47.605  1.00  0.00     0.102 A 
HETATM   26  C   UNL     1       2.888  27.735  48.644  1.00  0.00     0.052 A 
BRANCH  24  27
HETATM   27  O   UNL     1       2.945  30.258  45.985  1.00  0.00    -0.358 OA
HETATM   28  H   UNL     1       2.538  31.026  46.428  1.00  0.00     0.218 HD
ENDBRANCH  24  27
BRANCH  25  29
HETATM   29  O   UNL     1       1.175  28.606  47.097  1.00  0.00    -0.353 OA
HETATM   30  C   UNL     1       0.644  27.392  46.577  1.00  0.00     0.210 C 
ENDBRANCH  25  29
ENDBRANCH  20  21
ENDBRANCH   1  19
TORSDOF 5
ENDMDL
MODEL 5
REMARK VINA RESULT:      -9.4      3.229     10.288
REMARK  5 active torsions:
REMARK  status: ('A' for Active; 'I' for Inactive)
REMARK    1  A    between atoms: O_2  and  C_3 
REMARK    2  A    between atoms: C_4  and  O_5 
REMARK    3  A    between atoms: C_8  and  C_9 
REMARK    4  A    between atoms: N_10  and  N_11 
REMARK       I    between atoms: N_11  and  C_12 
REMARK    5  A    between atoms: C_12  and  C_13 
ROOT
HETATM    1  N   UNL     1       6.814  31.143  59.127  1.00  0.00    -0.242 N 
HETATM    2  C   UNL     1       7.595  30.091  58.671  1.00  0.00     0.292 C 
HETATM    3  O   UNL     1       8.585  29.644  59.246  1.00  0.00    -0.264 OA
HETATM    4  H   UNL     1       6.015  31.411  58.558  1.00  0.00     0.192 HD
ENDROOT
BRANCH   2   5
HETATM    5  C   UNL     1       7.108  29.539  57.395  1.00  0.00     0.154 A 
HETATM    6  N   UNL     1       6.554  30.318  56.435  1.00  0.00    -0.168 NA
HETATM    7  N   UNL     1       6.210  29.446  55.460  1.00  0.00    -0.276 N 
HETATM    8  H   UNL     1       5.768  29.808  54.623  1.00  0.00     0.189 HD
HETATM    9  C   UNL     1       6.520  28.153  55.750  1.00  0.00     0.069 A 
HETATM   10  C   UNL     1       7.120  28.181  56.989  1.00  0.00     0.007 A 
HETATM   11  C   UNL     1       6.300  26.945  54.975  1.00  0.00    -0.001 A 
HETATM   12  C   UNL     1       7.584  26.937  57.661  1.00  0.00     0.048 C 
HETATM   13  C   UNL     1       7.899  25.832  56.626  1.00  0.00     0.044 C 
HETATM   14  C   UNL     1       6.940  25.770  55.441  1.00  0.00    -0.045 A 
HETATM   15  C   UNL     1       6.761  24.565  54.750  1.00  0.00     0.008 A 
HETATM   16  C   UNL     1       5.936  24.520  53.626  1.00  0.00     0.001 A 
HETATM   17  C   UNL     1       5.298  25.677  53.177  1.00  0.00     0.001 A 
HETATM   18  C   UNL     1       5.479  26.889  53.845  1.00  0.00     0.014 A 
ENDBRANCH   2   5
BRANCH   1  19
HETATM   19  N   UNL     1       7.093  31.744  60.316  1.00  0.00    -0.184 NA
HETATM   20  C   UNL     1       6.145  31.743  61.195  1.00  0.00     0.150 C 
BRANCH  20  21
HETATM   21  C   UNL     1       6.346  32.358  62.525  1.00  0.00    -0.014 A 
HETATM   22  C   UNL     1       7.639  32.664  62.967  1.00  0.00     0.016 A 
HETATM   23  C   UNL     1       7.826  33.234  64.224  1.00  0.00     0.040 A 
HETATM   24  C   UNL     1       6.718  33.495  65.018  1.00  0.00     0.099 A 
HETATM   25  C   UNL     1       5.416  33.207  64.587  1.00  0.00     0.102 A 
HETATM   26  C   UNL     1       5.230  32.626  63.332  1.00  0.00     0.052 A 
BRANCH  24  27
HETATM   27  O   UNL     1       6.927  34.055  66.250  1.00  0.00    -0.358 OA
HETATM   28  H   UNL     1       7.640  33.525  66.654  1.00  0.00     0.218 HD
ENDBRANCH  24  27
BRANCH  25  29
HETATM   29  O   UNL     1       4.430  33.531  65.483  1.00  0.00    -0.353 OA
HETATM   30  C   UNL     1       3.560  34.597  65.121  1.00  0.00     0.210 C 
ENDBRANCH  25  29
ENDBRANCH  20  21
ENDBRANCH   1  19
TORSDOF 5
ENDMDL
MODEL 6
REMARK VINA RESULT:      -9.2      3.092     10.385
REMARK  5 active torsions:
REMARK  status: ('A' for Active; 'I' for Inactive)
REMARK    1  A    between atoms: O_2  and  C_3 
REMARK    2  A    between atoms: C_4  and  O_5 
REMARK    3  A    between atoms: C_8  and  C_9 
REMARK    4  A    between atoms: N_10  and  N_11 
REMARK       I    between atoms: N_11  and  C_12 
REMARK    5  A    between atoms: C_12  and  C_13 
ROOT
HETATM    1  N   UNL     1       6.039  27.617  54.946  1.00  0.00    -0.242 N 
HETATM    2  C   UNL     1       7.258  27.529  54.291  1.00  0.00     0.292 C 
HETATM    3  O   UNL     1       8.073  28.443  54.188  1.00  0.00    -0.264 OA
HETATM    4  H   UNL     1       5.458  26.782  54.965  1.00  0.00     0.192 HD
ENDROOT
BRANCH   2   5
HETATM    5  C   UNL     1       7.495  26.193  53.718  1.00  0.00     0.154 A 
HETATM    6  N   UNL     1       7.407  25.951  52.387  1.00  0.00    -0.168 NA
HETATM    7  N   UNL     1       7.652  24.626  52.276  1.00  0.00    -0.276 N 
HETATM    8  H   UNL     1       7.637  24.209  51.352  1.00  0.00     0.189 HD
HETATM    9  C   UNL     1       7.894  24.014  53.466  1.00  0.00     0.069 A 
HETATM   10  C   UNL     1       7.819  25.005  54.419  1.00  0.00     0.007 A 
HETATM   11  C   UNL     1       8.180  22.619  53.757  1.00  0.00    -0.001 A 
HETATM   12  C   UNL     1       8.007  24.714  55.866  1.00  0.00     0.048 C 
HETATM   13  C   UNL     1       8.876  23.450  56.068  1.00  0.00     0.044 C 
HETATM   14  C   UNL     1       8.616  22.325  55.073  1.00  0.00    -0.045 A 
HETATM   15  C   UNL     1       8.896  21.000  55.427  1.00  0.00     0.008 A 
HETATM   16  C   UNL     1       8.721  19.976  54.496  1.00  0.00     0.001 A 
HETATM   17  C   UNL     1       8.282  20.268  53.204  1.00  0.00     0.001 A 
HETATM   18  C   UNL     1       8.012  21.586  52.831  1.00  0.00     0.014 A 
ENDBRANCH   2   5
BRANCH   1  19
HETATM   19  N   UNL     1       5.674  28.768  55.575  1.00  0.00    -0.184 NA
HETATM   20  C   UNL     1       5.945  28.842  56.837  1.00  0.00     0.150 C 
BRANCH  20  21
HETATM   21  C   UNL     1       5.604  30.054  57.613  1.00  0.00    -0.014 A 
HETATM   22  C   UNL     1       4.266  30.444  57.751  1.00  0.00     0.016 A 
HETATM   23  C   UNL     1       3.949  31.592  58.473  1.00  0.00     0.040 A 
HETATM   24  C   UNL     1       4.972  32.329  59.053  1.00  0.00     0.099 A 
HETATM   25  C   UNL     1       6.316  31.947  58.935  1.00  0.00     0.102 A 
HETATM   26  C   UNL     1       6.634  30.803  58.202  1.00  0.00     0.052 A 
BRANCH  24  27
HETATM   27  O   UNL     1       4.636  33.453  59.758  1.00  0.00    -0.358 OA
HETATM   28  H   UNL     1       5.298  33.514  60.473  1.00  0.00     0.218 HD
ENDBRANCH  24  27
BRANCH  25  29
HETATM   29  O   UNL     1       7.206  32.775  59.571  1.00  0.00    -0.353 OA
HETATM   30  C   UNL     1       8.069  32.174  60.528  1.00  0.00     0.210 C 
ENDBRANCH  25  29
ENDBRANCH  20  21
ENDBRANCH   1  19
TORSDOF 5
ENDMDL
MODEL 7
REMARK VINA RESULT:      -9.1      3.700     10.260
REMARK  5 active torsions:
REMARK  status: ('A' for Active; 'I' for Inactive)
REMARK    1  A    between atoms: O_2  and  C_3 
REMARK    2  A    between atoms: C_4  and  O_5 
REMARK    3  A    between atoms: C_8  and  C_9 
REMARK    4  A    between atoms: N_10  and  N_11 
REMARK       I    between atoms: N_11  and  C_12 
REMARK    5  A    between atoms: C_12  and  C_13 
ROOT
HETATM    1  N   UNL     1       6.724  27.657  56.978  1.00  0.00    -0.242 N 
HETATM    2  C   UNL     1       8.025  27.209  57.150  1.00  0.00     0.292 C 
HETATM    3  O   UNL     1       8.998  27.929  57.367  1.00  0.00    -0.264 OA
HETATM    4  H   UNL     1       6.007  26.955  56.811  1.00  0.00     0.192 HD
ENDROOT
BRANCH   2   5
HETATM    5  C   UNL     1       8.135  25.744  57.052  1.00  0.00     0.154 A 
HETATM    6  N   UNL     1       8.402  24.965  58.128  1.00  0.00    -0.168 NA
HETATM    7  N   UNL     1       8.457  23.712  57.623  1.00  0.00    -0.276 N 
HETATM    8  H   UNL     1       8.650  22.944  58.257  1.00  0.00     0.189 HD
HETATM    9  C   UNL     1       8.237  23.654  56.282  1.00  0.00     0.069 A 
HETATM   10  C   UNL     1       8.006  24.951  55.884  1.00  0.00     0.007 A 
HETATM   11  C   UNL     1       8.228  22.509  55.387  1.00  0.00    -0.001 A 
HETATM   12  C   UNL     1       7.744  25.298  54.460  1.00  0.00     0.048 C 
HETATM   13  C   UNL     1       7.150  24.091  53.697  1.00  0.00     0.044 C 
HETATM   14  C   UNL     1       7.740  22.737  54.076  1.00  0.00    -0.045 A 
HETATM   15  C   UNL     1       7.715  21.682  53.156  1.00  0.00     0.008 A 
HETATM   16  C   UNL     1       8.194  20.424  53.522  1.00  0.00     0.001 A 
HETATM   17  C   UNL     1       8.684  20.207  54.810  1.00  0.00     0.001 A 
HETATM   18  C   UNL     1       8.701  21.244  55.744  1.00  0.00     0.014 A 
ENDBRANCH   2   5
BRANCH   1  19
HETATM   19  N   UNL     1       6.430  28.982  57.081  1.00  0.00    -0.184 NA
HETATM   20  C   UNL     1       5.196  29.278  57.331  1.00  0.00     0.150 C 
BRANCH  20  21
HETATM   21  C   UNL     1       4.772  30.687  57.476  1.00  0.00    -0.014 A 
HETATM   22  C   UNL     1       5.480  31.549  58.323  1.00  0.00     0.016 A 
HETATM   23  C   UNL     1       5.072  32.873  58.466  1.00  0.00     0.040 A 
HETATM   24  C   UNL     1       3.965  33.318  57.756  1.00  0.00     0.099 A 
HETATM   25  C   UNL     1       3.251  32.472  56.894  1.00  0.00     0.102 A 
HETATM   26  C   UNL     1       3.655  31.143  56.760  1.00  0.00     0.052 A 
BRANCH  24  27
HETATM   27  O   UNL     1       3.582  34.623  57.912  1.00  0.00    -0.358 OA
HETATM   28  H   UNL     1       2.654  34.655  57.610  1.00  0.00     0.218 HD
ENDBRANCH  24  27
BRANCH  25  29
HETATM   29  O   UNL     1       2.189  33.064  56.260  1.00  0.00    -0.353 OA
HETATM   30  C   UNL     1       1.889  32.604  54.948  1.00  0.00     0.210 C 
ENDBRANCH  25  29
ENDBRANCH  20  21
ENDBRANCH   1  19
TORSDOF 5
ENDMDL
MODEL 8
REMARK VINA RESULT:      -9.0      4.296     10.441
REMARK  5 active torsions:
REMARK  status: ('A' for Active; 'I' for Inactive)
REMARK    1  A    between atoms: O_2  and  C_3 
REMARK    2  A    between atoms: C_4  and  O_5 
REMARK    3  A    between atoms: C_8  and  C_9 
REMARK    4  A    between atoms: N_10  and  N_11 
REMARK       I    between atoms: N_11  and  C_12 
REMARK    5  A    between atoms: C_12  and  C_13 
ROOT
HETATM    1  N   UNL     1       5.685  27.400  53.666  1.00  0.00    -0.242 N 
HETATM    2  C   UNL     1       7.064  27.253  53.692  1.00  0.00     0.292 C 
HETATM    3  O   UNL     1       7.869  28.162  53.879  1.00  0.00    -0.264 OA
HETATM    4  H   UNL     1       5.129  26.563  53.509  1.00  0.00     0.192 HD
ENDROOT
BRANCH   2   5
HETATM    5  C   UNL     1       7.486  25.859  53.474  1.00  0.00     0.154 A 
HETATM    6  N   UNL     1       7.746  25.367  52.238  1.00  0.00    -0.168 NA
HETATM    7  N   UNL     1       8.059  24.070  52.458  1.00  0.00    -0.276 N 
HETATM    8  H   UNL     1       8.293  23.489  51.661  1.00  0.00     0.189 HD
HETATM    9  C   UNL     1       8.013  23.713  53.770  1.00  0.00     0.069 A 
HETATM   10  C   UNL     1       7.664  24.853  54.457  1.00  0.00     0.007 A 
HETATM   11  C   UNL     1       8.266  22.426  54.395  1.00  0.00    -0.001 A 
HETATM   12  C   UNL     1       7.490  24.854  55.935  1.00  0.00     0.048 C 
HETATM   13  C   UNL     1       8.323  23.728  56.591  1.00  0.00     0.044 C 
HETATM   14  C   UNL     1       8.364  22.419  55.809  1.00  0.00    -0.045 A 
HETATM   15  C   UNL     1       8.592  21.211  56.479  1.00  0.00     0.008 A 
HETATM   16  C   UNL     1       8.696  20.021  55.759  1.00  0.00     0.001 A 
HETATM   17  C   UNL     1       8.587  20.030  54.369  1.00  0.00     0.001 A 
HETATM   18  C   UNL     1       8.375  21.228  53.684  1.00  0.00     0.014 A 
ENDBRANCH   2   5
BRANCH   1  19
HETATM   19  N   UNL     1       5.117  28.616  53.895  1.00  0.00    -0.184 NA
HETATM   20  C   UNL     1       4.599  28.796  55.066  1.00  0.00     0.150 C 
BRANCH  20  21
HETATM   21  C   UNL     1       3.967  30.084  55.423  1.00  0.00    -0.014 A 
HETATM   22  C   UNL     1       3.424  30.900  54.422  1.00  0.00     0.016 A 
HETATM   23  C   UNL     1       2.840  32.118  54.761  1.00  0.00     0.040 A 
HETATM   24  C   UNL     1       2.800  32.500  56.096  1.00  0.00     0.099 A 
HETATM   25  C   UNL     1       3.327  31.690  57.111  1.00  0.00     0.102 A 
HETATM   26  C   UNL     1       3.922  30.475  56.770  1.00  0.00     0.052 A 
BRANCH  24  27
HETATM   27  O   UNL     1       2.220  33.701  56.404  1.00  0.00    -0.358 OA
HETATM   28  H   UNL     1       2.963  34.293  56.629  1.00  0.00     0.218 HD
ENDBRANCH  24  27
BRANCH  25  29
HETATM   29  O   UNL     1       3.204  32.204  58.377  1.00  0.00    -0.353 OA
HETATM   30  C   UNL     1       4.398  32.654  59.005  1.00  0.00     0.210 C 
ENDBRANCH  25  29
ENDBRANCH  20  21
ENDBRANCH   1  19
TORSDOF 5
ENDMDL
MODEL 9
REMARK VINA RESULT:      -8.8      7.178     10.612
REMARK  5 active torsions:
REMARK  status: ('A' for Active; 'I' for Inactive)
REMARK    1  A    between atoms: O_2  and  C_3 
REMARK    2  A    between atoms: C_4  and  O_5 
REMARK    3  A    between atoms: C_8  and  C_9 
REMARK    4  A    between atoms: N_10  and  N_11 
REMARK       I    between atoms: N_11  and  C_12 
REMARK    5  A    between atoms: C_12  and  C_13 
ROOT
HETATM    1  N   UNL     1       5.811  27.046  52.471  1.00  0.00    -0.242 N 
HETATM    2  C   UNL     1       6.673  27.223  53.543  1.00  0.00     0.292 C 
HETATM    3  O   UNL     1       7.275  28.263  53.801  1.00  0.00    -0.264 OA
HETATM    4  H   UNL     1       5.368  26.135  52.374  1.00  0.00     0.192 HD
ENDROOT
BRANCH   2   5
HETATM    5  C   UNL     1       6.798  26.012  54.372  1.00  0.00     0.154 A 
HETATM    6  N   UNL     1       6.371  25.969  55.657  1.00  0.00    -0.168 NA
HETATM    7  N   UNL     1       6.694  24.722  56.070  1.00  0.00    -0.276 N 
HETATM    8  H   UNL     1       6.466  24.455  57.022  1.00  0.00     0.189 HD
HETATM    9  C   UNL     1       7.302  23.971  55.113  1.00  0.00     0.069 A 
HETATM   10  C   UNL     1       7.368  24.770  53.995  1.00  0.00     0.007 A 
HETATM   11  C   UNL     1       7.804  22.609  55.176  1.00  0.00    -0.001 A 
HETATM   12  C   UNL     1       7.997  24.298  52.732  1.00  0.00     0.048 C 
HETATM   13  C   UNL     1       7.947  22.756  52.631  1.00  0.00     0.044 C 
HETATM   14  C   UNL     1       8.182  22.018  53.945  1.00  0.00    -0.045 A 
HETATM   15  C   UNL     1       8.687  20.712  53.932  1.00  0.00     0.008 A 
HETATM   16  C   UNL     1       8.841  20.011  55.129  1.00  0.00     0.001 A 
HETATM   17  C   UNL     1       8.478  20.600  56.340  1.00  0.00     0.001 A 
HETATM   18  C   UNL     1       7.959  21.896  56.368  1.00  0.00     0.014 A 
ENDBRANCH   2   5
BRANCH   1  19
HETATM   19  N   UNL     1       5.541  28.076  51.624  1.00  0.00    -0.184 NA
HETATM   20  C   UNL     1       5.537  27.795  50.361  1.00  0.00     0.150 C 
BRANCH  20  21
HETATM   21  C   UNL     1       5.242  28.839  49.356  1.00  0.00    -0.014 A 
HETATM   22  C   UNL     1       4.788  28.476  48.082  1.00  0.00     0.016 A 
HETATM   23  C   UNL     1       4.522  29.461  47.133  1.00  0.00     0.040 A 
HETATM   24  C   UNL     1       4.708  30.794  47.474  1.00  0.00     0.099 A 
HETATM   25  C   UNL     1       5.150  31.175  48.748  1.00  0.00     0.102 A 
HETATM   26  C   UNL     1       5.427  30.188  49.694  1.00  0.00     0.052 A 
BRANCH  24  27
HETATM   27  O   UNL     1       4.440  31.744  46.526  1.00  0.00    -0.358 OA
HETATM   28  H   UNL     1       3.729  31.363  45.976  1.00  0.00     0.218 HD
ENDBRANCH  24  27
BRANCH  25  29
HETATM   29  O   UNL     1       5.276  32.529  48.930  1.00  0.00    -0.353 OA
HETATM   30  C   UNL     1       5.698  32.966  50.217  1.00  0.00     0.210 C 
ENDBRANCH  25  29
ENDBRANCH  20  21
ENDBRANCH   1  19
TORSDOF 5
ENDMDL
MODEL 10
REMARK VINA RESULT:      -8.8      1.536      2.849
REMARK  5 active torsions:
REMARK  status: ('A' for Active; 'I' for Inactive)
REMARK    1  A    between atoms: O_2  and  C_3 
REMARK    2  A    between atoms: C_4  and  O_5 
REMARK    3  A    between atoms: C_8  and  C_9 
REMARK    4  A    between atoms: N_10  and  N_11 
REMARK       I    between atoms: N_11  and  C_12 
REMARK    5  A    between atoms: C_12  and  C_13 
ROOT
HETATM    1  N   UNL     1       7.987  27.774  57.445  1.00  0.00    -0.242 N 
HETATM    2  C   UNL     1       8.321  29.088  57.152  1.00  0.00     0.292 C 
HETATM    3  O   UNL     1       8.587  29.518  56.032  1.00  0.00    -0.264 OA
HETATM    4  H   UNL     1       7.782  27.550  58.415  1.00  0.00     0.192 HD
ENDROOT
BRANCH   2   5
HETATM    5  C   UNL     1       8.323  29.949  58.347  1.00  0.00     0.154 A 
HETATM    6  N   UNL     1       9.354  29.965  59.226  1.00  0.00    -0.168 NA
HETATM    7  N   UNL     1       8.960  30.837  60.182  1.00  0.00    -0.276 N 
HETATM    8  H   UNL     1       9.585  31.013  60.961  1.00  0.00     0.189 HD
HETATM    9  C   UNL     1       7.734  31.379  59.954  1.00  0.00     0.069 A 
HETATM   10  C   UNL     1       7.300  30.839  58.764  1.00  0.00     0.007 A 
HETATM   11  C   UNL     1       6.972  32.329  60.746  1.00  0.00    -0.001 A 
HETATM   12  C   UNL     1       5.971  31.178  58.189  1.00  0.00     0.048 C 
HETATM   13  C   UNL     1       5.494  32.566  58.678  1.00  0.00     0.044 C 
HETATM   14  C   UNL     1       5.820  32.882  60.133  1.00  0.00    -0.045 A 
HETATM   15  C   UNL     1       5.031  33.795  60.844  1.00  0.00     0.008 A 
HETATM   16  C   UNL     1       5.365  34.135  62.155  1.00  0.00     0.001 A 
HETATM   17  C   UNL     1       6.494  33.581  62.758  1.00  0.00     0.001 A 
HETATM   18  C   UNL     1       7.300  32.681  62.058  1.00  0.00     0.014 A 
ENDBRANCH   2   5
BRANCH   1  19
HETATM   19  N   UNL     1       7.893  26.849  56.451  1.00  0.00    -0.184 NA
HETATM   20  C   UNL     1       7.992  25.610  56.810  1.00  0.00     0.150 C 
BRANCH  20  21
HETATM   21  C   UNL     1       7.891  24.524  55.812  1.00  0.00    -0.014 A 
HETATM   22  C   UNL     1       7.741  24.831  54.454  1.00  0.00     0.016 A 
HETATM   23  C   UNL     1       7.635  23.805  53.518  1.00  0.00     0.040 A 
HETATM   24  C   UNL     1       7.687  22.487  53.952  1.00  0.00     0.099 A 
HETATM   25  C   UNL     1       7.848  22.162  55.306  1.00  0.00     0.102 A 
HETATM   26  C   UNL     1       7.943  23.190  56.244  1.00  0.00     0.052 A 
BRANCH  24  27
HETATM   27  O   UNL     1       7.581  21.496  53.013  1.00  0.00    -0.358 OA
HETATM   28  H   UNL     1       6.657  21.538  52.701  1.00  0.00     0.218 HD
ENDBRANCH  24  27
BRANCH  25  29
HETATM   29  O   UNL     1       7.888  20.816  55.571  1.00  0.00    -0.353 OA
HETATM   30  C   UNL     1       9.056  20.326  56.219  1.00  0.00     0.210 C 
ENDBRANCH  25  29
ENDBRANCH  20  21
ENDBRANCH   1  19
TORSDOF 5
ENDMDL
