MODEL 1
REMARK VINA RESULT:     -10.4      0.000      0.000
REMARK  7 active torsions:
REMARK  status: ('A' for Active; 'I' for Inactive)
REMARK    1  A    between atoms: C_2  and  O_3 
REMARK    2  A    between atoms: O_3  and  C_4 
REMARK    3  A    between atoms: C_5  and  C_6 
REMARK       I    between atoms: C_6  and  N_7 
REMARK    4  A    between atoms: N_7  and  C_8 
REMARK    5  A    between atoms: C_8  and  C_9 
REMARK    6  A    between atoms: C_9  and  N_10 
REMARK    7  A    between atoms: N_14  and  C_15 
ROOT
HETATM    1  C   UNL     1       6.615  31.613  58.706  1.00  0.00     0.255 C 
HETATM    2  N   UNL     1       6.324  30.345  58.248  1.00  0.00    -0.355 N 
HETATM    3  O   UNL     1       6.041  32.611  58.279  1.00  0.00    -0.268 OA
HETATM    4  H   UNL     1       6.883  29.581  58.625  1.00  0.00     0.162 HD
ENDROOT
BRANCH   2   5
HETATM    5  C   UNL     1       5.552  30.091  57.038  1.00  0.00     0.150 C 
BRANCH   5   6
HETATM    6  C   UNL     1       6.138  29.022  56.090  1.00  0.00     0.254 C 
BRANCH   6   7
HETATM    7  N   UNL     1       6.323  27.678  56.745  1.00  0.00    -0.067 N 
HETATM    8  H   UNL     1       6.121  27.813  57.758  1.00  0.00     0.280 HD
HETATM    9  C   UNL     1       5.319  26.611  56.314  1.00  0.00     0.254 C 
HETATM   10  C   UNL     1       5.541  25.315  57.126  1.00  0.00     0.150 C 
HETATM   11  N   UNL     1       6.931  24.839  56.976  1.00  0.00    -0.378 N 
HETATM   12  C   UNL     1       7.929  25.840  57.416  1.00  0.00     0.150 C 
HETATM   13  C   UNL     1       7.754  27.165  56.640  1.00  0.00     0.254 C 
BRANCH  11  14
HETATM   14  C   UNL     1       7.276  23.920  55.987  1.00  0.00     0.030 A 
HETATM   15  C   UNL     1       6.996  24.119  54.624  1.00  0.00     0.031 A 
HETATM   16  C   UNL     1       7.323  23.165  53.648  1.00  0.00     0.026 A 
HETATM   17  C   UNL     1       7.935  21.976  54.018  1.00  0.00     0.034 A 
HETATM   18 CL   UNL     1       8.331  20.805  52.827  1.00  0.00    -0.084 Cl
HETATM   19  C   UNL     1       8.211  21.734  55.355  1.00  0.00     0.026 A 
HETATM   20  C   UNL     1       7.877  22.692  56.322  1.00  0.00     0.031 A 
ENDBRANCH  11  14
ENDBRANCH   6   7
ENDBRANCH   5   6
ENDBRANCH   2   5
BRANCH   1  21
HETATM   21  C   UNL     1       7.641  31.697  59.765  1.00  0.00     0.076 A 
HETATM   22  C   UNL     1       8.964  31.358  59.426  1.00  0.00     0.085 A 
HETATM   23  C   UNL     1       9.955  31.468  60.400  1.00  0.00     0.039 A 
HETATM   24  C   UNL     1       9.627  31.882  61.694  1.00  0.00     0.015 A 
HETATM   25  C   UNL     1       8.305  32.189  62.049  1.00  0.00    -0.025 A 
HETATM   26  C   UNL     1       7.277  32.093  61.082  1.00  0.00    -0.007 A 
HETATM   27  C   UNL     1       8.002  32.586  63.361  1.00  0.00     0.012 A 
HETATM   28  C   UNL     1       5.953  32.379  61.502  1.00  0.00     0.013 A 
HETATM   29  C   UNL     1       5.666  32.770  62.811  1.00  0.00     0.001 A 
HETATM   30  C   UNL     1       6.693  32.879  63.739  1.00  0.00     0.001 A 
BRANCH  22  31
HETATM   31  O   UNL     1       9.211  30.989  58.127  1.00  0.00    -0.350 OA
BRANCH  31  32
HETATM   32  C   UNL     1      10.586  30.971  57.733  1.00  0.00     0.171 C 
HETATM   33  C   UNL     1      10.824  29.703  56.934  1.00  0.00     0.034 C 
ENDBRANCH  31  32
ENDBRANCH  22  31
ENDBRANCH   1  21
TORSDOF 7
ENDMDL
MODEL 2
REMARK VINA RESULT:     -10.4      3.653      9.786
REMARK  7 active torsions:
REMARK  status: ('A' for Active; 'I' for Inactive)
REMARK    1  A    between atoms: C_2  and  O_3 
REMARK    2  A    between atoms: O_3  and  C_4 
REMARK    3  A    between atoms: C_5  and  C_6 
REMARK       I    between atoms: C_6  and  N_7 
REMARK    4  A    between atoms: N_7  and  C_8 
REMARK    5  A    between atoms: C_8  and  C_9 
REMARK    6  A    between atoms: C_9  and  N_10 
REMARK    7  A    between atoms: N_14  and  C_15 
ROOT
HETATM    1  C   UNL     1       7.532  24.863  56.227  1.00  0.00     0.255 C 
HETATM    2  N   UNL     1       6.225  25.173  56.540  1.00  0.00    -0.355 N 
HETATM    3  O   UNL     1       8.475  25.215  56.929  1.00  0.00    -0.268 OA
HETATM    4  H   UNL     1       5.511  24.879  55.875  1.00  0.00     0.162 HD
ENDROOT
BRANCH   2   5
HETATM    5  C   UNL     1       5.858  26.174  57.533  1.00  0.00     0.150 C 
BRANCH   5   6
HETATM    6  C   UNL     1       5.216  27.461  56.972  1.00  0.00     0.254 C 
BRANCH   6   7
HETATM    7  N   UNL     1       6.118  28.666  57.056  1.00  0.00    -0.067 N 
HETATM    8  H   UNL     1       6.440  28.862  56.085  1.00  0.00     0.280 HD
HETATM    9  C   UNL     1       5.421  29.960  57.474  1.00  0.00     0.254 C 
HETATM   10  C   UNL     1       6.418  31.139  57.422  1.00  0.00     0.150 C 
HETATM   11  N   UNL     1       7.595  30.862  58.270  1.00  0.00    -0.378 N 
HETATM   12  C   UNL     1       8.312  29.631  57.869  1.00  0.00     0.150 C 
HETATM   13  C   UNL     1       7.362  28.411  57.897  1.00  0.00     0.254 C 
BRANCH  11  14
HETATM   14  C   UNL     1       7.641  31.277  59.599  1.00  0.00     0.030 A 
HETATM   15  C   UNL     1       6.721  32.187  60.150  1.00  0.00     0.031 A 
HETATM   16  C   UNL     1       6.804  32.617  61.484  1.00  0.00     0.026 A 
HETATM   17  C   UNL     1       7.824  32.149  62.300  1.00  0.00     0.034 A 
HETATM   18 CL   UNL     1       7.932  32.679  63.930  1.00  0.00    -0.084 Cl
HETATM   19  C   UNL     1       8.762  31.265  61.789  1.00  0.00     0.026 A 
HETATM   20  C   UNL     1       8.671  30.845  60.455  1.00  0.00     0.031 A 
ENDBRANCH  11  14
ENDBRANCH   6   7
ENDBRANCH   5   6
ENDBRANCH   2   5
BRANCH   1  21
HETATM   21  C   UNL     1       7.728  24.052  55.008  1.00  0.00     0.076 A 
HETATM   22  C   UNL     1       7.617  24.699  53.763  1.00  0.00     0.085 A 
HETATM   23  C   UNL     1       7.837  23.962  52.602  1.00  0.00     0.039 A 
HETATM   24  C   UNL     1       8.136  22.598  52.680  1.00  0.00     0.015 A 
HETATM   25  C   UNL     1       8.217  21.939  53.915  1.00  0.00    -0.025 A 
HETATM   26  C   UNL     1       8.003  22.660  55.113  1.00  0.00    -0.007 A 
HETATM   27  C   UNL     1       8.502  20.565  53.963  1.00  0.00     0.012 A 
HETATM   28  C   UNL     1       8.059  21.938  56.333  1.00  0.00     0.013 A 
HETATM   29  C   UNL     1       8.342  20.571  56.363  1.00  0.00     0.001 A 
HETATM   30  C   UNL     1       8.568  19.886  55.177  1.00  0.00     0.001 A 
BRANCH  22  31
HETATM   31  O   UNL     1       7.349  26.045  53.771  1.00  0.00    -0.350 OA
BRANCH  31  32
HETATM   32  C   UNL     1       6.384  26.497  52.816  1.00  0.00     0.171 C 
HETATM   33  C   UNL     1       5.013  26.062  53.300  1.00  0.00     0.034 C 
ENDBRANCH  31  32
ENDBRANCH  22  31
ENDBRANCH   1  21
TORSDOF 7
ENDMDL
MODEL 3
REMARK VINA RESULT:     -10.0      6.613     10.534
REMARK  7 active torsions:
REMARK  status: ('A' for Active; 'I' for Inactive)
REMARK    1  A    between atoms: C_2  and  O_3 
REMARK    2  A    between atoms: O_3  and  C_4 
REMARK    3  A    between atoms: C_5  and  C_6 
REMARK       I    between atoms: C_6  and  N_7 
REMARK    4  A    between atoms: N_7  and  C_8 
REMARK    5  A    between atoms: C_8  and  C_9 
REMARK    6  A    between atoms: C_9  and  N_10 
REMARK    7  A    between atoms: N_14  and  C_15 
ROOT
HETATM    1  C   UNL     1       7.271  24.820  53.134  1.00  0.00     0.255 C 
HETATM    2  N   UNL     1       5.916  25.062  53.037  1.00  0.00    -0.355 N 
HETATM    3  O   UNL     1       8.068  25.203  52.284  1.00  0.00    -0.268 OA
HETATM    4  H   UNL     1       5.324  24.667  53.765  1.00  0.00     0.162 HD
ENDROOT
BRANCH   2   5
HETATM    5  C   UNL     1       5.273  25.515  51.810  1.00  0.00     0.150 C 
BRANCH   5   6
HETATM    6  C   UNL     1       5.430  27.018  51.494  1.00  0.00     0.254 C 
BRANCH   6   7
HETATM    7  N   UNL     1       5.335  27.334  50.023  1.00  0.00    -0.067 N 
HETATM    8  H   UNL     1       6.307  27.297  49.650  1.00  0.00     0.280 HD
HETATM    9  C   UNL     1       4.588  26.291  49.192  1.00  0.00     0.254 C 
HETATM   10  C   UNL     1       4.648  26.667  47.694  1.00  0.00     0.150 C 
HETATM   11  N   UNL     1       4.102  28.022  47.476  1.00  0.00    -0.378 N 
HETATM   12  C   UNL     1       4.826  29.061  48.245  1.00  0.00     0.150 C 
HETATM   13  C   UNL     1       4.806  28.737  49.756  1.00  0.00     0.254 C 
BRANCH  11  14
HETATM   14  C   UNL     1       2.759  28.218  47.162  1.00  0.00     0.030 A 
HETATM   15  C   UNL     1       1.840  27.161  47.033  1.00  0.00     0.031 A 
HETATM   16  C   UNL     1       0.499  27.378  46.683  1.00  0.00     0.026 A 
HETATM   17  C   UNL     1       0.044  28.666  46.443  1.00  0.00     0.034 A 
HETATM   18 CL   UNL     1      -1.596  28.933  46.008  1.00  0.00    -0.084 Cl
HETATM   19  C   UNL     1       0.923  29.734  46.541  1.00  0.00     0.026 A 
HETATM   20  C   UNL     1       2.262  29.506  46.888  1.00  0.00     0.031 A 
ENDBRANCH  11  14
ENDBRANCH   6   7
ENDBRANCH   5   6
ENDBRANCH   2   5
BRANCH   1  21
HETATM   21  C   UNL     1       7.710  24.094  54.344  1.00  0.00     0.076 A 
HETATM   22  C   UNL     1       7.823  24.823  55.543  1.00  0.00     0.085 A 
HETATM   23  C   UNL     1       8.197  24.150  56.704  1.00  0.00     0.039 A 
HETATM   24  C   UNL     1       8.480  22.781  56.664  1.00  0.00     0.015 A 
HETATM   25  C   UNL     1       8.402  22.055  55.467  1.00  0.00    -0.025 A 
HETATM   26  C   UNL     1       8.020  22.708  54.272  1.00  0.00    -0.007 A 
HETATM   27  C   UNL     1       8.707  20.684  55.453  1.00  0.00     0.012 A 
HETATM   28  C   UNL     1       7.992  21.936  53.082  1.00  0.00     0.013 A 
HETATM   29  C   UNL     1       8.301  20.574  53.084  1.00  0.00     0.001 A 
HETATM   30  C   UNL     1       8.654  19.948  54.271  1.00  0.00     0.001 A 
BRANCH  22  31
HETATM   31  O   UNL     1       7.500  26.157  55.507  1.00  0.00    -0.350 OA
BRANCH  31  32
HETATM   32  C   UNL     1       6.758  26.651  56.625  1.00  0.00     0.171 C 
HETATM   33  C   UNL     1       5.317  26.205  56.461  1.00  0.00     0.034 C 
ENDBRANCH  31  32
ENDBRANCH  22  31
ENDBRANCH   1  21
TORSDOF 7
ENDMDL
MODEL 4
REMARK VINA RESULT:      -9.8      1.280      2.910
REMARK  7 active torsions:
REMARK  status: ('A' for Active; 'I' for Inactive)
REMARK    1  A    between atoms: C_2  and  O_3 
REMARK    2  A    between atoms: O_3  and  C_4 
REMARK    3  A    between atoms: C_5  and  C_6 
REMARK       I    between atoms: C_6  and  N_7 
REMARK    4  A    between atoms: N_7  and  C_8 
REMARK    5  A    between atoms: C_8  and  C_9 
REMARK    6  A    between atoms: C_9  and  N_10 
REMARK    7  A    between atoms: N_14  and  C_15 
ROOT
HETATM    1  C   UNL     1       7.873  31.624  59.167  1.00  0.00     0.255 C 
HETATM    2  N   UNL     1       7.532  30.333  58.823  1.00  0.00    -0.355 N 
HETATM    3  O   UNL     1       8.960  32.115  58.878  1.00  0.00    -0.268 OA
HETATM    4  H   UNL     1       6.628  29.994  59.146  1.00  0.00     0.162 HD
ENDROOT
BRANCH   2   5
HETATM    5  C   UNL     1       8.503  29.347  58.364  1.00  0.00     0.150 C 
BRANCH   5   6
HETATM    6  C   UNL     1       8.416  28.978  56.867  1.00  0.00     0.254 C 
BRANCH   6   7
HETATM    7  N   UNL     1       7.324  27.987  56.558  1.00  0.00    -0.067 N 
HETATM    8  H   UNL     1       6.430  28.430  56.857  1.00  0.00     0.280 HD
HETATM    9  C   UNL     1       7.111  27.713  55.070  1.00  0.00     0.254 C 
HETATM   10  C   UNL     1       5.903  26.769  54.872  1.00  0.00     0.150 C 
HETATM   11  N   UNL     1       6.094  25.516  55.630  1.00  0.00    -0.378 N 
HETATM   12  C   UNL     1       6.271  25.746  57.082  1.00  0.00     0.150 C 
HETATM   13  C   UNL     1       7.466  26.690  57.345  1.00  0.00     0.254 C 
BRANCH  11  14
HETATM   14  C   UNL     1       6.678  24.397  55.040  1.00  0.00     0.030 A 
HETATM   15  C   UNL     1       7.242  23.345  55.784  1.00  0.00     0.031 A 
HETATM   16  C   UNL     1       7.855  22.243  55.170  1.00  0.00     0.026 A 
HETATM   17  C   UNL     1       7.928  22.172  53.787  1.00  0.00     0.034 A 
HETATM   18 CL   UNL     1       8.684  20.826  53.033  1.00  0.00    -0.084 Cl
HETATM   19  C   UNL     1       7.400  23.197  53.017  1.00  0.00     0.026 A 
HETATM   20  C   UNL     1       6.793  24.296  53.641  1.00  0.00     0.031 A 
ENDBRANCH  11  14
ENDBRANCH   6   7
ENDBRANCH   5   6
ENDBRANCH   2   5
BRANCH   1  21
HETATM   21  C   UNL     1       6.836  32.396  59.884  1.00  0.00     0.076 A 
HETATM   22  C   UNL     1       5.746  32.882  59.137  1.00  0.00     0.085 A 
HETATM   23  C   UNL     1       4.737  33.577  59.800  1.00  0.00     0.039 A 
HETATM   24  C   UNL     1       4.827  33.807  61.176  1.00  0.00     0.015 A 
HETATM   25  C   UNL     1       5.926  33.354  61.921  1.00  0.00    -0.025 A 
HETATM   26  C   UNL     1       6.965  32.641  61.279  1.00  0.00    -0.007 A 
HETATM   27  C   UNL     1       5.999  33.614  63.299  1.00  0.00     0.012 A 
HETATM   28  C   UNL     1       8.071  32.237  62.070  1.00  0.00     0.013 A 
HETATM   29  C   UNL     1       8.130  32.505  63.439  1.00  0.00     0.001 A 
HETATM   30  C   UNL     1       7.090  33.190  64.054  1.00  0.00     0.001 A 
BRANCH  22  31
HETATM   31  O   UNL     1       5.716  32.590  57.797  1.00  0.00    -0.350 OA
BRANCH  31  32
HETATM   32  C   UNL     1       4.610  31.799  57.353  1.00  0.00     0.171 C 
HETATM   33  C   UNL     1       5.002  31.145  56.041  1.00  0.00     0.034 C 
ENDBRANCH  31  32
ENDBRANCH  22  31
ENDBRANCH   1  21
TORSDOF 7
ENDMDL
MODEL 5
REMARK VINA RESULT:      -9.2      4.070     10.073
REMARK  7 active torsions:
REMARK  status: ('A' for Active; 'I' for Inactive)
REMARK    1  A    between atoms: C_2  and  O_3 
REMARK    2  A    between atoms: O_3  and  C_4 
REMARK    3  A    between atoms: C_5  and  C_6 
REMARK       I    between atoms: C_6  and  N_7 
REMARK    4  A    between atoms: N_7  and  C_8 
REMARK    5  A    between atoms: C_8  and  C_9 
REMARK    6  A    between atoms: C_9  and  N_10 
REMARK    7  A    between atoms: N_14  and  C_15 
ROOT
HETATM    1  C   UNL     1       5.934  26.093  55.616  1.00  0.00     0.255 C 
HETATM    2  N   UNL     1       6.220  27.432  55.788  1.00  0.00    -0.355 N 
HETATM    3  O   UNL     1       5.241  25.464  56.409  1.00  0.00    -0.268 OA
HETATM    4  H   UNL     1       6.842  27.861  55.105  1.00  0.00     0.162 HD
ENDROOT
BRANCH   2   5
HETATM    5  C   UNL     1       5.993  28.141  57.041  1.00  0.00     0.150 C 
BRANCH   5   6
HETATM    6  C   UNL     1       7.256  28.417  57.885  1.00  0.00     0.254 C 
BRANCH   6   7
HETATM    7  N   UNL     1       7.507  29.883  58.124  1.00  0.00    -0.067 N 
HETATM    8  H   UNL     1       7.733  30.299  57.196  1.00  0.00     0.280 HD
HETATM    9  C   UNL     1       6.285  30.675  58.588  1.00  0.00     0.254 C 
HETATM   10  C   UNL     1       6.637  32.176  58.696  1.00  0.00     0.150 C 
HETATM   11  N   UNL     1       7.786  32.377  59.602  1.00  0.00    -0.378 N 
HETATM   12  C   UNL     1       8.996  31.647  59.162  1.00  0.00     0.150 C 
HETATM   13  C   UNL     1       8.706  30.135  59.030  1.00  0.00     0.254 C 
BRANCH  11  14
HETATM   14  C   UNL     1       7.599  32.633  60.959  1.00  0.00     0.030 A 
HETATM   15  C   UNL     1       8.491  32.190  61.952  1.00  0.00     0.031 A 
HETATM   16  C   UNL     1       8.267  32.431  63.316  1.00  0.00     0.026 A 
HETATM   17  C   UNL     1       7.132  33.118  63.722  1.00  0.00     0.034 A 
HETATM   18 CL   UNL     1       6.854  33.408  65.392  1.00  0.00    -0.084 Cl
HETATM   19  C   UNL     1       6.219  33.555  62.775  1.00  0.00     0.026 A 
HETATM   20  C   UNL     1       6.451  33.307  61.416  1.00  0.00     0.031 A 
ENDBRANCH  11  14
ENDBRANCH   6   7
ENDBRANCH   5   6
ENDBRANCH   2   5
BRANCH   1  21
HETATM   21  C   UNL     1       6.491  25.467  54.399  1.00  0.00     0.076 A 
HETATM   22  C   UNL     1       6.221  26.081  53.162  1.00  0.00     0.085 A 
HETATM   23  C   UNL     1       6.769  25.529  52.006  1.00  0.00     0.039 A 
HETATM   24  C   UNL     1       7.549  24.371  52.080  1.00  0.00     0.015 A 
HETATM   25  C   UNL     1       7.794  23.734  53.305  1.00  0.00    -0.025 A 
HETATM   26  C   UNL     1       7.257  24.272  54.497  1.00  0.00    -0.007 A 
HETATM   27  C   UNL     1       8.567  22.562  53.348  1.00  0.00     0.012 A 
HETATM   28  C   UNL     1       7.504  23.569  55.705  1.00  0.00     0.013 A 
HETATM   29  C   UNL     1       8.272  22.404  55.731  1.00  0.00     0.001 A 
HETATM   30  C   UNL     1       8.808  21.903  54.552  1.00  0.00     0.001 A 
BRANCH  22  31
HETATM   31  O   UNL     1       5.472  27.231  53.175  1.00  0.00    -0.350 OA
BRANCH  31  32
HETATM   32  C   UNL     1       5.647  28.104  52.056  1.00  0.00     0.171 C 
HETATM   33  C   UNL     1       4.361  28.092  51.250  1.00  0.00     0.034 C 
ENDBRANCH  31  32
ENDBRANCH  22  31
ENDBRANCH   1  21
TORSDOF 7
ENDMDL
MODEL 6
REMARK VINA RESULT:      -9.1      1.812      3.666
REMARK  7 active torsions:
REMARK  status: ('A' for Active; 'I' for Inactive)
REMARK    1  A    between atoms: C_2  and  O_3 
REMARK    2  A    between atoms: O_3  and  C_4 
REMARK    3  A    between atoms: C_5  and  C_6 
REMARK       I    between atoms: C_6  and  N_7 
REMARK    4  A    between atoms: N_7  and  C_8 
REMARK    5  A    between atoms: C_8  and  C_9 
REMARK    6  A    between atoms: C_9  and  N_10 
REMARK    7  A    between atoms: N_14  and  C_15 
ROOT
HETATM    1  C   UNL     1       5.561  31.914  58.433  1.00  0.00     0.255 C 
HETATM    2  N   UNL     1       5.167  30.621  58.159  1.00  0.00    -0.355 N 
HETATM    3  O   UNL     1       5.735  32.748  57.550  1.00  0.00    -0.268 OA
HETATM    4  H   UNL     1       5.093  29.984  58.951  1.00  0.00     0.162 HD
ENDROOT
BRANCH   2   5
HETATM    5  C   UNL     1       5.208  30.041  56.822  1.00  0.00     0.150 C 
BRANCH   5   6
HETATM    6  C   UNL     1       6.459  29.194  56.505  1.00  0.00     0.254 C 
BRANCH   6   7
HETATM    7  N   UNL     1       6.302  28.332  55.279  1.00  0.00    -0.067 N 
HETATM    8  H   UNL     1       5.867  28.933  54.549  1.00  0.00     0.280 HD
HETATM    9  C   UNL     1       7.616  27.881  54.641  1.00  0.00     0.254 C 
HETATM   10  C   UNL     1       7.331  27.098  53.340  1.00  0.00     0.150 C 
HETATM   11  N   UNL     1       6.441  25.951  53.608  1.00  0.00    -0.378 N 
HETATM   12  C   UNL     1       5.145  26.357  54.198  1.00  0.00     0.150 C 
HETATM   13  C   UNL     1       5.364  27.152  55.505  1.00  0.00     0.254 C 
BRANCH  11  14
HETATM   14  C   UNL     1       6.956  24.689  53.897  1.00  0.00     0.030 A 
HETATM   15  C   UNL     1       7.499  23.840  52.916  1.00  0.00     0.031 A 
HETATM   16  C   UNL     1       7.984  22.559  53.224  1.00  0.00     0.026 A 
HETATM   17  C   UNL     1       7.926  22.091  54.528  1.00  0.00     0.034 A 
HETATM   18 CL   UNL     1       8.512  20.522  54.906  1.00  0.00    -0.084 Cl
HETATM   19  C   UNL     1       7.381  22.890  55.522  1.00  0.00     0.026 A 
HETATM   20  C   UNL     1       6.897  24.166  55.203  1.00  0.00     0.031 A 
ENDBRANCH  11  14
ENDBRANCH   6   7
ENDBRANCH   5   6
ENDBRANCH   2   5
BRANCH   1  21
HETATM   21  C   UNL     1       5.734  32.245  59.863  1.00  0.00     0.076 A 
HETATM   22  C   UNL     1       4.603  32.681  60.578  1.00  0.00     0.085 A 
HETATM   23  C   UNL     1       4.735  32.961  61.937  1.00  0.00     0.039 A 
HETATM   24  C   UNL     1       5.979  32.833  62.564  1.00  0.00     0.015 A 
HETATM   25  C   UNL     1       7.117  32.431  61.850  1.00  0.00    -0.025 A 
HETATM   26  C   UNL     1       7.016  32.135  60.471  1.00  0.00    -0.007 A 
HETATM   27  C   UNL     1       8.357  32.328  62.502  1.00  0.00     0.012 A 
HETATM   28  C   UNL     1       8.204  31.768  59.789  1.00  0.00     0.013 A 
HETATM   29  C   UNL     1       9.430  31.673  60.450  1.00  0.00     0.001 A 
HETATM   30  C   UNL     1       9.505  31.948  61.809  1.00  0.00     0.001 A 
BRANCH  22  31
HETATM   31  O   UNL     1       3.413  32.753  59.899  1.00  0.00    -0.350 OA
BRANCH  31  32
HETATM   32  C   UNL     1       2.711  33.996  59.995  1.00  0.00     0.171 C 
HETATM   33  C   UNL     1       3.432  35.005  59.120  1.00  0.00     0.034 C 
ENDBRANCH  31  32
ENDBRANCH  22  31
ENDBRANCH   1  21
TORSDOF 7
ENDMDL
MODEL 7
REMARK VINA RESULT:      -9.1      6.572     10.391
REMARK  7 active torsions:
REMARK  status: ('A' for Active; 'I' for Inactive)
REMARK    1  A    between atoms: C_2  and  O_3 
REMARK    2  A    between atoms: O_3  and  C_4 
REMARK    3  A    between atoms: C_5  and  C_6 
REMARK       I    between atoms: C_6  and  N_7 
REMARK    4  A    between atoms: N_7  and  C_8 
REMARK    5  A    between atoms: C_8  and  C_9 
REMARK    6  A    between atoms: C_9  and  N_10 
REMARK    7  A    between atoms: N_14  and  C_15 
ROOT
HETATM    1  C   UNL     1       7.484  25.534  53.170  1.00  0.00     0.255 C 
HETATM    2  N   UNL     1       6.340  26.305  53.150  1.00  0.00    -0.355 N 
HETATM    3  O   UNL     1       8.325  25.586  52.278  1.00  0.00    -0.268 OA
HETATM    4  H   UNL     1       5.675  26.162  53.908  1.00  0.00     0.162 HD
ENDROOT
BRANCH   2   5
HETATM    5  C   UNL     1       5.877  27.013  51.963  1.00  0.00     0.150 C 
BRANCH   5   6
HETATM    6  C   UNL     1       5.250  26.127  50.864  1.00  0.00     0.254 C 
BRANCH   6   7
HETATM    7  N   UNL     1       4.042  26.748  50.212  1.00  0.00    -0.067 N 
HETATM    8  H   UNL     1       3.208  26.317  50.664  1.00  0.00     0.280 HD
HETATM    9  C   UNL     1       3.868  28.242  50.478  1.00  0.00     0.254 C 
HETATM   10  C   UNL     1       2.547  28.741  49.850  1.00  0.00     0.150 C 
HETATM   11  N   UNL     1       2.513  28.443  48.404  1.00  0.00    -0.378 N 
HETATM   12  C   UNL     1       2.647  26.998  48.115  1.00  0.00     0.150 C 
HETATM   13  C   UNL     1       3.953  26.437  48.723  1.00  0.00     0.254 C 
BRANCH  11  14
HETATM   14  C   UNL     1       2.957  29.372  47.465  1.00  0.00     0.030 A 
HETATM   15  C   UNL     1       4.318  29.662  47.259  1.00  0.00     0.031 A 
HETATM   16  C   UNL     1       4.743  30.624  46.330  1.00  0.00     0.026 A 
HETATM   17  C   UNL     1       3.808  31.331  45.588  1.00  0.00     0.034 A 
HETATM   18 CL   UNL     1       4.325  32.515  44.456  1.00  0.00    -0.084 Cl
HETATM   19  C   UNL     1       2.456  31.088  45.775  1.00  0.00     0.026 A 
HETATM   20  C   UNL     1       2.042  30.127  46.708  1.00  0.00     0.031 A 
ENDBRANCH  11  14
ENDBRANCH   6   7
ENDBRANCH   5   6
ENDBRANCH   2   5
BRANCH   1  21
HETATM   21  C   UNL     1       7.650  24.659  54.349  1.00  0.00     0.076 A 
HETATM   22  C   UNL     1       7.695  25.267  55.617  1.00  0.00     0.085 A 
HETATM   23  C   UNL     1       7.811  24.458  56.746  1.00  0.00     0.039 A 
HETATM   24  C   UNL     1       7.908  23.070  56.609  1.00  0.00     0.015 A 
HETATM   25  C   UNL     1       7.897  22.459  55.347  1.00  0.00    -0.025 A 
HETATM   26  C   UNL     1       7.776  23.252  54.182  1.00  0.00    -0.007 A 
HETATM   27  C   UNL     1       8.014  21.063  55.238  1.00  0.00     0.012 A 
HETATM   28  C   UNL     1       7.807  22.588  52.929  1.00  0.00     0.013 A 
HETATM   29  C   UNL     1       7.926  21.200  52.837  1.00  0.00     0.001 A 
HETATM   30  C   UNL     1       8.024  20.437  53.994  1.00  0.00     0.001 A 
BRANCH  22  31
HETATM   31  O   UNL     1       7.564  26.633  55.671  1.00  0.00    -0.350 OA
BRANCH  31  32
HETATM   32  C   UNL     1       7.544  27.209  56.980  1.00  0.00     0.171 C 
HETATM   33  C   UNL     1       8.732  28.147  57.093  1.00  0.00     0.034 C 
ENDBRANCH  31  32
ENDBRANCH  22  31
ENDBRANCH   1  21
TORSDOF 7
ENDMDL
MODEL 8
REMARK VINA RESULT:      -9.1      5.884      9.335
REMARK  7 active torsions:
REMARK  status: ('A' for Active; 'I' for Inactive)
REMARK    1  A    between atoms: C_2  and  O_3 
REMARK    2  A    between atoms: O_3  and  C_4 
REMARK    3  A    between atoms: C_5  and  C_6 
REMARK       I    between atoms: C_6  and  N_7 
REMARK    4  A    between atoms: N_7  and  C_8 
REMARK    5  A    between atoms: C_8  and  C_9 
REMARK    6  A    between atoms: C_9  and  N_10 
REMARK    7  A    between atoms: N_14  and  C_15 
ROOT
HETATM    1  C   UNL     1       6.669  26.408  54.289  1.00  0.00     0.255 C 
HETATM    2  N   UNL     1       5.321  26.553  54.548  1.00  0.00    -0.355 N 
HETATM    3  O   UNL     1       7.238  27.041  53.406  1.00  0.00    -0.268 OA
HETATM    4  H   UNL     1       4.924  25.952  55.269  1.00  0.00     0.162 HD
ENDROOT
BRANCH   2   5
HETATM    5  C   UNL     1       4.402  27.221  53.637  1.00  0.00     0.150 C 
BRANCH   5   6
HETATM    6  C   UNL     1       4.819  28.640  53.194  1.00  0.00     0.254 C 
BRANCH   6   7
HETATM    7  N   UNL     1       5.024  28.767  51.707  1.00  0.00    -0.067 N 
HETATM    8  H   UNL     1       6.032  28.986  51.564  1.00  0.00     0.280 HD
HETATM    9  C   UNL     1       4.820  27.473  50.920  1.00  0.00     0.254 C 
HETATM   10  C   UNL     1       5.159  27.701  49.429  1.00  0.00     0.150 C 
HETATM   11  N   UNL     1       4.348  28.802  48.874  1.00  0.00    -0.378 N 
HETATM   12  C   UNL     1       4.547  30.080  49.596  1.00  0.00     0.150 C 
HETATM   13  C   UNL     1       4.227  29.915  51.099  1.00  0.00     0.254 C 
BRANCH  11  14
HETATM   14  C   UNL     1       3.128  28.556  48.247  1.00  0.00     0.030 A 
HETATM   15  C   UNL     1       2.407  27.360  48.416  1.00  0.00     0.031 A 
HETATM   16  C   UNL     1       1.196  27.119  47.749  1.00  0.00     0.026 A 
HETATM   17  C   UNL     1       0.680  28.072  46.884  1.00  0.00     0.034 A 
HETATM   18 CL   UNL     1      -0.799  27.776  46.062  1.00  0.00    -0.084 Cl
HETATM   19  C   UNL     1       1.369  29.257  46.675  1.00  0.00     0.026 A 
HETATM   20  C   UNL     1       2.579  29.486  47.344  1.00  0.00     0.031 A 
ENDBRANCH  11  14
ENDBRANCH   6   7
ENDBRANCH   5   6
ENDBRANCH   2   5
BRANCH   1  21
HETATM   21  C   UNL     1       7.394  25.462  55.162  1.00  0.00     0.076 A 
HETATM   22  C   UNL     1       7.729  25.890  56.460  1.00  0.00     0.085 A 
HETATM   23  C   UNL     1       8.378  25.000  57.313  1.00  0.00     0.039 A 
HETATM   24  C   UNL     1       8.712  23.716  56.870  1.00  0.00     0.015 A 
HETATM   25  C   UNL     1       8.411  23.294  55.567  1.00  0.00    -0.025 A 
HETATM   26  C   UNL     1       7.748  24.172  54.678  1.00  0.00    -0.007 A 
HETATM   27  C   UNL     1       8.773  22.005  55.143  1.00  0.00     0.012 A 
HETATM   28  C   UNL     1       7.500  23.708  53.360  1.00  0.00     0.013 A 
HETATM   29  C   UNL     1       7.869  22.424  52.953  1.00  0.00     0.001 A 
HETATM   30  C   UNL     1       8.501  21.571  53.848  1.00  0.00     0.001 A 
BRANCH  22  31
HETATM   31  O   UNL     1       7.342  27.154  56.830  1.00  0.00    -0.350 OA
BRANCH  31  32
HETATM   32  C   UNL     1       8.381  28.010  57.315  1.00  0.00     0.171 C 
HETATM   33  C   UNL     1       7.726  29.192  58.005  1.00  0.00     0.034 C 
ENDBRANCH  31  32
ENDBRANCH  22  31
ENDBRANCH   1  21
TORSDOF 7
ENDMDL
MODEL 9
REMARK VINA RESULT:      -9.1      1.576      2.635
REMARK  7 active torsions:
REMARK  status: ('A' for Active; 'I' for Inactive)
REMARK    1  A    between atoms: C_2  and  O_3 
REMARK    2  A    between atoms: O_3  and  C_4 
REMARK    3  A    between atoms: C_5  and  C_6 
REMARK       I    between atoms: C_6  and  N_7 
REMARK    4  A    between atoms: N_7  and  C_8 
REMARK    5  A    between atoms: C_8  and  C_9 
REMARK    6  A    between atoms: C_9  and  N_10 
REMARK    7  A    between atoms: N_14  and  C_15 
ROOT
HETATM    1  C   UNL     1       6.472  32.018  59.078  1.00  0.00     0.255 C 
HETATM    2  N   UNL     1       6.842  30.693  58.980  1.00  0.00    -0.355 N 
HETATM    3  O   UNL     1       6.219  32.703  58.092  1.00  0.00    -0.268 OA
HETATM    4  H   UNL     1       7.078  30.216  59.849  1.00  0.00     0.162 HD
ENDROOT
BRANCH   2   5
HETATM    5  C   UNL     1       7.253  30.070  57.729  1.00  0.00     0.150 C 
BRANCH   5   6
HETATM    6  C   UNL     1       7.542  28.556  57.805  1.00  0.00     0.254 C 
BRANCH   6   7
HETATM    7  N   UNL     1       6.646  27.730  56.918  1.00  0.00    -0.067 N 
HETATM    8  H   UNL     1       5.723  28.214  56.899  1.00  0.00     0.280 HD
HETATM    9  C   UNL     1       7.062  27.688  55.448  1.00  0.00     0.254 C 
HETATM   10  C   UNL     1       6.015  26.906  54.624  1.00  0.00     0.150 C 
HETATM   11  N   UNL     1       5.832  25.547  55.171  1.00  0.00    -0.378 N 
HETATM   12  C   UNL     1       5.397  25.554  56.586  1.00  0.00     0.150 C 
HETATM   13  C   UNL     1       6.405  26.329  57.465  1.00  0.00     0.254 C 
BRANCH  11  14
HETATM   14  C   UNL     1       6.572  24.469  54.691  1.00  0.00     0.030 A 
HETATM   15  C   UNL     1       6.857  24.282  53.326  1.00  0.00     0.031 A 
HETATM   16  C   UNL     1       7.577  23.172  52.859  1.00  0.00     0.026 A 
HETATM   17  C   UNL     1       8.023  22.209  53.753  1.00  0.00     0.034 A 
HETATM   18 CL   UNL     1       8.898  20.846  53.183  1.00  0.00    -0.084 Cl
HETATM   19  C   UNL     1       7.747  22.346  55.105  1.00  0.00     0.026 A 
HETATM   20  C   UNL     1       7.024  23.458  55.560  1.00  0.00     0.031 A 
ENDBRANCH  11  14
ENDBRANCH   6   7
ENDBRANCH   5   6
ENDBRANCH   2   5
BRANCH   1  21
HETATM   21  C   UNL     1       6.369  32.559  60.450  1.00  0.00     0.076 A 
HETATM   22  C   UNL     1       7.536  32.583  61.235  1.00  0.00     0.085 A 
HETATM   23  C   UNL     1       7.471  33.126  62.517  1.00  0.00     0.039 A 
HETATM   24  C   UNL     1       6.257  33.610  63.015  1.00  0.00     0.015 A 
HETATM   25  C   UNL     1       5.083  33.559  62.251  1.00  0.00    -0.025 A 
HETATM   26  C   UNL     1       5.117  33.019  60.944  1.00  0.00    -0.007 A 
HETATM   27  C   UNL     1       3.874  34.037  62.783  1.00  0.00     0.012 A 
HETATM   28  C   UNL     1       3.894  32.957  60.227  1.00  0.00     0.013 A 
HETATM   29  C   UNL     1       2.700  33.434  60.771  1.00  0.00     0.001 A 
HETATM   30  C   UNL     1       2.692  33.979  62.048  1.00  0.00     0.001 A 
BRANCH  22  31
HETATM   31  O   UNL     1       8.694  32.116  60.665  1.00  0.00    -0.350 OA
BRANCH  31  32
HETATM   32  C   UNL     1       9.706  31.674  61.575  1.00  0.00     0.171 C 
HETATM   33  C   UNL     1       9.375  30.250  61.981  1.00  0.00     0.034 C 
ENDBRANCH  31  32
ENDBRANCH  22  31
ENDBRANCH   1  21
TORSDOF 7
ENDMDL
MODEL 10
REMARK VINA RESULT:      -8.9      3.321      3.912
REMARK  7 active torsions:
REMARK  status: ('A' for Active; 'I' for Inactive)
REMARK    1  A    between atoms: C_2  and  O_3 
REMARK    2  A    between atoms: O_3  and  C_4 
REMARK    3  A    between atoms: C_5  and  C_6 
REMARK       I    between atoms: C_6  and  N_7 
REMARK    4  A    between atoms: N_7  and  C_8 
REMARK    5  A    between atoms: C_8  and  C_9 
REMARK    6  A    between atoms: C_9  and  N_10 
REMARK    7  A    between atoms: N_14  and  C_15 
ROOT
HETATM    1  C   UNL     1       6.735  31.431  58.740  1.00  0.00     0.255 C 
HETATM    2  N   UNL     1       6.434  30.131  58.391  1.00  0.00    -0.355 N 
HETATM    3  O   UNL     1       6.361  32.391  58.074  1.00  0.00    -0.268 OA
HETATM    4  H   UNL     1       6.825  29.395  58.977  1.00  0.00     0.162 HD
ENDROOT
BRANCH   2   5
HETATM    5  C   UNL     1       5.921  29.755  57.080  1.00  0.00     0.150 C 
BRANCH   5   6
HETATM    6  C   UNL     1       6.993  29.445  56.012  1.00  0.00     0.254 C 
BRANCH   6   7
HETATM    7  N   UNL     1       6.698  28.202  55.213  1.00  0.00    -0.067 N 
HETATM    8  H   UNL     1       6.854  27.395  55.853  1.00  0.00     0.280 HD
HETATM    9  C   UNL     1       5.240  28.048  54.783  1.00  0.00     0.254 C 
HETATM   10  C   UNL     1       5.039  26.693  54.067  1.00  0.00     0.150 C 
HETATM   11  N   UNL     1       5.956  26.574  52.915  1.00  0.00    -0.378 N 
HETATM   12  C   UNL     1       7.380  26.687  53.304  1.00  0.00     0.150 C 
HETATM   13  C   UNL     1       7.645  28.024  54.032  1.00  0.00     0.254 C 
BRANCH  11  14
HETATM   14  C   UNL     1       5.564  26.964  51.637  1.00  0.00     0.030 A 
HETATM   15  C   UNL     1       5.575  28.303  51.207  1.00  0.00     0.031 A 
HETATM   16  C   UNL     1       5.146  28.680  49.926  1.00  0.00     0.026 A 
HETATM   17  C   UNL     1       4.682  27.718  49.040  1.00  0.00     0.034 A 
HETATM   18 CL   UNL     1       4.150  28.177  47.473  1.00  0.00    -0.084 Cl
HETATM   19  C   UNL     1       4.638  26.388  49.431  1.00  0.00     0.026 A 
HETATM   20  C   UNL     1       5.066  26.024  50.715  1.00  0.00     0.031 A 
ENDBRANCH  11  14
ENDBRANCH   6   7
ENDBRANCH   5   6
ENDBRANCH   2   5
BRANCH   1  21
HETATM   21  C   UNL     1       7.512  31.601  59.986  1.00  0.00     0.076 A 
HETATM   22  C   UNL     1       8.794  31.025  60.044  1.00  0.00     0.085 A 
HETATM   23  C   UNL     1       9.560  31.207  61.194  1.00  0.00     0.039 A 
HETATM   24  C   UNL     1       9.044  31.926  62.276  1.00  0.00     0.015 A 
HETATM   25  C   UNL     1       7.753  32.474  62.239  1.00  0.00    -0.025 A 
HETATM   26  C   UNL     1       6.953  32.312  61.084  1.00  0.00    -0.007 A 
HETATM   27  C   UNL     1       7.254  33.178  63.347  1.00  0.00     0.012 A 
HETATM   28  C   UNL     1       5.643  32.854  61.112  1.00  0.00     0.013 A 
HETATM   29  C   UNL     1       5.160  33.549  62.222  1.00  0.00     0.001 A 
HETATM   30  C   UNL     1       5.969  33.715  63.339  1.00  0.00     0.001 A 
BRANCH  22  31
HETATM   31  O   UNL     1       9.241  30.359  58.930  1.00  0.00    -0.350 OA
BRANCH  31  32
HETATM   32  C   UNL     1      10.245  31.028  58.161  1.00  0.00     0.171 C 
HETATM   33  C   UNL     1      10.757  30.053  57.117  1.00  0.00     0.034 C 
ENDBRANCH  31  32
ENDBRANCH  22  31
ENDBRANCH   1  21
TORSDOF 7
ENDMDL
