MODEL 1
REMARK VINA RESULT:      -8.3      0.000      0.000
REMARK  7 active torsions:
REMARK  status: ('A' for Active; 'I' for Inactive)
REMARK    1  A    between atoms: C_2  and  N_3 
REMARK    2  A    between atoms: N_3  and  C_4 
REMARK    3  A    between atoms: C_6  and  N_7 
REMARK    4  A    between atoms: N_7  and  C_8 
REMARK    5  A    between atoms: C_8  and  C_9 
REMARK    6  A    between atoms: C_10  and  O_11 
REMARK    7  A    between atoms: C_14  and  O_15 
ROOT
HETATM    1  C   UNL     1       7.523  24.079  53.769  1.00  0.00     0.135 A 
HETATM    2  N   UNL     1       7.674  24.964  54.770  1.00  0.00    -0.052 NA
HETATM    3  C   UNL     1       8.163  24.542  55.946  1.00  0.00     0.702 A 
HETATM    4  N   UNL     1       8.511  23.273  56.149  1.00  0.00    -0.189 N 
HETATM    5  H   UNL     1       8.895  23.033  57.051  1.00  0.00     0.184 HD
HETATM    6  C   UNL     1       8.408  22.355  55.182  1.00  0.00     0.062 A 
HETATM    7  C   UNL     1       7.905  22.731  53.922  1.00  0.00     0.032 A 
HETATM    8  C   UNL     1       8.815  21.033  55.424  1.00  0.00     0.031 A 
HETATM    9  C   UNL     1       8.736  20.077  54.412  1.00  0.00     0.002 A 
HETATM   10  C   UNL     1       8.255  20.435  53.156  1.00  0.00     0.001 A 
HETATM   11  C   UNL     1       7.843  21.746  52.909  1.00  0.00     0.017 A 
ENDROOT
BRANCH   3  12
HETATM   12  N   UNL     1       8.366  25.418  56.979  1.00  0.00    -0.220 N 
HETATM   13  H   UNL     1       9.266  25.571  57.408  1.00  0.00     0.178 HD
BRANCH  12  14
HETATM   14  C   UNL     1       7.230  25.879  57.774  1.00  0.00     0.179 C 
BRANCH  14  15
HETATM   15  C   UNL     1       6.541  27.071  57.136  1.00  0.00    -0.006 A 
HETATM   16  C   UNL     1       7.176  28.331  57.166  1.00  0.00     0.078 A 
HETATM   17  C   UNL     1       6.540  29.457  56.623  1.00  0.00     0.074 A 
HETATM   18  C   UNL     1       5.264  29.348  56.068  1.00  0.00     0.070 A 
HETATM   19  C   UNL     1       4.628  28.108  56.052  1.00  0.00     0.037 A 
HETATM   20  C   UNL     1       5.251  26.982  56.588  1.00  0.00     0.014 A 
BRANCH  16  21
HETATM   21  O   UNL     1       8.417  28.348  57.754  1.00  0.00    -0.355 OA
HETATM   22  C   UNL     1       9.482  28.950  57.025  1.00  0.00     0.210 C 
ENDBRANCH  16  21
BRANCH  18  23
HETATM   23  O   UNL     1       4.533  30.363  55.515  1.00  0.00    -0.356 OA
HETATM   24  C   UNL     1       3.965  30.131  54.232  1.00  0.00     0.210 C 
ENDBRANCH  18  23
ENDBRANCH  14  15
ENDBRANCH  12  14
ENDBRANCH   3  12
BRANCH   1  25
HETATM   25  N   UNL     1       7.044  24.532  52.537  1.00  0.00    -0.272 NA
HETATM   26  H   UNL     1       6.903  23.771  51.877  1.00  0.00     0.129 HD
BRANCH  25  27
HETATM   27  C   UNL     1       5.926  25.486  52.523  1.00  0.00     0.053 C 
HETATM   28  C   UNL     1       4.643  24.825  53.025  1.00  0.00     0.026 C 
HETATM   29  C   UNL     1       5.737  25.968  51.084  1.00  0.00     0.026 C 
ENDBRANCH  25  27
ENDBRANCH   1  25
TORSDOF 7
ENDMDL
MODEL 2
REMARK VINA RESULT:      -8.1      2.812      7.255
REMARK  7 active torsions:
REMARK  status: ('A' for Active; 'I' for Inactive)
REMARK    1  A    between atoms: C_2  and  N_3 
REMARK    2  A    between atoms: N_3  and  C_4 
REMARK    3  A    between atoms: C_6  and  N_7 
REMARK    4  A    between atoms: N_7  and  C_8 
REMARK    5  A    between atoms: C_8  and  C_9 
REMARK    6  A    between atoms: C_10  and  O_11 
REMARK    7  A    between atoms: C_14  and  O_15 
ROOT
HETATM    1  C   UNL     1       6.652  29.470  56.980  1.00  0.00     0.135 A 
HETATM    2  N   UNL     1       6.169  28.771  55.938  1.00  0.00    -0.052 NA
HETATM    3  C   UNL     1       7.010  28.377  54.970  1.00  0.00     0.702 A 
HETATM    4  N   UNL     1       8.312  28.652  55.014  1.00  0.00    -0.189 N 
HETATM    5  H   UNL     1       8.888  28.302  54.263  1.00  0.00     0.184 HD
HETATM    6  C   UNL     1       8.853  29.321  56.038  1.00  0.00     0.062 A 
HETATM    7  C   UNL     1       8.027  29.761  57.090  1.00  0.00     0.032 A 
HETATM    8  C   UNL     1      10.235  29.564  56.064  1.00  0.00     0.031 A 
HETATM    9  C   UNL     1      10.810  30.237  57.142  1.00  0.00     0.002 A 
HETATM   10  C   UNL     1      10.011  30.666  58.197  1.00  0.00     0.001 A 
HETATM   11  C   UNL     1       8.634  30.432  58.176  1.00  0.00     0.017 A 
ENDROOT
BRANCH   3  12
HETATM   12  N   UNL     1       6.564  27.632  53.911  1.00  0.00    -0.220 N 
HETATM   13  H   UNL     1       6.616  27.944  52.953  1.00  0.00     0.178 HD
BRANCH  12  14
HETATM   14  C   UNL     1       5.633  26.529  54.139  1.00  0.00     0.179 C 
BRANCH  14  15
HETATM   15  C   UNL     1       6.341  25.187  54.155  1.00  0.00    -0.006 A 
HETATM   16  C   UNL     1       6.747  24.637  55.389  1.00  0.00     0.078 A 
HETATM   17  C   UNL     1       7.442  23.419  55.426  1.00  0.00     0.074 A 
HETATM   18  C   UNL     1       7.760  22.751  54.243  1.00  0.00     0.070 A 
HETATM   19  C   UNL     1       7.375  23.301  53.021  1.00  0.00     0.037 A 
HETATM   20  C   UNL     1       6.683  24.510  52.973  1.00  0.00     0.014 A 
BRANCH  16  21
HETATM   21  O   UNL     1       6.414  25.375  56.498  1.00  0.00    -0.355 OA
HETATM   22  C   UNL     1       7.452  25.674  57.426  1.00  0.00     0.210 C 
ENDBRANCH  16  21
BRANCH  18  23
HETATM   23  O   UNL     1       8.437  21.567  54.139  1.00  0.00    -0.356 OA
HETATM   24  C   UNL     1       8.099  20.718  53.049  1.00  0.00     0.210 C 
ENDBRANCH  18  23
ENDBRANCH  14  15
ENDBRANCH  12  14
ENDBRANCH   3  12
BRANCH   1  25
HETATM   25  N   UNL     1       5.776  29.848  58.001  1.00  0.00    -0.272 NA
HETATM   26  H   UNL     1       6.214  29.802  58.918  1.00  0.00     0.129 HD
BRANCH  25  27
HETATM   27  C   UNL     1       4.983  31.074  57.832  1.00  0.00     0.053 C 
HETATM   28  C   UNL     1       5.222  32.039  58.992  1.00  0.00     0.026 C 
HETATM   29  C   UNL     1       3.508  30.676  57.777  1.00  0.00     0.026 C 
ENDBRANCH  25  27
ENDBRANCH   1  25
TORSDOF 7
ENDMDL
MODEL 3
REMARK VINA RESULT:      -8.0      2.948      5.628
REMARK  7 active torsions:
REMARK  status: ('A' for Active; 'I' for Inactive)
REMARK    1  A    between atoms: C_2  and  N_3 
REMARK    2  A    between atoms: N_3  and  C_4 
REMARK    3  A    between atoms: C_6  and  N_7 
REMARK    4  A    between atoms: N_7  and  C_8 
REMARK    5  A    between atoms: C_8  and  C_9 
REMARK    6  A    between atoms: C_10  and  O_11 
REMARK    7  A    between atoms: C_14  and  O_15 
ROOT
HETATM    1  C   UNL     1       7.194  24.176  54.946  1.00  0.00     0.135 A 
HETATM    2  N   UNL     1       6.977  25.061  53.957  1.00  0.00    -0.052 NA
HETATM    3  C   UNL     1       7.170  24.679  52.686  1.00  0.00     0.702 A 
HETATM    4  N   UNL     1       7.563  23.446  52.373  1.00  0.00    -0.189 N 
HETATM    5  H   UNL     1       7.664  23.223  51.394  1.00  0.00     0.184 HD
HETATM    6  C   UNL     1       7.769  22.517  53.313  1.00  0.00     0.062 A 
HETATM    7  C   UNL     1       7.581  22.850  54.668  1.00  0.00     0.032 A 
HETATM    8  C   UNL     1       8.152  21.218  52.942  1.00  0.00     0.031 A 
HETATM    9  C   UNL     1       8.342  20.237  53.915  1.00  0.00     0.002 A 
HETATM   10  C   UNL     1       8.147  20.545  55.258  1.00  0.00     0.001 A 
HETATM   11  C   UNL     1       7.770  21.836  55.635  1.00  0.00     0.017 A 
ENDROOT
BRANCH   3  12
HETATM   12  N   UNL     1       6.925  25.539  51.648  1.00  0.00    -0.220 N 
HETATM   13  H   UNL     1       7.553  25.659  50.867  1.00  0.00     0.178 HD
BRANCH  12  14
HETATM   14  C   UNL     1       5.947  26.612  51.809  1.00  0.00     0.179 C 
BRANCH  14  15
HETATM   15  C   UNL     1       5.186  26.879  50.524  1.00  0.00    -0.006 A 
HETATM   16  C   UNL     1       5.021  28.210  50.085  1.00  0.00     0.078 A 
HETATM   17  C   UNL     1       4.283  28.485  48.924  1.00  0.00     0.074 A 
HETATM   18  C   UNL     1       3.685  27.449  48.205  1.00  0.00     0.070 A 
HETATM   19  C   UNL     1       3.832  26.136  48.646  1.00  0.00     0.037 A 
HETATM   20  C   UNL     1       4.564  25.851  49.798  1.00  0.00     0.014 A 
BRANCH  16  21
HETATM   21  O   UNL     1       5.623  29.164  50.867  1.00  0.00    -0.355 OA
HETATM   22  C   UNL     1       5.563  30.515  50.420  1.00  0.00     0.210 C 
ENDBRANCH  16  21
BRANCH  18  23
HETATM   23  O   UNL     1       2.937  27.582  47.067  1.00  0.00    -0.356 OA
HETATM   24  C   UNL     1       1.588  27.134  47.121  1.00  0.00     0.210 C 
ENDBRANCH  18  23
ENDBRANCH  14  15
ENDBRANCH  12  14
ENDBRANCH   3  12
BRANCH   1  25
HETATM   25  N   UNL     1       6.959  24.571  56.265  1.00  0.00    -0.272 NA
HETATM   26  H   UNL     1       7.793  24.494  56.843  1.00  0.00     0.129 HD
BRANCH  25  27
HETATM   27  C   UNL     1       6.239  25.829  56.507  1.00  0.00     0.053 C 
HETATM   28  C   UNL     1       7.075  26.777  57.366  1.00  0.00     0.026 C 
HETATM   29  C   UNL     1       4.930  25.492  57.223  1.00  0.00     0.026 C 
ENDBRANCH  25  27
ENDBRANCH   1  25
TORSDOF 7
ENDMDL
MODEL 4
REMARK VINA RESULT:      -7.9      3.815      6.833
REMARK  7 active torsions:
REMARK  status: ('A' for Active; 'I' for Inactive)
REMARK    1  A    between atoms: C_2  and  N_3 
REMARK    2  A    between atoms: N_3  and  C_4 
REMARK    3  A    between atoms: C_6  and  N_7 
REMARK    4  A    between atoms: N_7  and  C_8 
REMARK    5  A    between atoms: C_8  and  C_9 
REMARK    6  A    between atoms: C_10  and  O_11 
REMARK    7  A    between atoms: C_14  and  O_15 
ROOT
HETATM    1  C   UNL     1       5.868  25.763  54.733  1.00  0.00     0.135 A 
HETATM    2  N   UNL     1       5.133  26.335  53.763  1.00  0.00    -0.052 NA
HETATM    3  C   UNL     1       5.272  25.905  52.500  1.00  0.00     0.702 A 
HETATM    4  N   UNL     1       6.111  24.922  52.179  1.00  0.00    -0.189 N 
HETATM    5  H   UNL     1       6.144  24.634  51.212  1.00  0.00     0.184 HD
HETATM    6  C   UNL     1       6.847  24.299  53.105  1.00  0.00     0.062 A 
HETATM    7  C   UNL     1       6.747  24.699  54.452  1.00  0.00     0.032 A 
HETATM    8  C   UNL     1       7.697  23.245  52.733  1.00  0.00     0.031 A 
HETATM    9  C   UNL     1       8.446  22.573  53.698  1.00  0.00     0.002 A 
HETATM   10  C   UNL     1       8.350  22.945  55.035  1.00  0.00     0.001 A 
HETATM   11  C   UNL     1       7.510  23.996  55.413  1.00  0.00     0.017 A 
ENDROOT
BRANCH   3  12
HETATM   12  N   UNL     1       4.516  26.436  51.488  1.00  0.00    -0.220 N 
HETATM   13  H   UNL     1       3.514  26.539  51.540  1.00  0.00     0.178 HD
BRANCH  12  14
HETATM   14  C   UNL     1       5.064  26.514  50.136  1.00  0.00     0.179 C 
BRANCH  14  15
HETATM   15  C   UNL     1       3.972  26.647  49.092  1.00  0.00    -0.006 A 
HETATM   16  C   UNL     1       3.129  27.779  49.117  1.00  0.00     0.078 A 
HETATM   17  C   UNL     1       2.084  27.904  48.189  1.00  0.00     0.074 A 
HETATM   18  C   UNL     1       1.852  26.900  47.247  1.00  0.00     0.070 A 
HETATM   19  C   UNL     1       2.673  25.773  47.231  1.00  0.00     0.037 A 
HETATM   20  C   UNL     1       3.715  25.640  48.148  1.00  0.00     0.014 A 
BRANCH  16  21
HETATM   21  O   UNL     1       3.415  28.702  50.093  1.00  0.00    -0.355 OA
HETATM   22  C   UNL     1       2.317  29.341  50.736  1.00  0.00     0.210 C 
ENDBRANCH  16  21
BRANCH  18  23
HETATM   23  O   UNL     1       0.869  26.894  46.297  1.00  0.00    -0.356 OA
HETATM   24  C   UNL     1      -0.196  27.824  46.457  1.00  0.00     0.210 C 
ENDBRANCH  18  23
ENDBRANCH  14  15
ENDBRANCH  12  14
ENDBRANCH   3  12
BRANCH   1  25
HETATM   25  N   UNL     1       5.694  26.194  56.051  1.00  0.00    -0.272 NA
HETATM   26  H   UNL     1       5.809  25.436  56.721  1.00  0.00     0.129 HD
BRANCH  25  27
HETATM   27  C   UNL     1       6.374  27.421  56.488  1.00  0.00     0.053 C 
HETATM   28  C   UNL     1       7.486  27.098  57.486  1.00  0.00     0.026 C 
HETATM   29  C   UNL     1       5.332  28.330  57.141  1.00  0.00     0.026 C 
ENDBRANCH  25  27
ENDBRANCH   1  25
TORSDOF 7
ENDMDL
MODEL 5
REMARK VINA RESULT:      -7.9      1.754      2.630
REMARK  7 active torsions:
REMARK  status: ('A' for Active; 'I' for Inactive)
REMARK    1  A    between atoms: C_2  and  N_3 
REMARK    2  A    between atoms: N_3  and  C_4 
REMARK    3  A    between atoms: C_6  and  N_7 
REMARK    4  A    between atoms: N_7  and  C_8 
REMARK    5  A    between atoms: C_8  and  C_9 
REMARK    6  A    between atoms: C_10  and  O_11 
REMARK    7  A    between atoms: C_14  and  O_15 
ROOT
HETATM    1  C   UNL     1       7.436  24.729  53.637  1.00  0.00     0.135 A 
HETATM    2  N   UNL     1       7.363  25.695  54.570  1.00  0.00    -0.052 NA
HETATM    3  C   UNL     1       7.407  25.353  55.867  1.00  0.00     0.702 A 
HETATM    4  N   UNL     1       7.527  24.086  56.258  1.00  0.00    -0.189 N 
HETATM    5  H   UNL     1       7.579  23.907  57.250  1.00  0.00     0.184 HD
HETATM    6  C   UNL     1       7.631  23.087  55.375  1.00  0.00     0.062 A 
HETATM    7  C   UNL     1       7.596  23.376  53.997  1.00  0.00     0.032 A 
HETATM    8  C   UNL     1       7.790  21.767  55.825  1.00  0.00     0.031 A 
HETATM    9  C   UNL     1       7.926  20.724  54.910  1.00  0.00     0.002 A 
HETATM   10  C   UNL     1       7.908  20.992  53.544  1.00  0.00     0.001 A 
HETATM   11  C   UNL     1       7.746  22.303  53.089  1.00  0.00     0.017 A 
ENDROOT
BRANCH   3  12
HETATM   12  N   UNL     1       7.371  26.309  56.848  1.00  0.00    -0.220 N 
HETATM   13  H   UNL     1       6.564  26.477  57.429  1.00  0.00     0.178 HD
BRANCH  12  14
HETATM   14  C   UNL     1       8.349  27.395  56.839  1.00  0.00     0.179 C 
BRANCH  14  15
HETATM   15  C   UNL     1       7.750  28.697  57.337  1.00  0.00    -0.006 A 
HETATM   16  C   UNL     1       6.713  29.305  56.598  1.00  0.00     0.078 A 
HETATM   17  C   UNL     1       6.173  30.531  57.013  1.00  0.00     0.074 A 
HETATM   18  C   UNL     1       6.672  31.174  58.147  1.00  0.00     0.070 A 
HETATM   19  C   UNL     1       7.708  30.584  58.869  1.00  0.00     0.037 A 
HETATM   20  C   UNL     1       8.250  29.365  58.466  1.00  0.00     0.014 A 
BRANCH  16  21
HETATM   21  O   UNL     1       6.303  28.614  55.484  1.00  0.00    -0.355 OA
HETATM   22  C   UNL     1       4.903  28.435  55.299  1.00  0.00     0.210 C 
ENDBRANCH  16  21
BRANCH  18  23
HETATM   23  O   UNL     1       6.243  32.370  58.653  1.00  0.00    -0.356 OA
HETATM   24  C   UNL     1       5.833  32.391  60.015  1.00  0.00     0.210 C 
ENDBRANCH  18  23
ENDBRANCH  14  15
ENDBRANCH  12  14
ENDBRANCH   3  12
BRANCH   1  25
HETATM   25  N   UNL     1       7.424  25.095  52.289  1.00  0.00    -0.272 NA
HETATM   26  H   UNL     1       7.891  24.408  51.701  1.00  0.00     0.129 HD
BRANCH  25  27
HETATM   27  C   UNL     1       6.162  25.559  51.696  1.00  0.00     0.053 C 
HETATM   28  C   UNL     1       5.963  27.054  51.944  1.00  0.00     0.026 C 
HETATM   29  C   UNL     1       5.022  24.765  52.335  1.00  0.00     0.026 C 
ENDBRANCH  25  27
ENDBRANCH   1  25
TORSDOF 7
ENDMDL
MODEL 6
REMARK VINA RESULT:      -7.8      2.652      5.688
REMARK  7 active torsions:
REMARK  status: ('A' for Active; 'I' for Inactive)
REMARK    1  A    between atoms: C_2  and  N_3 
REMARK    2  A    between atoms: N_3  and  C_4 
REMARK    3  A    between atoms: C_6  and  N_7 
REMARK    4  A    between atoms: N_7  and  C_8 
REMARK    5  A    between atoms: C_8  and  C_9 
REMARK    6  A    between atoms: C_10  and  O_11 
REMARK    7  A    between atoms: C_14  and  O_15 
ROOT
HETATM    1  C   UNL     1       7.674  23.438  54.267  1.00  0.00     0.135 A 
HETATM    2  N   UNL     1       6.868  23.742  53.235  1.00  0.00    -0.052 NA
HETATM    3  C   UNL     1       6.063  24.812  53.331  1.00  0.00     0.702 A 
HETATM    4  N   UNL     1       6.045  25.585  54.414  1.00  0.00    -0.189 N 
HETATM    5  H   UNL     1       5.432  26.387  54.404  1.00  0.00     0.184 HD
HETATM    6  C   UNL     1       6.844  25.346  55.459  1.00  0.00     0.062 A 
HETATM    7  C   UNL     1       7.716  24.241  55.424  1.00  0.00     0.032 A 
HETATM    8  C   UNL     1       6.819  26.203  56.571  1.00  0.00     0.031 A 
HETATM    9  C   UNL     1       7.670  25.975  57.653  1.00  0.00     0.002 A 
HETATM   10  C   UNL     1       8.549  24.896  57.629  1.00  0.00     0.001 A 
HETATM   11  C   UNL     1       8.575  24.037  56.528  1.00  0.00     0.017 A 
ENDROOT
BRANCH   3  12
HETATM   12  N   UNL     1       5.252  25.177  52.288  1.00  0.00    -0.220 N 
HETATM   13  H   UNL     1       4.346  24.766  52.120  1.00  0.00     0.178 HD
BRANCH  12  14
HETATM   14  C   UNL     1       5.817  25.888  51.144  1.00  0.00     0.179 C 
BRANCH  14  15
HETATM   15  C   UNL     1       4.817  26.847  50.526  1.00  0.00    -0.006 A 
HETATM   16  C   UNL     1       4.309  27.909  51.304  1.00  0.00     0.078 A 
HETATM   17  C   UNL     1       3.351  28.782  50.770  1.00  0.00     0.074 A 
HETATM   18  C   UNL     1       2.872  28.597  49.472  1.00  0.00     0.070 A 
HETATM   19  C   UNL     1       3.360  27.540  48.707  1.00  0.00     0.037 A 
HETATM   20  C   UNL     1       4.313  26.666  49.227  1.00  0.00     0.014 A 
BRANCH  16  21
HETATM   21  O   UNL     1       4.818  27.998  52.577  1.00  0.00    -0.355 OA
HETATM   22  C   UNL     1       3.919  28.359  53.621  1.00  0.00     0.210 C 
ENDBRANCH  16  21
BRANCH  18  23
HETATM   23  O   UNL     1       1.938  29.368  48.837  1.00  0.00    -0.356 OA
HETATM   24  C   UNL     1       1.231  30.316  49.627  1.00  0.00     0.210 C 
ENDBRANCH  18  23
ENDBRANCH  14  15
ENDBRANCH  12  14
ENDBRANCH   3  12
BRANCH   1  25
HETATM   25  N   UNL     1       8.534  22.342  54.148  1.00  0.00    -0.272 NA
HETATM   26  H   UNL     1       9.333  22.412  54.774  1.00  0.00     0.129 HD
BRANCH  25  27
HETATM   27  C   UNL     1       7.957  20.991  54.142  1.00  0.00     0.053 C 
HETATM   28  C   UNL     1       8.455  20.183  55.340  1.00  0.00     0.026 C 
HETATM   29  C   UNL     1       8.374  20.307  52.839  1.00  0.00     0.026 C 
ENDBRANCH  25  27
ENDBRANCH   1  25
TORSDOF 7
ENDMDL
MODEL 7
REMARK VINA RESULT:      -7.8      2.496      5.334
REMARK  7 active torsions:
REMARK  status: ('A' for Active; 'I' for Inactive)
REMARK    1  A    between atoms: C_2  and  N_3 
REMARK    2  A    between atoms: N_3  and  C_4 
REMARK    3  A    between atoms: C_6  and  N_7 
REMARK    4  A    between atoms: N_7  and  C_8 
REMARK    5  A    between atoms: C_8  and  C_9 
REMARK    6  A    between atoms: C_10  and  O_11 
REMARK    7  A    between atoms: C_14  and  O_15 
ROOT
HETATM    1  C   UNL     1       6.549  25.857  53.638  1.00  0.00     0.135 A 
HETATM    2  N   UNL     1       7.149  26.706  54.490  1.00  0.00    -0.052 NA
HETATM    3  C   UNL     1       7.199  28.011  54.184  1.00  0.00     0.702 A 
HETATM    4  N   UNL     1       6.665  28.493  53.064  1.00  0.00    -0.189 N 
HETATM    5  H   UNL     1       6.718  29.489  52.912  1.00  0.00     0.184 HD
HETATM    6  C   UNL     1       6.032  27.700  52.192  1.00  0.00     0.062 A 
HETATM    7  C   UNL     1       5.941  26.319  52.454  1.00  0.00     0.032 A 
HETATM    8  C   UNL     1       5.453  28.249  51.037  1.00  0.00     0.031 A 
HETATM    9  C   UNL     1       4.769  27.431  50.137  1.00  0.00     0.002 A 
HETATM   10  C   UNL     1       4.656  26.067  50.387  1.00  0.00     0.001 A 
HETATM   11  C   UNL     1       5.234  25.513  51.532  1.00  0.00     0.017 A 
ENDROOT
BRANCH   3  12
HETATM   12  N   UNL     1       7.769  28.914  55.042  1.00  0.00    -0.220 N 
HETATM   13  H   UNL     1       7.907  29.887  54.813  1.00  0.00     0.178 HD
BRANCH  12  14
HETATM   14  C   UNL     1       8.566  28.440  56.171  1.00  0.00     0.179 C 
BRANCH  14  15
HETATM   15  C   UNL     1       8.710  29.501  57.246  1.00  0.00    -0.006 A 
HETATM   16  C   UNL     1       7.579  29.871  58.004  1.00  0.00     0.078 A 
HETATM   17  C   UNL     1       7.677  30.881  58.973  1.00  0.00     0.074 A 
HETATM   18  C   UNL     1       8.887  31.546  59.181  1.00  0.00     0.070 A 
HETATM   19  C   UNL     1      10.001  31.194  58.421  1.00  0.00     0.037 A 
HETATM   20  C   UNL     1       9.915  30.191  57.457  1.00  0.00     0.014 A 
BRANCH  16  21
HETATM   21  O   UNL     1       6.427  29.182  57.714  1.00  0.00    -0.355 OA
HETATM   22  C   UNL     1       5.260  29.945  57.423  1.00  0.00     0.210 C 
ENDBRANCH  16  21
BRANCH  18  23
HETATM   23  O   UNL     1       9.114  32.548  60.083  1.00  0.00    -0.356 OA
HETATM   24  C   UNL     1       9.515  32.166  61.393  1.00  0.00     0.210 C 
ENDBRANCH  18  23
ENDBRANCH  14  15
ENDBRANCH  12  14
ENDBRANCH   3  12
BRANCH   1  25
HETATM   25  N   UNL     1       6.472  24.504  53.979  1.00  0.00    -0.272 NA
HETATM   26  H   UNL     1       5.758  24.014  53.445  1.00  0.00     0.129 HD
BRANCH  25  27
HETATM   27  C   UNL     1       7.717  23.729  54.073  1.00  0.00     0.053 C 
HETATM   28  C   UNL     1       7.820  22.727  52.923  1.00  0.00     0.026 C 
HETATM   29  C   UNL     1       7.711  22.990  55.412  1.00  0.00     0.026 C 
ENDBRANCH  25  27
ENDBRANCH   1  25
TORSDOF 7
ENDMDL
MODEL 8
REMARK VINA RESULT:      -7.6      3.402      6.722
REMARK  7 active torsions:
REMARK  status: ('A' for Active; 'I' for Inactive)
REMARK    1  A    between atoms: C_2  and  N_3 
REMARK    2  A    between atoms: N_3  and  C_4 
REMARK    3  A    between atoms: C_6  and  N_7 
REMARK    4  A    between atoms: N_7  and  C_8 
REMARK    5  A    between atoms: C_8  and  C_9 
REMARK    6  A    between atoms: C_10  and  O_11 
REMARK    7  A    between atoms: C_14  and  O_15 
ROOT
HETATM    1  C   UNL     1       7.227  23.720  54.247  1.00  0.00     0.135 A 
HETATM    2  N   UNL     1       6.909  24.046  52.981  1.00  0.00    -0.052 NA
HETATM    3  C   UNL     1       6.798  25.342  52.651  1.00  0.00     0.702 A 
HETATM    4  N   UNL     1       6.999  26.315  53.537  1.00  0.00    -0.189 N 
HETATM    5  H   UNL     1       6.922  27.266  53.210  1.00  0.00     0.184 HD
HETATM    6  C   UNL     1       7.343  26.050  54.802  1.00  0.00     0.062 A 
HETATM    7  C   UNL     1       7.481  24.711  55.215  1.00  0.00     0.032 A 
HETATM    8  C   UNL     1       7.578  27.103  55.700  1.00  0.00     0.031 A 
HETATM    9  C   UNL     1       7.964  26.835  57.013  1.00  0.00     0.002 A 
HETATM   10  C   UNL     1       8.119  25.518  57.435  1.00  0.00     0.001 A 
HETATM   11  C   UNL     1       7.881  24.464  56.549  1.00  0.00     0.017 A 
ENDROOT
BRANCH   3  12
HETATM   12  N   UNL     1       6.512  25.718  51.365  1.00  0.00    -0.220 N 
HETATM   13  H   UNL     1       7.188  26.140  50.747  1.00  0.00     0.178 HD
BRANCH  12  14
HETATM   14  C   UNL     1       5.121  25.894  50.952  1.00  0.00     0.179 C 
BRANCH  14  15
HETATM   15  C   UNL     1       4.959  27.070  50.006  1.00  0.00    -0.006 A 
HETATM   16  C   UNL     1       4.268  26.884  48.790  1.00  0.00     0.078 A 
HETATM   17  C   UNL     1       4.142  27.943  47.879  1.00  0.00     0.074 A 
HETATM   18  C   UNL     1       4.719  29.184  48.155  1.00  0.00     0.070 A 
HETATM   19  C   UNL     1       5.416  29.365  49.348  1.00  0.00     0.037 A 
HETATM   20  C   UNL     1       5.545  28.320  50.261  1.00  0.00     0.014 A 
BRANCH  16  21
HETATM   21  O   UNL     1       3.757  25.625  48.592  1.00  0.00    -0.355 OA
HETATM   22  C   UNL     1       2.759  25.470  47.587  1.00  0.00     0.210 C 
ENDBRANCH  16  21
BRANCH  18  23
HETATM   23  O   UNL     1       4.677  30.292  47.353  1.00  0.00    -0.356 OA
HETATM   24  C   UNL     1       3.525  30.459  46.535  1.00  0.00     0.210 C 
ENDBRANCH  18  23
ENDBRANCH  14  15
ENDBRANCH  12  14
ENDBRANCH   3  12
BRANCH   1  25
HETATM   25  N   UNL     1       7.374  22.370  54.575  1.00  0.00    -0.272 NA
HETATM   26  H   UNL     1       6.527  21.836  54.393  1.00  0.00     0.129 HD
BRANCH  25  27
HETATM   27  C   UNL     1       8.578  21.660  54.121  1.00  0.00     0.053 C 
HETATM   28  C   UNL     1       8.226  20.620  53.057  1.00  0.00     0.026 C 
HETATM   29  C   UNL     1       9.206  20.975  55.335  1.00  0.00     0.026 C 
ENDBRANCH  25  27
ENDBRANCH   1  25
TORSDOF 7
ENDMDL
MODEL 9
REMARK VINA RESULT:      -7.6      3.761      7.337
REMARK  7 active torsions:
REMARK  status: ('A' for Active; 'I' for Inactive)
REMARK    1  A    between atoms: C_2  and  N_3 
REMARK    2  A    between atoms: N_3  and  C_4 
REMARK    3  A    between atoms: C_6  and  N_7 
REMARK    4  A    between atoms: N_7  and  C_8 
REMARK    5  A    between atoms: C_8  and  C_9 
REMARK    6  A    between atoms: C_10  and  O_11 
REMARK    7  A    between atoms: C_14  and  O_15 
ROOT
HETATM    1  C   UNL     1       6.089  24.924  53.696  1.00  0.00     0.135 A 
HETATM    2  N   UNL     1       6.106  24.997  52.353  1.00  0.00    -0.052 NA
HETATM    3  C   UNL     1       5.582  26.076  51.753  1.00  0.00     0.702 A 
HETATM    4  N   UNL     1       5.052  27.081  52.446  1.00  0.00    -0.189 N 
HETATM    5  H   UNL     1       4.699  27.871  51.927  1.00  0.00     0.184 HD
HETATM    6  C   UNL     1       5.032  27.074  53.783  1.00  0.00     0.062 A 
HETATM    7  C   UNL     1       5.568  25.973  54.478  1.00  0.00     0.032 A 
HETATM    8  C   UNL     1       4.493  28.167  54.481  1.00  0.00     0.031 A 
HETATM    9  C   UNL     1       4.494  28.179  55.876  1.00  0.00     0.002 A 
HETATM   10  C   UNL     1       5.033  27.106  56.579  1.00  0.00     0.001 A 
HETATM   11  C   UNL     1       5.566  26.013  55.892  1.00  0.00     0.017 A 
ENDROOT
BRANCH   3  12
HETATM   12  N   UNL     1       5.612  26.206  50.389  1.00  0.00    -0.220 N 
HETATM   13  H   UNL     1       6.103  25.568  49.782  1.00  0.00     0.178 HD
BRANCH  12  14
HETATM   14  C   UNL     1       5.271  27.486  49.774  1.00  0.00     0.179 C 
BRANCH  14  15
HETATM   15  C   UNL     1       3.917  27.443  49.092  1.00  0.00    -0.006 A 
HETATM   16  C   UNL     1       2.857  28.212  49.616  1.00  0.00     0.078 A 
HETATM   17  C   UNL     1       1.583  28.155  49.030  1.00  0.00     0.074 A 
HETATM   18  C   UNL     1       1.346  27.319  47.937  1.00  0.00     0.070 A 
HETATM   19  C   UNL     1       2.387  26.545  47.428  1.00  0.00     0.037 A 
HETATM   20  C   UNL     1       3.656  26.596  48.002  1.00  0.00     0.014 A 
BRANCH  16  21
HETATM   21  O   UNL     1       3.175  28.985  50.706  1.00  0.00    -0.355 OA
HETATM   22  C   UNL     1       2.621  30.295  50.768  1.00  0.00     0.210 C 
ENDBRANCH  16  21
BRANCH  18  23
HETATM   23  O   UNL     1       0.156  27.165  47.281  1.00  0.00    -0.356 OA
HETATM   24  C   UNL     1      -0.117  28.060  46.210  1.00  0.00     0.210 C 
ENDBRANCH  18  23
ENDBRANCH  14  15
ENDBRANCH  12  14
ENDBRANCH   3  12
BRANCH   1  25
HETATM   25  N   UNL     1       6.666  23.812  54.316  1.00  0.00    -0.272 NA
HETATM   26  H   UNL     1       6.102  22.973  54.200  1.00  0.00     0.129 HD
BRANCH  25  27
HETATM   27  C   UNL     1       8.095  23.548  54.101  1.00  0.00     0.053 C 
HETATM   28  C   UNL     1       8.296  22.238  53.338  1.00  0.00     0.026 C 
HETATM   29  C   UNL     1       8.769  23.464  55.471  1.00  0.00     0.026 C 
ENDBRANCH  25  27
ENDBRANCH   1  25
TORSDOF 7
ENDMDL
MODEL 10
REMARK VINA RESULT:      -7.6      2.912      8.087
REMARK  7 active torsions:
REMARK  status: ('A' for Active; 'I' for Inactive)
REMARK    1  A    between atoms: C_2  and  N_3 
REMARK    2  A    between atoms: N_3  and  C_4 
REMARK    3  A    between atoms: C_6  and  N_7 
REMARK    4  A    between atoms: N_7  and  C_8 
REMARK    5  A    between atoms: C_8  and  C_9 
REMARK    6  A    between atoms: C_10  and  O_11 
REMARK    7  A    between atoms: C_14  and  O_15 
ROOT
HETATM    1  C   UNL     1       7.330  29.408  57.913  1.00  0.00     0.135 A 
HETATM    2  N   UNL     1       7.669  28.362  57.138  1.00  0.00    -0.052 NA
HETATM    3  C   UNL     1       7.125  28.252  55.917  1.00  0.00     0.702 A 
HETATM    4  N   UNL     1       6.265  29.152  55.445  1.00  0.00    -0.189 N 
HETATM    5  H   UNL     1       5.916  29.017  54.508  1.00  0.00     0.184 HD
HETATM    6  C   UNL     1       5.912  30.225  56.160  1.00  0.00     0.062 A 
HETATM    7  C   UNL     1       6.448  30.404  57.450  1.00  0.00     0.032 A 
HETATM    8  C   UNL     1       5.026  31.170  55.617  1.00  0.00     0.031 A 
HETATM    9  C   UNL     1       4.675  32.306  56.346  1.00  0.00     0.002 A 
HETATM   10  C   UNL     1       5.207  32.505  57.617  1.00  0.00     0.001 A 
HETATM   11  C   UNL     1       6.085  31.568  58.166  1.00  0.00     0.017 A 
ENDROOT
BRANCH   3  12
HETATM   12  N   UNL     1       7.472  27.222  55.083  1.00  0.00    -0.220 N 
HETATM   13  H   UNL     1       8.329  27.203  54.551  1.00  0.00     0.178 HD
BRANCH  12  14
HETATM   14  C   UNL     1       6.448  26.292  54.614  1.00  0.00     0.179 C 
BRANCH  14  15
HETATM   15  C   UNL     1       6.988  24.881  54.475  1.00  0.00    -0.006 A 
HETATM   16  C   UNL     1       7.472  24.213  55.620  1.00  0.00     0.078 A 
HETATM   17  C   UNL     1       8.018  22.925  55.511  1.00  0.00     0.074 A 
HETATM   18  C   UNL     1       8.108  22.300  54.266  1.00  0.00     0.070 A 
HETATM   19  C   UNL     1       7.646  22.964  53.131  1.00  0.00     0.037 A 
HETATM   20  C   UNL     1       7.101  24.243  53.229  1.00  0.00     0.014 A 
BRANCH  16  21
HETATM   21  O   UNL     1       7.366  24.914  56.797  1.00  0.00    -0.355 OA
HETATM   22  C   UNL     1       8.511  24.958  57.642  1.00  0.00     0.210 C 
ENDBRANCH  16  21
BRANCH  18  23
HETATM   23  O   UNL     1       8.622  21.057  54.021  1.00  0.00    -0.356 OA
HETATM   24  C   UNL     1       8.331  20.470  52.759  1.00  0.00     0.210 C 
ENDBRANCH  18  23
ENDBRANCH  14  15
ENDBRANCH  12  14
ENDBRANCH   3  12
BRANCH   1  25
HETATM   25  N   UNL     1       7.926  29.533  59.171  1.00  0.00    -0.272 NA
HETATM   26  H   UNL     1       8.373  28.670  59.471  1.00  0.00     0.129 HD
BRANCH  25  27
HETATM   27  C   UNL     1       8.765  30.709  59.440  1.00  0.00     0.053 C 
HETATM   28  C   UNL     1       9.979  30.733  58.511  1.00  0.00     0.026 C 
HETATM   29  C   UNL     1       9.222  30.638  60.897  1.00  0.00     0.026 C 
ENDBRANCH  25  27
ENDBRANCH   1  25
TORSDOF 7
ENDMDL
