MODEL 1
REMARK VINA RESULT:      -9.2      0.000      0.000
REMARK  2 active torsions:
REMARK  status: ('A' for Active; 'I' for Inactive)
REMARK    1  A    between atoms: C_9  and  C_11 
REMARK    2  A    between atoms: C_9  and  O_10 
ROOT
HETATM    1  C   UNL     1      10.396  29.683  56.867  1.00  0.00     0.048 C 
HETATM    2  C   UNL     1       9.015  29.113  57.022  1.00  0.00    -0.061 A 
HETATM    3  C   UNL     1       8.790  27.738  56.857  1.00  0.00     0.020 A 
HETATM    4  C   UNL     1       7.493  27.257  56.981  1.00  0.00     0.018 A 
HETATM    5  C   UNL     1       6.446  28.128  57.282  1.00  0.00     0.045 A 
HETATM    6  N   UNL     1       5.249  27.435  57.380  1.00  0.00    -0.323 N 
HETATM    7  C   UNL     1       5.427  26.070  57.144  1.00  0.00     0.266 A 
HETATM    8  O   UNL     1       4.530  25.243  57.202  1.00  0.00    -0.269 OA
HETATM    9  C   UNL     1       6.961  25.842  56.859  1.00  0.00     0.198 A 
HETATM   10  C   UNL     1       6.633  29.481  57.455  1.00  0.00     0.031 A 
HETATM   11  C   UNL     1       7.935  29.973  57.318  1.00  0.00     0.009 A 
HETATM   12  H   UNL     1       4.348  27.835  57.593  1.00  0.00     0.169 HD
ENDROOT
BRANCH   9  13
HETATM   13  C   UNL     1       7.232  25.421  55.434  1.00  0.00     0.018 A 
HETATM   14  C   UNL     1       7.483  24.085  54.950  1.00  0.00     0.002 A 
HETATM   15  C   UNL     1       7.729  24.168  53.578  1.00  0.00     0.043 A 
HETATM   16  C   UNL     1       7.536  22.810  55.553  1.00  0.00     0.014 A 
HETATM   17  C   UNL     1       8.030  23.052  52.788  1.00  0.00     0.030 A 
HETATM   18  N   UNL     1       7.612  25.490  53.226  1.00  0.00    -0.365 N 
HETATM   19  C   UNL     1       8.078  21.804  53.415  1.00  0.00     0.002 A 
HETATM   20  C   UNL     1       7.832  21.682  54.780  1.00  0.00     0.001 A 
HETATM   21  H   UNL     1       7.732  25.843  52.286  1.00  0.00     0.165 HD
HETATM   22  C   UNL     1       7.322  26.250  54.323  1.00  0.00     0.100 A 
ENDBRANCH   9  13
BRANCH   9  23
HETATM   23  O   UNL     1       7.566  25.011  57.839  1.00  0.00    -0.371 OA
HETATM   24  H   UNL     1       8.331  24.594  57.411  1.00  0.00     0.212 HD
ENDBRANCH   9  23
TORSDOF 2
ENDMDL
MODEL 2
REMARK VINA RESULT:      -8.8      2.652      5.942
REMARK  2 active torsions:
REMARK  status: ('A' for Active; 'I' for Inactive)
REMARK    1  A    between atoms: C_9  and  C_11 
REMARK    2  A    between atoms: C_9  and  O_10 
ROOT
HETATM    1  C   UNL     1       8.348  23.749  53.785  1.00  0.00     0.048 C 
HETATM    2  C   UNL     1       7.126  24.594  53.570  1.00  0.00    -0.061 A 
HETATM    3  C   UNL     1       7.159  25.973  53.831  1.00  0.00     0.020 A 
HETATM    4  C   UNL     1       5.999  26.713  53.646  1.00  0.00     0.018 A 
HETATM    5  C   UNL     1       4.834  26.094  53.192  1.00  0.00     0.045 A 
HETATM    6  N   UNL     1       3.811  27.019  53.058  1.00  0.00    -0.323 N 
HETATM    7  C   UNL     1       4.230  28.301  53.420  1.00  0.00     0.266 A 
HETATM    8  O   UNL     1       3.521  29.295  53.361  1.00  0.00    -0.269 OA
HETATM    9  C   UNL     1       5.746  28.196  53.843  1.00  0.00     0.198 A 
HETATM   10  C   UNL     1       4.769  24.745  52.922  1.00  0.00     0.031 A 
HETATM   11  C   UNL     1       5.930  23.992  53.119  1.00  0.00     0.009 A 
HETATM   12  H   UNL     1       2.873  26.825  52.743  1.00  0.00     0.169 HD
ENDROOT
BRANCH   9  13
HETATM   13  C   UNL     1       5.959  28.458  55.315  1.00  0.00     0.018 A 
HETATM   14  C   UNL     1       7.193  28.825  55.967  1.00  0.00     0.002 A 
HETATM   15  C   UNL     1       6.939  28.919  57.337  1.00  0.00     0.043 A 
HETATM   16  C   UNL     1       8.509  29.076  55.522  1.00  0.00     0.014 A 
HETATM   17  C   UNL     1       7.927  29.240  58.275  1.00  0.00     0.030 A 
HETATM   18  N   UNL     1       5.606  28.647  57.521  1.00  0.00    -0.365 N 
HETATM   19  C   UNL     1       9.220  29.479  57.804  1.00  0.00     0.002 A 
HETATM   20  C   UNL     1       9.510  29.401  56.445  1.00  0.00     0.001 A 
HETATM   21  H   UNL     1       5.141  28.650  58.418  1.00  0.00     0.165 HD
HETATM   22  C   UNL     1       5.010  28.364  56.324  1.00  0.00     0.100 A 
ENDBRANCH   9  13
BRANCH   9  23
HETATM   23  O   UNL     1       6.590  28.949  52.986  1.00  0.00    -0.371 OA
HETATM   24  H   UNL     1       6.113  29.045  52.146  1.00  0.00     0.212 HD
ENDBRANCH   9  23
TORSDOF 2
ENDMDL
MODEL 3
REMARK VINA RESULT:      -8.5      2.375      4.867
REMARK  2 active torsions:
REMARK  status: ('A' for Active; 'I' for Inactive)
REMARK    1  A    between atoms: C_9  and  C_11 
REMARK    2  A    between atoms: C_9  and  O_10 
ROOT
HETATM    1  C   UNL     1       7.964  21.562  53.171  1.00  0.00     0.048 C 
HETATM    2  C   UNL     1       8.009  22.603  54.253  1.00  0.00    -0.061 A 
HETATM    3  C   UNL     1       7.014  23.589  54.335  1.00  0.00     0.020 A 
HETATM    4  C   UNL     1       7.109  24.549  55.334  1.00  0.00     0.018 A 
HETATM    5  C   UNL     1       8.165  24.514  56.244  1.00  0.00     0.045 A 
HETATM    6  N   UNL     1       8.050  25.546  57.162  1.00  0.00    -0.323 N 
HETATM    7  C   UNL     1       6.921  26.329  56.914  1.00  0.00     0.266 A 
HETATM    8  O   UNL     1       6.584  27.281  57.601  1.00  0.00    -0.269 OA
HETATM    9  C   UNL     1       6.192  25.713  55.658  1.00  0.00     0.198 A 
HETATM   10  C   UNL     1       9.155  23.558  56.195  1.00  0.00     0.031 A 
HETATM   11  C   UNL     1       9.072  22.597  55.184  1.00  0.00     0.009 A 
HETATM   12  H   UNL     1       8.684  25.736  57.924  1.00  0.00     0.169 HD
ENDROOT
BRANCH   9  13
HETATM   13  C   UNL     1       6.239  26.622  54.454  1.00  0.00     0.018 A 
HETATM   14  C   UNL     1       5.714  26.355  53.136  1.00  0.00     0.002 A 
HETATM   15  C   UNL     1       6.021  27.450  52.325  1.00  0.00     0.043 A 
HETATM   16  C   UNL     1       5.015  25.277  52.552  1.00  0.00     0.014 A 
HETATM   17  C   UNL     1       5.675  27.516  50.971  1.00  0.00     0.030 A 
HETATM   18  N   UNL     1       6.683  28.361  53.110  1.00  0.00    -0.365 N 
HETATM   19  C   UNL     1       4.986  26.431  50.420  1.00  0.00     0.002 A 
HETATM   20  C   UNL     1       4.658  25.326  51.199  1.00  0.00     0.001 A 
HETATM   21  H   UNL     1       7.020  29.257  52.784  1.00  0.00     0.165 HD
HETATM   22  C   UNL     1       6.825  27.879  54.380  1.00  0.00     0.100 A 
ENDBRANCH   9  13
BRANCH   9  23
HETATM   23  O   UNL     1       4.895  25.233  55.979  1.00  0.00    -0.371 OA
HETATM   24  H   UNL     1       4.988  24.715  56.795  1.00  0.00     0.212 HD
ENDBRANCH   9  23
TORSDOF 2
ENDMDL
MODEL 4
REMARK VINA RESULT:      -8.5      2.355      3.677
REMARK  2 active torsions:
REMARK  status: ('A' for Active; 'I' for Inactive)
REMARK    1  A    between atoms: C_9  and  C_11 
REMARK    2  A    between atoms: C_9  and  O_10 
ROOT
HETATM    1  C   UNL     1       5.363  28.667  57.403  1.00  0.00     0.048 C 
HETATM    2  C   UNL     1       6.083  28.109  56.208  1.00  0.00    -0.061 A 
HETATM    3  C   UNL     1       5.971  26.749  55.881  1.00  0.00     0.020 A 
HETATM    4  C   UNL     1       6.675  26.269  54.785  1.00  0.00     0.018 A 
HETATM    5  C   UNL     1       7.459  27.132  54.020  1.00  0.00     0.045 A 
HETATM    6  N   UNL     1       8.051  26.449  52.969  1.00  0.00    -0.323 N 
HETATM    7  C   UNL     1       7.703  25.097  52.976  1.00  0.00     0.266 A 
HETATM    8  O   UNL     1       8.072  24.291  52.136  1.00  0.00    -0.269 OA
HETATM    9  C   UNL     1       6.741  24.869  54.205  1.00  0.00     0.198 A 
HETATM   10  C   UNL     1       7.587  28.472  54.311  1.00  0.00     0.031 A 
HETATM   11  C   UNL     1       6.891  28.959  55.421  1.00  0.00     0.009 A 
HETATM   12  H   UNL     1       8.660  26.848  52.270  1.00  0.00     0.169 HD
ENDROOT
BRANCH   9  13
HETATM   13  C   UNL     1       7.361  24.007  55.278  1.00  0.00     0.018 A 
HETATM   14  C   UNL     1       7.741  22.619  55.172  1.00  0.00     0.002 A 
HETATM   15  C   UNL     1       8.228  22.215  56.417  1.00  0.00     0.043 A 
HETATM   16  C   UNL     1       7.705  21.661  54.136  1.00  0.00     0.014 A 
HETATM   17  C   UNL     1       8.669  20.912  56.677  1.00  0.00     0.030 A 
HETATM   18  N   UNL     1       8.174  23.307  57.246  1.00  0.00    -0.365 N 
HETATM   19  C   UNL     1       8.618  19.986  55.632  1.00  0.00     0.002 A 
HETATM   20  C   UNL     1       8.145  20.354  54.376  1.00  0.00     0.001 A 
HETATM   21  H   UNL     1       8.473  23.306  58.212  1.00  0.00     0.165 HD
HETATM   22  C   UNL     1       7.654  24.382  56.583  1.00  0.00     0.100 A 
ENDBRANCH   9  13
BRANCH   9  23
HETATM   23  O   UNL     1       5.447  24.453  53.795  1.00  0.00    -0.371 OA
HETATM   24  H   UNL     1       5.063  25.196  53.301  1.00  0.00     0.212 HD
ENDBRANCH   9  23
TORSDOF 2
ENDMDL
MODEL 5
REMARK VINA RESULT:      -8.4     10.190     12.635
REMARK  2 active torsions:
REMARK  status: ('A' for Active; 'I' for Inactive)
REMARK    1  A    between atoms: C_9  and  C_11 
REMARK    2  A    between atoms: C_9  and  O_10 
ROOT
HETATM    1  C   UNL     1       6.314  39.769  63.549  1.00  0.00     0.048 C 
HETATM    2  C   UNL     1       5.368  38.643  63.240  1.00  0.00    -0.061 A 
HETATM    3  C   UNL     1       5.165  37.610  64.167  1.00  0.00     0.020 A 
HETATM    4  C   UNL     1       4.303  36.574  63.831  1.00  0.00     0.018 A 
HETATM    5  C   UNL     1       3.643  36.580  62.602  1.00  0.00     0.045 A 
HETATM    6  N   UNL     1       2.821  35.470  62.486  1.00  0.00    -0.323 N 
HETATM    7  C   UNL     1       2.890  34.661  63.622  1.00  0.00     0.266 A 
HETATM    8  O   UNL     1       2.237  33.640  63.775  1.00  0.00    -0.269 OA
HETATM    9  C   UNL     1       3.897  35.347  64.624  1.00  0.00     0.198 A 
HETATM   10  C   UNL     1       3.816  37.581  61.672  1.00  0.00     0.031 A 
HETATM   11  C   UNL     1       4.693  38.620  62.000  1.00  0.00     0.009 A 
HETATM   12  H   UNL     1       2.235  35.246  61.696  1.00  0.00     0.169 HD
ENDROOT
BRANCH   9  13
HETATM   13  C   UNL     1       5.161  34.546  64.819  1.00  0.00     0.018 A 
HETATM   14  C   UNL     1       5.986  33.951  63.794  1.00  0.00     0.002 A 
HETATM   15  C   UNL     1       7.024  33.265  64.429  1.00  0.00     0.043 A 
HETATM   16  C   UNL     1       5.941  33.921  62.384  1.00  0.00     0.014 A 
HETATM   17  C   UNL     1       8.004  32.551  63.730  1.00  0.00     0.030 A 
HETATM   18  N   UNL     1       6.863  33.446  65.779  1.00  0.00    -0.365 N 
HETATM   19  C   UNL     1       7.931  32.538  62.334  1.00  0.00     0.002 A 
HETATM   20  C   UNL     1       6.914  33.215  61.668  1.00  0.00     0.001 A 
HETATM   21  H   UNL     1       7.479  33.065  66.484  1.00  0.00     0.165 HD
HETATM   22  C   UNL     1       5.753  34.203  66.028  1.00  0.00     0.100 A 
ENDBRANCH   9  13
BRANCH   9  23
HETATM   23  O   UNL     1       3.260  35.738  65.830  1.00  0.00    -0.371 OA
HETATM   24  H   UNL     1       2.528  36.323  65.577  1.00  0.00     0.212 HD
ENDBRANCH   9  23
TORSDOF 2
ENDMDL
MODEL 6
REMARK VINA RESULT:      -8.0      7.929      9.673
REMARK  2 active torsions:
REMARK  status: ('A' for Active; 'I' for Inactive)
REMARK    1  A    between atoms: C_9  and  C_11 
REMARK    2  A    between atoms: C_9  and  O_10 
ROOT
HETATM    1  C   UNL     1       9.065  31.564  61.938  1.00  0.00     0.048 C 
HETATM    2  C   UNL     1       7.837  32.128  62.595  1.00  0.00    -0.061 A 
HETATM    3  C   UNL     1       6.582  32.010  61.979  1.00  0.00     0.020 A 
HETATM    4  C   UNL     1       5.477  32.570  62.606  1.00  0.00     0.018 A 
HETATM    5  C   UNL     1       5.619  33.217  63.834  1.00  0.00     0.045 A 
HETATM    6  N   UNL     1       4.393  33.678  64.286  1.00  0.00    -0.323 N 
HETATM    7  C   UNL     1       3.368  33.372  63.388  1.00  0.00     0.266 A 
HETATM    8  O   UNL     1       2.192  33.644  63.573  1.00  0.00    -0.269 OA
HETATM    9  C   UNL     1       4.022  32.594  62.181  1.00  0.00     0.198 A 
HETATM   10  C   UNL     1       6.836  33.346  64.468  1.00  0.00     0.031 A 
HETATM   11  C   UNL     1       7.953  32.796  63.834  1.00  0.00     0.009 A 
HETATM   12  H   UNL     1       4.227  34.174  65.148  1.00  0.00     0.169 HD
ENDROOT
BRANCH   9  13
HETATM   13  C   UNL     1       3.982  33.379  60.892  1.00  0.00     0.018 A 
HETATM   14  C   UNL     1       3.859  32.855  59.553  1.00  0.00     0.002 A 
HETATM   15  C   UNL     1       3.913  33.933  58.667  1.00  0.00     0.043 A 
HETATM   16  C   UNL     1       3.717  31.561  59.009  1.00  0.00     0.014 A 
HETATM   17  C   UNL     1       3.842  33.783  57.278  1.00  0.00     0.030 A 
HETATM   18  N   UNL     1       4.040  35.072  59.423  1.00  0.00    -0.365 N 
HETATM   19  C   UNL     1       3.706  32.488  56.769  1.00  0.00     0.002 A 
HETATM   20  C   UNL     1       3.641  31.390  57.621  1.00  0.00     0.001 A 
HETATM   21  H   UNL     1       4.097  36.007  59.043  1.00  0.00     0.165 HD
HETATM   22  C   UNL     1       4.089  34.757  60.752  1.00  0.00     0.100 A 
ENDBRANCH   9  13
BRANCH   9  23
HETATM   23  O   UNL     1       3.526  31.268  62.074  1.00  0.00    -0.371 OA
HETATM   24  H   UNL     1       3.100  31.065  62.922  1.00  0.00     0.212 HD
ENDBRANCH   9  23
TORSDOF 2
ENDMDL
MODEL 7
REMARK VINA RESULT:      -8.0      8.820     12.071
REMARK  2 active torsions:
REMARK  status: ('A' for Active; 'I' for Inactive)
REMARK    1  A    between atoms: C_9  and  C_11 
REMARK    2  A    between atoms: C_9  and  O_10 
ROOT
HETATM    1  C   UNL     1       8.656  31.989  60.555  1.00  0.00     0.048 C 
HETATM    2  C   UNL     1       7.806  32.390  61.728  1.00  0.00    -0.061 A 
HETATM    3  C   UNL     1       6.461  32.743  61.544  1.00  0.00     0.020 A 
HETATM    4  C   UNL     1       5.719  33.134  62.651  1.00  0.00     0.018 A 
HETATM    5  C   UNL     1       6.303  33.155  63.918  1.00  0.00     0.045 A 
HETATM    6  N   UNL     1       5.380  33.552  64.873  1.00  0.00    -0.323 N 
HETATM    7  C   UNL     1       4.136  33.826  64.300  1.00  0.00     0.266 A 
HETATM    8  O   UNL     1       3.150  34.165  64.936  1.00  0.00    -0.269 OA
HETATM    9  C   UNL     1       4.267  33.561  62.751  1.00  0.00     0.198 A 
HETATM   10  C   UNL     1       7.619  32.810  64.133  1.00  0.00     0.031 A 
HETATM   11  C   UNL     1       8.374  32.428  63.021  1.00  0.00     0.009 A 
HETATM   12  H   UNL     1       5.553  33.643  65.862  1.00  0.00     0.169 HD
ENDROOT
BRANCH   9  13
HETATM   13  C   UNL     1       4.151  34.824  61.932  1.00  0.00     0.018 A 
HETATM   14  C   UNL     1       4.763  36.102  62.205  1.00  0.00     0.002 A 
HETATM   15  C   UNL     1       4.347  36.994  61.215  1.00  0.00     0.043 A 
HETATM   16  C   UNL     1       5.625  36.588  63.211  1.00  0.00     0.014 A 
HETATM   17  C   UNL     1       4.740  38.337  61.185  1.00  0.00     0.030 A 
HETATM   18  N   UNL     1       3.536  36.295  60.356  1.00  0.00    -0.365 N 
HETATM   19  C   UNL     1       5.591  38.790  62.197  1.00  0.00     0.002 A 
HETATM   20  C   UNL     1       6.031  37.928  63.197  1.00  0.00     0.001 A 
HETATM   21  H   UNL     1       3.096  36.691  59.537  1.00  0.00     0.165 HD
HETATM   22  C   UNL     1       3.404  35.001  60.774  1.00  0.00     0.100 A 
ENDBRANCH   9  13
BRANCH   9  23
HETATM   23  O   UNL     1       3.421  32.505  62.320  1.00  0.00    -0.371 OA
HETATM   24  H   UNL     1       2.540  32.694  62.681  1.00  0.00     0.212 HD
ENDBRANCH   9  23
TORSDOF 2
ENDMDL
MODEL 8
REMARK VINA RESULT:      -7.8      8.321     11.036
REMARK  2 active torsions:
REMARK  status: ('A' for Active; 'I' for Inactive)
REMARK    1  A    between atoms: C_9  and  C_11 
REMARK    2  A    between atoms: C_9  and  O_10 
ROOT
HETATM    1  C   UNL     1       7.085  38.923  61.554  1.00  0.00     0.048 C 
HETATM    2  C   UNL     1       5.874  38.105  61.902  1.00  0.00    -0.061 A 
HETATM    3  C   UNL     1       6.011  36.776  62.329  1.00  0.00     0.020 A 
HETATM    4  C   UNL     1       4.864  36.047  62.613  1.00  0.00     0.018 A 
HETATM    5  C   UNL     1       3.607  36.638  62.492  1.00  0.00     0.045 A 
HETATM    6  N   UNL     1       2.610  35.741  62.845  1.00  0.00    -0.323 N 
HETATM    7  C   UNL     1       3.143  34.504  63.214  1.00  0.00     0.266 A 
HETATM    8  O   UNL     1       2.472  33.557  63.595  1.00  0.00    -0.269 OA
HETATM    9  C   UNL     1       4.711  34.615  63.089  1.00  0.00     0.198 A 
HETATM   10  C   UNL     1       3.437  37.942  62.080  1.00  0.00     0.031 A 
HETATM   11  C   UNL     1       4.587  38.677  61.779  1.00  0.00     0.009 A 
HETATM   12  H   UNL     1       1.619  35.926  62.846  1.00  0.00     0.169 HD
ENDROOT
BRANCH   9  13
HETATM   13  C   UNL     1       5.270  33.751  61.984  1.00  0.00     0.018 A 
HETATM   14  C   UNL     1       6.507  33.007  61.997  1.00  0.00     0.002 A 
HETATM   15  C   UNL     1       6.647  32.393  60.750  1.00  0.00     0.043 A 
HETATM   16  C   UNL     1       7.529  32.808  62.949  1.00  0.00     0.014 A 
HETATM   17  C   UNL     1       7.751  31.603  60.410  1.00  0.00     0.030 A 
HETATM   18  N   UNL     1       5.538  32.721  60.011  1.00  0.00    -0.365 N 
HETATM   19  C   UNL     1       8.748  31.427  61.372  1.00  0.00     0.002 A 
HETATM   20  C   UNL     1       8.640  32.019  62.627  1.00  0.00     0.001 A 
HETATM   21  H   UNL     1       5.368  32.406  59.065  1.00  0.00     0.165 HD
HETATM   22  C   UNL     1       4.711  33.536  60.731  1.00  0.00     0.100 A 
ENDBRANCH   9  13
BRANCH   9  23
HETATM   23  O   UNL     1       5.356  34.450  64.343  1.00  0.00    -0.371 OA
HETATM   24  H   UNL     1       4.652  34.328  65.000  1.00  0.00     0.212 HD
ENDBRANCH   9  23
TORSDOF 2
ENDMDL
MODEL 9
REMARK VINA RESULT:      -7.7      9.511     12.171
REMARK  2 active torsions:
REMARK  status: ('A' for Active; 'I' for Inactive)
REMARK    1  A    between atoms: C_9  and  C_11 
REMARK    2  A    between atoms: C_9  and  O_10 
ROOT
HETATM    1  C   UNL     1       4.940  33.992  68.287  1.00  0.00     0.048 C 
HETATM    2  C   UNL     1       4.575  34.725  67.027  1.00  0.00    -0.061 A 
HETATM    3  C   UNL     1       3.986  34.043  65.952  1.00  0.00     0.020 A 
HETATM    4  C   UNL     1       3.691  34.753  64.796  1.00  0.00     0.018 A 
HETATM    5  C   UNL     1       3.960  36.119  64.721  1.00  0.00     0.045 A 
HETATM    6  N   UNL     1       3.567  36.627  63.493  1.00  0.00    -0.323 N 
HETATM    7  C   UNL     1       3.022  35.632  62.679  1.00  0.00     0.266 A 
HETATM    8  O   UNL     1       2.575  35.832  61.559  1.00  0.00    -0.269 OA
HETATM    9  C   UNL     1       3.060  34.285  63.498  1.00  0.00     0.198 A 
HETATM   10  C   UNL     1       4.532  36.820  65.760  1.00  0.00     0.031 A 
HETATM   11  C   UNL     1       4.844  36.108  66.922  1.00  0.00     0.009 A 
HETATM   12  H   UNL     1       3.649  37.587  63.194  1.00  0.00     0.169 HD
ENDROOT
BRANCH   9  13
HETATM   13  C   UNL     1       4.018  33.275  62.915  1.00  0.00     0.018 A 
HETATM   14  C   UNL     1       5.423  33.129  63.213  1.00  0.00     0.002 A 
HETATM   15  C   UNL     1       5.924  32.102  62.410  1.00  0.00     0.043 A 
HETATM   16  C   UNL     1       6.320  33.784  64.083  1.00  0.00     0.014 A 
HETATM   17  C   UNL     1       7.267  31.707  62.429  1.00  0.00     0.030 A 
HETATM   18  N   UNL     1       4.875  31.619  61.669  1.00  0.00    -0.365 N 
HETATM   19  C   UNL     1       8.132  32.376  63.298  1.00  0.00     0.002 A 
HETATM   20  C   UNL     1       7.666  33.401  64.117  1.00  0.00     0.001 A 
HETATM   21  H   UNL     1       4.946  30.861  61.003  1.00  0.00     0.165 HD
HETATM   22  C   UNL     1       3.732  32.312  61.955  1.00  0.00     0.100 A 
ENDBRANCH   9  13
BRANCH   9  23
HETATM   23  O   UNL     1       1.757  33.779  63.748  1.00  0.00    -0.371 OA
HETATM   24  H   UNL     1       1.425  34.248  64.530  1.00  0.00     0.212 HD
ENDBRANCH   9  23
TORSDOF 2
ENDMDL
MODEL 10
REMARK VINA RESULT:      -7.6      9.787     12.684
REMARK  2 active torsions:
REMARK  status: ('A' for Active; 'I' for Inactive)
REMARK    1  A    between atoms: C_9  and  C_11 
REMARK    2  A    between atoms: C_9  and  O_10 
ROOT
HETATM    1  C   UNL     1       7.657  32.417  61.334  1.00  0.00     0.048 C 
HETATM    2  C   UNL     1       7.031  32.911  62.607  1.00  0.00    -0.061 A 
HETATM    3  C   UNL     1       5.722  33.418  62.606  1.00  0.00     0.020 A 
HETATM    4  C   UNL     1       5.191  33.890  63.800  1.00  0.00     0.018 A 
HETATM    5  C   UNL     1       5.943  33.838  64.973  1.00  0.00     0.045 A 
HETATM    6  N   UNL     1       5.214  34.337  66.041  1.00  0.00    -0.323 N 
HETATM    7  C   UNL     1       3.943  34.755  65.642  1.00  0.00     0.266 A 
HETATM    8  O   UNL     1       3.101  35.205  66.404  1.00  0.00    -0.269 OA
HETATM    9  C   UNL     1       3.826  34.482  64.093  1.00  0.00     0.198 A 
HETATM   10  C   UNL     1       7.228  33.341  65.009  1.00  0.00     0.031 A 
HETATM   11  C   UNL     1       7.773  32.877  63.809  1.00  0.00     0.009 A 
HETATM   12  H   UNL     1       5.532  34.404  66.996  1.00  0.00     0.169 HD
ENDROOT
BRANCH   9  13
HETATM   13  C   UNL     1       3.745  35.752  63.282  1.00  0.00     0.018 A 
HETATM   14  C   UNL     1       3.073  35.941  62.019  1.00  0.00     0.002 A 
HETATM   15  C   UNL     1       3.297  37.258  61.610  1.00  0.00     0.043 A 
HETATM   16  C   UNL     1       2.305  35.111  61.175  1.00  0.00     0.014 A 
HETATM   17  C   UNL     1       2.801  37.778  60.409  1.00  0.00     0.030 A 
HETATM   18  N   UNL     1       4.050  37.862  62.586  1.00  0.00    -0.365 N 
HETATM   19  C   UNL     1       2.047  36.930  59.594  1.00  0.00     0.002 A 
HETATM   20  C   UNL     1       1.798  35.614  59.971  1.00  0.00     0.001 A 
HETATM   21  H   UNL     1       4.356  38.825  62.558  1.00  0.00     0.165 HD
HETATM   22  C   UNL     1       4.330  36.975  63.587  1.00  0.00     0.100 A 
ENDBRANCH   9  13
BRANCH   9  23
HETATM   23  O   UNL     1       2.813  33.533  63.797  1.00  0.00    -0.371 OA
HETATM   24  H   UNL     1       1.965  33.974  63.968  1.00  0.00     0.212 HD
ENDBRANCH   9  23
TORSDOF 2
ENDMDL
