MODEL 1
REMARK VINA RESULT:     -11.9      0.000      0.000
REMARK  4 active torsions:
REMARK  status: ('A' for Active; 'I' for Inactive)
REMARK    1  A    between atoms: C_4  and  C_5 
REMARK    2  A    between atoms: C_16  and  C_17 
REMARK    3  A    between atoms: C_20  and  C_21 
REMARK    4  A    between atoms: C_21  and  N_22 
REMARK       I    between atoms: N_22  and  C_23 
REMARK       I    between atoms: C_23  and  N_24 
ROOT
HETATM    1  C   UNL     1       6.942  29.380  55.735  1.00  0.00     0.067 C 
HETATM    2  C   UNL     1       5.452  28.991  55.820  1.00  0.00     0.001 C 
HETATM    3  C   UNL     1       5.269  27.571  56.398  1.00  0.00     0.040 C 
HETATM    4  C   UNL     1       5.949  26.511  55.516  1.00  0.00     0.206 C 
HETATM    5  N   UNL     1       6.698  27.264  54.430  1.00  0.00    -0.065 N 
HETATM    6  H   UNL     1       7.254  26.558  53.897  1.00  0.00     0.280 HD
HETATM    7  C   UNL     1       7.701  28.257  54.973  1.00  0.00     0.246 C 
HETATM    8  C   UNL     1       4.914  28.945  54.361  1.00  0.00     0.033 C 
HETATM    9  C   UNL     1       5.731  27.962  53.510  1.00  0.00     0.236 C 
ENDROOT
BRANCH   1  10
HETATM   10  C   UNL     1       7.731  29.776  56.957  1.00  0.00     0.038 C 
HETATM   11  N   UNL     1       9.078  29.930  57.187  1.00  0.00    -0.277 N 
HETATM   12  C   UNL     1      10.237  29.546  56.415  1.00  0.00     0.179 C 
HETATM   13  N   UNL     1       9.340  30.566  58.346  1.00  0.00    -0.172 NA
HETATM   14  C   UNL     1       8.179  30.602  59.007  1.00  0.00     0.089 C 
HETATM   15  C   UNL     1       7.153  30.092  58.182  1.00  0.00     0.061 C 
BRANCH  14  16
HETATM   16  C   UNL     1       8.041  31.170  60.349  1.00  0.00    -0.005 A 
HETATM   17  C   UNL     1       7.129  32.209  60.590  1.00  0.00     0.026 A 
HETATM   18  C   UNL     1       7.039  32.823  61.853  1.00  0.00    -0.025 A 
HETATM   19  C   UNL     1       7.878  32.378  62.899  1.00  0.00    -0.026 A 
HETATM   20  C   UNL     1       6.139  33.873  62.092  1.00  0.00     0.012 A 
HETATM   21  C   UNL     1       8.769  31.321  62.661  1.00  0.00     0.013 A 
HETATM   22  C   UNL     1       7.803  33.007  64.151  1.00  0.00     0.012 A 
HETATM   23  C   UNL     1       8.847  30.721  61.399  1.00  0.00     0.014 A 
HETATM   24  C   UNL     1       6.908  34.056  64.371  1.00  0.00     0.001 A 
HETATM   25  C   UNL     1       6.075  34.486  63.343  1.00  0.00     0.001 A 
ENDBRANCH  14  16
ENDBRANCH   1  10
BRANCH   4  26
HETATM   26  C   UNL     1       6.840  25.552  56.348  1.00  0.00     0.157 C 
BRANCH  26  27
HETATM   27  N   UNL     1       6.929  24.177  55.885  1.00  0.00    -0.341 N 
HETATM   28  C   UNL     1       7.613  23.766  54.779  1.00  0.00     0.318 C 
HETATM   29  N   UNL     1       7.885  22.415  54.717  1.00  0.00    -0.330 N 
HETATM   30  O   UNL     1       7.931  24.570  53.905  1.00  0.00    -0.247 OA
HETATM   31  C   UNL     1       8.107  21.593  55.921  1.00  0.00     0.153 C 
HETATM   32  C   UNL     1       8.653  21.953  53.553  1.00  0.00     0.153 C 
HETATM   33  C   UNL     1       8.023  20.094  55.619  1.00  0.00     0.187 C 
HETATM   34  O   UNL     1       8.900  19.737  54.546  1.00  0.00    -0.388 OA
HETATM   35  C   UNL     1       8.540  20.441  53.351  1.00  0.00     0.187 C 
HETATM   36  H   UNL     1       6.406  23.474  56.388  1.00  0.00     0.164 HD
ENDBRANCH  26  27
ENDBRANCH   4  26
TORSDOF 4
ENDMDL
MODEL 2
REMARK VINA RESULT:     -11.1      4.353      8.814
REMARK  4 active torsions:
REMARK  status: ('A' for Active; 'I' for Inactive)
REMARK    1  A    between atoms: C_4  and  C_5 
REMARK    2  A    between atoms: C_16  and  C_17 
REMARK    3  A    between atoms: C_20  and  C_21 
REMARK    4  A    between atoms: C_21  and  N_22 
REMARK       I    between atoms: N_22  and  C_23 
REMARK       I    between atoms: C_23  and  N_24 
ROOT
HETATM    1  C   UNL     1       5.529  29.296  56.557  1.00  0.00     0.067 C 
HETATM    2  C   UNL     1       4.048  28.938  56.316  1.00  0.00     0.001 C 
HETATM    3  C   UNL     1       3.790  28.553  54.843  1.00  0.00     0.040 C 
HETATM    4  C   UNL     1       4.122  29.713  53.890  1.00  0.00     0.206 C 
HETATM    5  N   UNL     1       4.731  30.814  54.741  1.00  0.00    -0.065 N 
HETATM    6  H   UNL     1       5.063  31.557  54.087  1.00  0.00     0.280 HD
HETATM    7  C   UNL     1       5.953  30.367  55.514  1.00  0.00     0.246 C 
HETATM    8  C   UNL     1       3.223  30.229  56.584  1.00  0.00     0.033 C 
HETATM    9  C   UNL     1       3.704  31.378  55.686  1.00  0.00     0.236 C 
ENDROOT
BRANCH   1  10
HETATM   10  C   UNL     1       6.597  28.236  56.647  1.00  0.00     0.038 C 
HETATM   11  N   UNL     1       7.785  28.167  57.338  1.00  0.00    -0.277 N 
HETATM   12  C   UNL     1       8.550  29.170  58.039  1.00  0.00     0.179 C 
HETATM   13  N   UNL     1       8.305  26.924  57.358  1.00  0.00    -0.172 NA
HETATM   14  C   UNL     1       7.600  26.224  56.463  1.00  0.00     0.089 C 
HETATM   15  C   UNL     1       6.539  27.019  55.977  1.00  0.00     0.061 C 
BRANCH  14  16
HETATM   16  C   UNL     1       7.883  24.825  56.140  1.00  0.00    -0.005 A 
HETATM   17  C   UNL     1       7.770  24.364  54.820  1.00  0.00     0.026 A 
HETATM   18  C   UNL     1       7.959  23.007  54.501  1.00  0.00    -0.025 A 
HETATM   19  C   UNL     1       8.277  22.093  55.531  1.00  0.00    -0.026 A 
HETATM   20  C   UNL     1       7.830  22.540  53.184  1.00  0.00     0.012 A 
HETATM   21  C   UNL     1       8.417  22.564  56.846  1.00  0.00     0.013 A 
HETATM   22  C   UNL     1       8.442  20.736  55.215  1.00  0.00     0.012 A 
HETATM   23  C   UNL     1       8.225  23.917  57.146  1.00  0.00     0.014 A 
HETATM   24  C   UNL     1       8.303  20.286  53.901  1.00  0.00     0.001 A 
HETATM   25  C   UNL     1       8.000  21.188  52.886  1.00  0.00     0.001 A 
ENDBRANCH  14  16
ENDBRANCH   1  10
BRANCH   4  26
HETATM   26  C   UNL     1       5.021  29.255  52.712  1.00  0.00     0.157 C 
BRANCH  26  27
HETATM   27  N   UNL     1       4.366  28.536  51.632  1.00  0.00    -0.341 N 
HETATM   28  C   UNL     1       4.035  29.071  50.423  1.00  0.00     0.318 C 
HETATM   29  N   UNL     1       3.769  28.160  49.422  1.00  0.00    -0.330 N 
HETATM   30  O   UNL     1       3.967  30.291  50.275  1.00  0.00    -0.247 OA
HETATM   31  C   UNL     1       4.425  26.840  49.355  1.00  0.00     0.153 C 
HETATM   32  C   UNL     1       3.447  28.712  48.099  1.00  0.00     0.153 C 
HETATM   33  C   UNL     1       3.708  25.889  48.392  1.00  0.00     0.187 C 
HETATM   34  O   UNL     1       3.553  26.487  47.101  1.00  0.00    -0.388 OA
HETATM   35  C   UNL     1       2.768  27.682  47.195  1.00  0.00     0.187 C 
HETATM   36  H   UNL     1       4.087  27.580  51.802  1.00  0.00     0.164 HD
ENDBRANCH  26  27
ENDBRANCH   4  26
TORSDOF 4
ENDMDL
MODEL 3
REMARK VINA RESULT:     -11.0      3.164     10.071
REMARK  4 active torsions:
REMARK  status: ('A' for Active; 'I' for Inactive)
REMARK    1  A    between atoms: C_4  and  C_5 
REMARK    2  A    between atoms: C_16  and  C_17 
REMARK    3  A    between atoms: C_20  and  C_21 
REMARK    4  A    between atoms: C_21  and  N_22 
REMARK       I    between atoms: N_22  and  C_23 
REMARK       I    between atoms: C_23  and  N_24 
ROOT
HETATM    1  C   UNL     1       4.014  28.979  54.700  1.00  0.00     0.067 C 
HETATM    2  C   UNL     1       4.222  30.461  54.329  1.00  0.00     0.001 C 
HETATM    3  C   UNL     1       5.419  31.073  55.089  1.00  0.00     0.040 C 
HETATM    4  C   UNL     1       5.204  31.027  56.611  1.00  0.00     0.206 C 
HETATM    5  N   UNL     1       3.918  30.254  56.845  1.00  0.00    -0.065 N 
HETATM    6  H   UNL     1       3.825  30.120  57.877  1.00  0.00     0.280 HD
HETATM    7  C   UNL     1       3.938  28.864  56.248  1.00  0.00     0.246 C 
HETATM    8  C   UNL     1       2.957  31.228  54.810  1.00  0.00     0.033 C 
HETATM    9  C   UNL     1       2.736  31.023  56.316  1.00  0.00     0.236 C 
ENDROOT
BRANCH   1  10
HETATM   10  C   UNL     1       4.911  27.893  54.162  1.00  0.00     0.038 C 
HETATM   11  N   UNL     1       5.662  27.789  53.013  1.00  0.00    -0.277 N 
HETATM   12  C   UNL     1       5.682  28.574  51.802  1.00  0.00     0.179 C 
HETATM   13  N   UNL     1       6.536  26.765  53.054  1.00  0.00    -0.172 NA
HETATM   14  C   UNL     1       6.187  26.034  54.117  1.00  0.00     0.089 C 
HETATM   15  C   UNL     1       5.156  26.694  54.820  1.00  0.00     0.061 C 
BRANCH  14  16
HETATM   16  C   UNL     1       6.863  24.790  54.488  1.00  0.00    -0.005 A 
HETATM   17  C   UNL     1       7.111  23.801  53.524  1.00  0.00     0.026 A 
HETATM   18  C   UNL     1       7.686  22.566  53.876  1.00  0.00    -0.025 A 
HETATM   19  C   UNL     1       8.025  22.322  55.226  1.00  0.00    -0.026 A 
HETATM   20  C   UNL     1       7.921  21.569  52.916  1.00  0.00     0.012 A 
HETATM   21  C   UNL     1       7.801  23.324  56.182  1.00  0.00     0.013 A 
HETATM   22  C   UNL     1       8.577  21.080  55.579  1.00  0.00     0.012 A 
HETATM   23  C   UNL     1       7.229  24.547  55.815  1.00  0.00     0.014 A 
HETATM   24  C   UNL     1       8.797  20.096  54.614  1.00  0.00     0.001 A 
HETATM   25  C   UNL     1       8.471  20.341  53.284  1.00  0.00     0.001 A 
ENDBRANCH  14  16
ENDBRANCH   1  10
BRANCH   4  26
HETATM   26  C   UNL     1       6.435  30.443  57.352  1.00  0.00     0.157 C 
BRANCH  26  27
HETATM   27  N   UNL     1       6.505  30.676  58.785  1.00  0.00    -0.341 N 
HETATM   28  C   UNL     1       7.622  31.070  59.461  1.00  0.00     0.318 C 
HETATM   29  N   UNL     1       7.403  31.589  60.720  1.00  0.00    -0.330 N 
HETATM   30  O   UNL     1       8.737  30.938  58.958  1.00  0.00    -0.247 OA
HETATM   31  C   UNL     1       6.175  32.327  61.073  1.00  0.00     0.153 C 
HETATM   32  C   UNL     1       8.587  32.054  61.454  1.00  0.00     0.153 C 
HETATM   33  C   UNL     1       6.007  32.472  62.588  1.00  0.00     0.187 C 
HETATM   34  O   UNL     1       7.176  33.044  63.182  1.00  0.00    -0.388 OA
HETATM   35  C   UNL     1       8.315  32.206  62.951  1.00  0.00     0.187 C 
HETATM   36  H   UNL     1       5.680  30.487  59.335  1.00  0.00     0.164 HD
ENDBRANCH  26  27
ENDBRANCH   4  26
TORSDOF 4
ENDMDL
MODEL 4
REMARK VINA RESULT:     -11.0      3.527     10.608
REMARK  4 active torsions:
REMARK  status: ('A' for Active; 'I' for Inactive)
REMARK    1  A    between atoms: C_4  and  C_5 
REMARK    2  A    between atoms: C_16  and  C_17 
REMARK    3  A    between atoms: C_20  and  C_21 
REMARK    4  A    between atoms: C_21  and  N_22 
REMARK       I    between atoms: N_22  and  C_23 
REMARK       I    between atoms: C_23  and  N_24 
ROOT
HETATM    1  C   UNL     1       4.864  28.917  56.174  1.00  0.00     0.067 C 
HETATM    2  C   UNL     1       4.966  30.298  55.495  1.00  0.00     0.001 C 
HETATM    3  C   UNL     1       5.948  31.226  56.243  1.00  0.00     0.040 C 
HETATM    4  C   UNL     1       5.494  31.480  57.690  1.00  0.00     0.206 C 
HETATM    5  N   UNL     1       4.279  30.599  57.925  1.00  0.00    -0.065 N 
HETATM    6  H   UNL     1       4.034  30.680  58.937  1.00  0.00     0.280 HD
HETATM    7  C   UNL     1       4.548  29.130  57.680  1.00  0.00     0.246 C 
HETATM    8  C   UNL     1       3.564  30.960  55.607  1.00  0.00     0.033 C 
HETATM    9  C   UNL     1       3.123  31.057  57.075  1.00  0.00     0.236 C 
ENDROOT
BRANCH   1  10
HETATM   10  C   UNL     1       5.950  27.881  56.032  1.00  0.00     0.038 C 
HETATM   11  N   UNL     1       7.123  27.662  56.718  1.00  0.00    -0.277 N 
HETATM   12  C   UNL     1       7.853  28.474  57.662  1.00  0.00     0.179 C 
HETATM   13  N   UNL     1       7.666  26.458  56.448  1.00  0.00    -0.172 NA
HETATM   14  C   UNL     1       6.996  25.988  55.392  1.00  0.00     0.089 C 
HETATM   15  C   UNL     1       5.931  26.863  55.086  1.00  0.00     0.061 C 
BRANCH  14  16
HETATM   16  C   UNL     1       7.313  24.714  54.747  1.00  0.00    -0.005 A 
HETATM   17  C   UNL     1       7.509  23.556  55.516  1.00  0.00     0.026 A 
HETATM   18  C   UNL     1       7.894  22.341  54.922  1.00  0.00    -0.025 A 
HETATM   19  C   UNL     1       8.080  22.284  53.523  1.00  0.00    -0.026 A 
HETATM   20  C   UNL     1       8.106  21.186  55.692  1.00  0.00     0.012 A 
HETATM   21  C   UNL     1       7.856  23.436  52.754  1.00  0.00     0.013 A 
HETATM   22  C   UNL     1       8.487  21.076  52.935  1.00  0.00     0.012 A 
HETATM   23  C   UNL     1       7.473  24.638  53.360  1.00  0.00     0.014 A 
HETATM   24  C   UNL     1       8.701  19.938  53.715  1.00  0.00     0.001 A 
HETATM   25  C   UNL     1       8.509  19.993  55.091  1.00  0.00     0.001 A 
ENDBRANCH  14  16
ENDBRANCH   1  10
BRANCH   4  26
HETATM   26  C   UNL     1       6.643  31.254  58.706  1.00  0.00     0.157 C 
BRANCH  26  27
HETATM   27  N   UNL     1       6.410  31.707  60.067  1.00  0.00    -0.341 N 
HETATM   28  C   UNL     1       7.340  31.703  61.064  1.00  0.00     0.318 C 
HETATM   29  N   UNL     1       7.047  32.498  62.153  1.00  0.00    -0.330 N 
HETATM   30  O   UNL     1       8.351  31.008  60.975  1.00  0.00    -0.247 OA
HETATM   31  C   UNL     1       6.269  33.746  62.039  1.00  0.00     0.153 C 
HETATM   32  C   UNL     1       8.051  32.540  63.224  1.00  0.00     0.153 C 
HETATM   33  C   UNL     1       5.771  34.241  63.400  1.00  0.00     0.187 C 
HETATM   34  O   UNL     1       6.853  34.356  64.331  1.00  0.00    -0.388 OA
HETATM   35  C   UNL     1       7.475  33.081  64.533  1.00  0.00     0.187 C 
HETATM   36  H   UNL     1       5.476  32.002  60.313  1.00  0.00     0.164 HD
ENDBRANCH  26  27
ENDBRANCH   4  26
TORSDOF 4
ENDMDL
MODEL 5
REMARK VINA RESULT:     -10.9      3.595      6.389
REMARK  4 active torsions:
REMARK  status: ('A' for Active; 'I' for Inactive)
REMARK    1  A    between atoms: C_4  and  C_5 
REMARK    2  A    between atoms: C_16  and  C_17 
REMARK    3  A    between atoms: C_20  and  C_21 
REMARK    4  A    between atoms: C_21  and  N_22 
REMARK       I    between atoms: N_22  and  C_23 
REMARK       I    between atoms: C_23  and  N_24 
ROOT
HETATM    1  C   UNL     1       7.543  27.697  56.005  1.00  0.00     0.067 C 
HETATM    2  C   UNL     1       7.083  28.102  54.590  1.00  0.00     0.001 C 
HETATM    3  C   UNL     1       5.766  28.908  54.631  1.00  0.00     0.040 C 
HETATM    4  C   UNL     1       4.621  28.087  55.246  1.00  0.00     0.206 C 
HETATM    5  N   UNL     1       5.233  26.785  55.735  1.00  0.00    -0.065 N 
HETATM    6  H   UNL     1       4.486  26.273  56.254  1.00  0.00     0.280 HD
HETATM    7  C   UNL     1       6.361  26.988  56.723  1.00  0.00     0.246 C 
HETATM    8  C   UNL     1       6.769  26.786  53.823  1.00  0.00     0.033 C 
HETATM    9  C   UNL     1       5.713  25.959  54.571  1.00  0.00     0.236 C 
ENDROOT
BRANCH   1  10
HETATM   10  C   UNL     1       8.179  28.687  56.947  1.00  0.00     0.038 C 
HETATM   11  N   UNL     1       9.232  29.561  56.807  1.00  0.00    -0.277 N 
HETATM   12  C   UNL     1      10.254  29.684  55.795  1.00  0.00     0.179 C 
HETATM   13  N   UNL     1       9.295  30.465  57.805  1.00  0.00    -0.172 NA
HETATM   14  C   UNL     1       8.443  30.030  58.739  1.00  0.00     0.089 C 
HETATM   15  C   UNL     1       7.746  28.904  58.250  1.00  0.00     0.061 C 
BRANCH  14  16
HETATM   16  C   UNL     1       8.250  30.707  60.022  1.00  0.00    -0.005 A 
HETATM   17  C   UNL     1       7.239  31.670  60.172  1.00  0.00     0.026 A 
HETATM   18  C   UNL     1       7.089  32.390  61.371  1.00  0.00    -0.025 A 
HETATM   19  C   UNL     1       7.968  32.133  62.446  1.00  0.00    -0.026 A 
HETATM   20  C   UNL     1       6.089  33.364  61.517  1.00  0.00     0.012 A 
HETATM   21  C   UNL     1       8.959  31.150  62.302  1.00  0.00     0.013 A 
HETATM   22  C   UNL     1       7.831  32.869  63.634  1.00  0.00     0.012 A 
HETATM   23  C   UNL     1       9.096  30.442  61.102  1.00  0.00     0.014 A 
HETATM   24  C   UNL     1       6.837  33.840  63.761  1.00  0.00     0.001 A 
HETATM   25  C   UNL     1       5.965  34.085  62.705  1.00  0.00     0.001 A 
ENDBRANCH  14  16
ENDBRANCH   1  10
BRANCH   4  26
HETATM   26  C   UNL     1       3.865  28.880  56.344  1.00  0.00     0.157 C 
BRANCH  26  27
HETATM   27  N   UNL     1       3.835  30.326  56.200  1.00  0.00    -0.341 N 
HETATM   28  C   UNL     1       4.132  31.218  57.187  1.00  0.00     0.318 C 
HETATM   29  N   UNL     1       4.405  32.503  56.765  1.00  0.00    -0.330 N 
HETATM   30  O   UNL     1       4.127  30.871  58.367  1.00  0.00    -0.247 OA
HETATM   31  C   UNL     1       5.028  32.795  55.460  1.00  0.00     0.153 C 
HETATM   32  C   UNL     1       4.764  33.474  57.807  1.00  0.00     0.153 C 
HETATM   33  C   UNL     1       4.890  34.270  55.074  1.00  0.00     0.187 C 
HETATM   34  O   UNL     1       5.379  35.122  56.115  1.00  0.00    -0.388 OA
HETATM   35  C   UNL     1       4.631  34.917  57.320  1.00  0.00     0.187 C 
HETATM   36  H   UNL     1       3.523  30.706  55.317  1.00  0.00     0.164 HD
ENDBRANCH  26  27
ENDBRANCH   4  26
TORSDOF 4
ENDMDL
MODEL 6
REMARK VINA RESULT:     -10.8      7.440     11.536
REMARK  4 active torsions:
REMARK  status: ('A' for Active; 'I' for Inactive)
REMARK    1  A    between atoms: C_4  and  C_5 
REMARK    2  A    between atoms: C_16  and  C_17 
REMARK    3  A    between atoms: C_20  and  C_21 
REMARK    4  A    between atoms: C_21  and  N_22 
REMARK       I    between atoms: N_22  and  C_23 
REMARK       I    between atoms: C_23  and  N_24 
ROOT
HETATM    1  C   UNL     1       4.020  27.044  49.435  1.00  0.00     0.067 C 
HETATM    2  C   UNL     1       4.544  27.015  47.985  1.00  0.00     0.001 C 
HETATM    3  C   UNL     1       5.241  28.340  47.608  1.00  0.00     0.040 C 
HETATM    4  C   UNL     1       4.274  29.533  47.701  1.00  0.00     0.206 C 
HETATM    5  N   UNL     1       2.976  28.995  48.277  1.00  0.00    -0.065 N 
HETATM    6  H   UNL     1       2.355  29.817  48.449  1.00  0.00     0.280 HD
HETATM    7  C   UNL     1       3.150  28.319  49.619  1.00  0.00     0.246 C 
HETATM    8  C   UNL     1       3.301  26.892  47.058  1.00  0.00     0.033 C 
HETATM    9  C   UNL     1       2.321  28.048  47.306  1.00  0.00     0.236 C 
ENDROOT
BRANCH   1  10
HETATM   10  C   UNL     1       4.944  26.895  50.617  1.00  0.00     0.038 C 
HETATM   11  N   UNL     1       5.503  27.806  51.483  1.00  0.00    -0.277 N 
HETATM   12  C   UNL     1       5.598  29.245  51.437  1.00  0.00     0.179 C 
HETATM   13  N   UNL     1       6.048  27.225  52.569  1.00  0.00    -0.172 NA
HETATM   14  C   UNL     1       6.082  25.916  52.300  1.00  0.00     0.089 C 
HETATM   15  C   UNL     1       5.424  25.673  51.074  1.00  0.00     0.061 C 
BRANCH  14  16
HETATM   16  C   UNL     1       6.654  24.926  53.213  1.00  0.00    -0.005 A 
HETATM   17  C   UNL     1       7.095  23.685  52.730  1.00  0.00     0.026 A 
HETATM   18  C   UNL     1       7.573  22.690  53.602  1.00  0.00    -0.025 A 
HETATM   19  C   UNL     1       7.617  22.950  54.990  1.00  0.00    -0.026 A 
HETATM   20  C   UNL     1       7.999  21.441  53.122  1.00  0.00     0.012 A 
HETATM   21  C   UNL     1       7.202  24.203  55.466  1.00  0.00     0.013 A 
HETATM   22  C   UNL     1       8.073  21.948  55.861  1.00  0.00     0.012 A 
HETATM   23  C   UNL     1       6.729  25.182  54.585  1.00  0.00     0.014 A 
HETATM   24  C   UNL     1       8.485  20.708  55.369  1.00  0.00     0.001 A 
HETATM   25  C   UNL     1       8.451  20.456  54.001  1.00  0.00     0.001 A 
ENDBRANCH  14  16
ENDBRANCH   1  10
BRANCH   4  26
HETATM   26  C   UNL     1       4.883  30.709  48.507  1.00  0.00     0.157 C 
BRANCH  26  27
HETATM   27  N   UNL     1       5.321  31.866  47.744  1.00  0.00    -0.341 N 
HETATM   28  C   UNL     1       6.167  32.832  48.202  1.00  0.00     0.318 C 
HETATM   29  N   UNL     1       6.745  33.625  47.232  1.00  0.00    -0.330 N 
HETATM   30  O   UNL     1       6.361  32.974  49.408  1.00  0.00    -0.247 OA
HETATM   31  C   UNL     1       7.053  33.125  45.878  1.00  0.00     0.153 C 
HETATM   32  C   UNL     1       7.689  34.649  47.698  1.00  0.00     0.153 C 
HETATM   33  C   UNL     1       7.339  34.265  44.896  1.00  0.00     0.187 C 
HETATM   34  O   UNL     1       8.357  35.135  45.401  1.00  0.00    -0.388 OA
HETATM   35  C   UNL     1       7.942  35.724  46.640  1.00  0.00     0.187 C 
HETATM   36  H   UNL     1       4.935  31.996  46.819  1.00  0.00     0.164 HD
ENDBRANCH  26  27
ENDBRANCH   4  26
TORSDOF 4
ENDMDL
MODEL 7
REMARK VINA RESULT:     -10.8      4.000      9.387
REMARK  4 active torsions:
REMARK  status: ('A' for Active; 'I' for Inactive)
REMARK    1  A    between atoms: C_4  and  C_5 
REMARK    2  A    between atoms: C_16  and  C_17 
REMARK    3  A    between atoms: C_20  and  C_21 
REMARK    4  A    between atoms: C_21  and  N_22 
REMARK       I    between atoms: N_22  and  C_23 
REMARK       I    between atoms: C_23  and  N_24 
ROOT
HETATM    1  C   UNL     1       3.764  29.200  50.500  1.00  0.00     0.067 C 
HETATM    2  C   UNL     1       4.637  30.469  50.568  1.00  0.00     0.001 C 
HETATM    3  C   UNL     1       4.916  30.888  52.027  1.00  0.00     0.040 C 
HETATM    4  C   UNL     1       3.614  31.210  52.781  1.00  0.00     0.206 C 
HETATM    5  N   UNL     1       2.472  30.864  51.842  1.00  0.00    -0.065 N 
HETATM    6  H   UNL     1       1.587  30.971  52.385  1.00  0.00     0.280 HD
HETATM    7  C   UNL     1       2.498  29.426  51.372  1.00  0.00     0.246 C 
HETATM    8  C   UNL     1       3.809  31.621  49.930  1.00  0.00     0.033 C 
HETATM    9  C   UNL     1       2.466  31.791  50.655  1.00  0.00     0.236 C 
ENDROOT
BRANCH   1  10
HETATM   10  C   UNL     1       4.330  27.831  50.785  1.00  0.00     0.038 C 
HETATM   11  N   UNL     1       4.632  26.762  49.975  1.00  0.00    -0.277 N 
HETATM   12  C   UNL     1       4.305  26.473  48.599  1.00  0.00     0.179 C 
HETATM   13  N   UNL     1       5.379  25.830  50.599  1.00  0.00    -0.172 NA
HETATM   14  C   UNL     1       5.353  26.156  51.895  1.00  0.00     0.089 C 
HETATM   15  C   UNL     1       4.683  27.388  52.055  1.00  0.00     0.061 C 
BRANCH  14  16
HETATM   16  C   UNL     1       6.008  25.359  52.933  1.00  0.00    -0.005 A 
HETATM   17  C   UNL     1       6.907  24.340  52.585  1.00  0.00     0.026 A 
HETATM   18  C   UNL     1       7.485  23.510  53.563  1.00  0.00    -0.025 A 
HETATM   19  C   UNL     1       7.157  23.713  54.922  1.00  0.00    -0.026 A 
HETATM   20  C   UNL     1       8.373  22.479  53.216  1.00  0.00     0.012 A 
HETATM   21  C   UNL     1       6.279  24.751  55.269  1.00  0.00     0.013 A 
HETATM   22  C   UNL     1       7.716  22.869  55.895  1.00  0.00     0.012 A 
HETATM   23  C   UNL     1       5.713  25.567  54.283  1.00  0.00     0.014 A 
HETATM   24  C   UNL     1       8.591  21.843  55.533  1.00  0.00     0.001 A 
HETATM   25  C   UNL     1       8.921  21.650  54.195  1.00  0.00     0.001 A 
ENDBRANCH  14  16
ENDBRANCH   1  10
BRANCH   4  26
HETATM   26  C   UNL     1       3.546  30.488  54.152  1.00  0.00     0.157 C 
BRANCH  26  27
HETATM   27  N   UNL     1       4.814  30.138  54.769  1.00  0.00    -0.341 N 
HETATM   28  C   UNL     1       5.299  30.676  55.923  1.00  0.00     0.318 C 
HETATM   29  N   UNL     1       6.312  29.966  56.532  1.00  0.00    -0.330 N 
HETATM   30  O   UNL     1       4.853  31.739  56.354  1.00  0.00    -0.247 OA
HETATM   31  C   UNL     1       6.415  28.496  56.445  1.00  0.00     0.153 C 
HETATM   32  C   UNL     1       6.826  30.506  57.798  1.00  0.00     0.153 C 
HETATM   33  C   UNL     1       7.794  27.989  56.877  1.00  0.00     0.187 C 
HETATM   34  O   UNL     1       8.140  28.485  58.174  1.00  0.00    -0.388 OA
HETATM   35  C   UNL     1       8.188  29.917  58.166  1.00  0.00     0.187 C 
HETATM   36  H   UNL     1       5.410  29.481  54.284  1.00  0.00     0.164 HD
ENDBRANCH  26  27
ENDBRANCH   4  26
TORSDOF 4
ENDMDL
MODEL 8
REMARK VINA RESULT:     -10.4      3.361      8.764
REMARK  4 active torsions:
REMARK  status: ('A' for Active; 'I' for Inactive)
REMARK    1  A    between atoms: C_4  and  C_5 
REMARK    2  A    between atoms: C_16  and  C_17 
REMARK    3  A    between atoms: C_20  and  C_21 
REMARK    4  A    between atoms: C_21  and  N_22 
REMARK       I    between atoms: N_22  and  C_23 
REMARK       I    between atoms: C_23  and  N_24 
ROOT
HETATM    1  C   UNL     1       6.367  29.645  55.892  1.00  0.00     0.067 C 
HETATM    2  C   UNL     1       7.815  29.117  55.835  1.00  0.00     0.001 C 
HETATM    3  C   UNL     1       7.865  27.581  55.988  1.00  0.00     0.040 C 
HETATM    4  C   UNL     1       7.285  27.129  57.340  1.00  0.00     0.206 C 
HETATM    5  N   UNL     1       6.729  28.373  58.011  1.00  0.00    -0.065 N 
HETATM    6  H   UNL     1       6.234  28.058  58.875  1.00  0.00     0.280 HD
HETATM    7  C   UNL     1       5.690  29.090  57.177  1.00  0.00     0.246 C 
HETATM    8  C   UNL     1       8.558  29.706  57.067  1.00  0.00     0.033 C 
HETATM    9  C   UNL     1       7.842  29.321  58.371  1.00  0.00     0.236 C 
ENDROOT
BRANCH   1  10
HETATM   10  C   UNL     1       5.422  29.498  54.726  1.00  0.00     0.038 C 
HETATM   11  N   UNL     1       4.337  30.234  54.309  1.00  0.00    -0.277 N 
HETATM   12  C   UNL     1       3.570  31.270  54.956  1.00  0.00     0.179 C 
HETATM   13  N   UNL     1       3.943  29.917  53.060  1.00  0.00    -0.172 NA
HETATM   14  C   UNL     1       4.599  28.795  52.748  1.00  0.00     0.089 C 
HETATM   15  C   UNL     1       5.514  28.486  53.778  1.00  0.00     0.061 C 
BRANCH  14  16
HETATM   16  C   UNL     1       4.412  28.085  51.482  1.00  0.00    -0.005 A 
HETATM   17  C   UNL     1       3.482  28.548  50.538  1.00  0.00     0.026 A 
HETATM   18  C   UNL     1       3.230  27.836  49.352  1.00  0.00    -0.025 A 
HETATM   19  C   UNL     1       3.933  26.636  49.103  1.00  0.00    -0.026 A 
HETATM   20  C   UNL     1       2.288  28.289  48.414  1.00  0.00     0.012 A 
HETATM   21  C   UNL     1       4.882  26.192  50.036  1.00  0.00     0.013 A 
HETATM   22  C   UNL     1       3.663  25.915  47.929  1.00  0.00     0.012 A 
HETATM   23  C   UNL     1       5.122  26.912  51.211  1.00  0.00     0.014 A 
HETATM   24  C   UNL     1       2.718  26.374  47.011  1.00  0.00     0.001 A 
HETATM   25  C   UNL     1       2.033  27.561  47.252  1.00  0.00     0.001 A 
ENDBRANCH  14  16
ENDBRANCH   1  10
BRANCH   4  26
HETATM   26  C   UNL     1       6.251  25.986  57.173  1.00  0.00     0.157 C 
BRANCH  26  27
HETATM   27  N   UNL     1       6.732  24.754  56.569  1.00  0.00    -0.341 N 
HETATM   28  C   UNL     1       6.591  24.419  55.255  1.00  0.00     0.318 C 
HETATM   29  N   UNL     1       7.420  23.411  54.806  1.00  0.00    -0.330 N 
HETATM   30  O   UNL     1       5.755  24.983  54.551  1.00  0.00    -0.247 OA
HETATM   31  C   UNL     1       8.769  23.187  55.360  1.00  0.00     0.153 C 
HETATM   32  C   UNL     1       7.312  23.057  53.385  1.00  0.00     0.153 C 
HETATM   33  C   UNL     1       9.330  21.816  54.970  1.00  0.00     0.187 C 
HETATM   34  O   UNL     1       9.284  21.627  53.551  1.00  0.00    -0.388 OA
HETATM   35  C   UNL     1       7.931  21.691  53.083  1.00  0.00     0.187 C 
HETATM   36  H   UNL     1       7.162  24.068  57.174  1.00  0.00     0.164 HD
ENDBRANCH  26  27
ENDBRANCH   4  26
TORSDOF 4
ENDMDL
MODEL 9
REMARK VINA RESULT:     -10.2      3.832      8.921
REMARK  4 active torsions:
REMARK  status: ('A' for Active; 'I' for Inactive)
REMARK    1  A    between atoms: C_4  and  C_5 
REMARK    2  A    between atoms: C_16  and  C_17 
REMARK    3  A    between atoms: C_20  and  C_21 
REMARK    4  A    between atoms: C_21  and  N_22 
REMARK       I    between atoms: N_22  and  C_23 
REMARK       I    between atoms: C_23  and  N_24 
ROOT
HETATM    1  C   UNL     1       5.622  29.128  55.848  1.00  0.00     0.067 C 
HETATM    2  C   UNL     1       7.150  29.333  55.827  1.00  0.00     0.001 C 
HETATM    3  C   UNL     1       7.854  28.257  54.972  1.00  0.00     0.040 C 
HETATM    4  C   UNL     1       7.608  26.844  55.527  1.00  0.00     0.206 C 
HETATM    5  N   UNL     1       6.623  26.994  56.673  1.00  0.00    -0.065 N 
HETATM    6  H   UNL     1       6.364  26.030  56.981  1.00  0.00     0.280 HD
HETATM    7  C   UNL     1       5.327  27.660  56.266  1.00  0.00     0.246 C 
HETATM    8  C   UNL     1       7.652  29.133  57.285  1.00  0.00     0.033 C 
HETATM    9  C   UNL     1       7.252  27.749  57.815  1.00  0.00     0.236 C 
ENDROOT
BRANCH   1  10
HETATM   10  C   UNL     1       4.754  29.496  54.671  1.00  0.00     0.038 C 
HETATM   11  N   UNL     1       4.214  30.689  54.250  1.00  0.00    -0.277 N 
HETATM   12  C   UNL     1       4.084  31.971  54.901  1.00  0.00     0.179 C 
HETATM   13  N   UNL     1       3.731  30.627  52.994  1.00  0.00    -0.172 NA
HETATM   14  C   UNL     1       3.716  29.329  52.676  1.00  0.00     0.089 C 
HETATM   15  C   UNL     1       4.324  28.587  53.712  1.00  0.00     0.061 C 
BRANCH  14  16
HETATM   16  C   UNL     1       3.208  28.824  51.401  1.00  0.00    -0.005 A 
HETATM   17  C   UNL     1       3.902  27.820  50.706  1.00  0.00     0.026 A 
HETATM   18  C   UNL     1       3.474  27.379  49.441  1.00  0.00    -0.025 A 
HETATM   19  C   UNL     1       2.320  27.952  48.863  1.00  0.00    -0.026 A 
HETATM   20  C   UNL     1       4.176  26.386  48.738  1.00  0.00     0.012 A 
HETATM   21  C   UNL     1       1.613  28.935  49.572  1.00  0.00     0.013 A 
HETATM   22  C   UNL     1       1.908  27.526  47.590  1.00  0.00     0.012 A 
HETATM   23  C   UNL     1       2.052  29.363  50.830  1.00  0.00     0.014 A 
HETATM   24  C   UNL     1       2.621  26.544  46.900  1.00  0.00     0.001 A 
HETATM   25  C   UNL     1       3.752  25.973  47.475  1.00  0.00     0.001 A 
ENDBRANCH  14  16
ENDBRANCH   1  10
BRANCH   4  26
HETATM   26  C   UNL     1       7.146  25.860  54.422  1.00  0.00     0.157 C 
BRANCH  26  27
HETATM   27  N   UNL     1       7.814  24.570  54.376  1.00  0.00    -0.341 N 
HETATM   28  C   UNL     1       7.684  23.587  55.312  1.00  0.00     0.318 C 
HETATM   29  N   UNL     1       8.088  22.329  54.914  1.00  0.00    -0.330 N 
HETATM   30  O   UNL     1       7.251  23.844  56.434  1.00  0.00    -0.247 OA
HETATM   31  C   UNL     1       7.988  21.869  53.516  1.00  0.00     0.153 C 
HETATM   32  C   UNL     1       7.923  21.246  55.892  1.00  0.00     0.153 C 
HETATM   33  C   UNL     1       8.823  20.609  53.264  1.00  0.00     0.187 C 
HETATM   34  O   UNL     1       8.494  19.580  54.202  1.00  0.00    -0.388 OA
HETATM   35  C   UNL     1       8.764  20.018  55.540  1.00  0.00     0.187 C 
HETATM   36  H   UNL     1       8.464  24.401  53.622  1.00  0.00     0.164 HD
ENDBRANCH  26  27
ENDBRANCH   4  26
TORSDOF 4
ENDMDL
MODEL 10
REMARK VINA RESULT:     -10.2      3.335      6.226
REMARK  4 active torsions:
REMARK  status: ('A' for Active; 'I' for Inactive)
REMARK    1  A    between atoms: C_4  and  C_5 
REMARK    2  A    between atoms: C_16  and  C_17 
REMARK    3  A    between atoms: C_20  and  C_21 
REMARK    4  A    between atoms: C_21  and  N_22 
REMARK       I    between atoms: N_22  and  C_23 
REMARK       I    between atoms: C_23  and  N_24 
ROOT
HETATM    1  C   UNL     1       7.831  27.532  56.402  1.00  0.00     0.067 C 
HETATM    2  C   UNL     1       7.664  27.693  54.877  1.00  0.00     0.001 C 
HETATM    3  C   UNL     1       6.356  28.435  54.525  1.00  0.00     0.040 C 
HETATM    4  C   UNL     1       5.120  27.669  55.025  1.00  0.00     0.206 C 
HETATM    5  N   UNL     1       5.637  26.487  55.828  1.00  0.00    -0.065 N 
HETATM    6  H   UNL     1       4.806  26.028  56.264  1.00  0.00     0.280 HD
HETATM    7  C   UNL     1       6.537  26.891  56.975  1.00  0.00     0.246 C 
HETATM    8  C   UNL     1       7.529  26.261  54.285  1.00  0.00     0.033 C 
HETATM    9  C   UNL     1       6.353  25.513  54.931  1.00  0.00     0.236 C 
ENDROOT
BRANCH   1  10
HETATM   10  C   UNL     1       8.249  28.685  57.280  1.00  0.00     0.038 C 
HETATM   11  N   UNL     1       9.386  29.458  57.322  1.00  0.00    -0.277 N 
HETATM   12  C   UNL     1      10.681  29.303  56.703  1.00  0.00     0.179 C 
HETATM   13  N   UNL     1       9.237  30.563  58.080  1.00  0.00    -0.172 NA
HETATM   14  C   UNL     1       8.092  30.390  58.747  1.00  0.00     0.089 C 
HETATM   15  C   UNL     1       7.458  29.212  58.294  1.00  0.00     0.061 C 
BRANCH  14  16
HETATM   16  C   UNL     1       7.586  31.350  59.728  1.00  0.00    -0.005 A 
HETATM   17  C   UNL     1       8.164  31.435  61.004  1.00  0.00     0.026 A 
HETATM   18  C   UNL     1       7.641  32.294  61.988  1.00  0.00    -0.025 A 
HETATM   19  C   UNL     1       6.516  33.092  61.681  1.00  0.00    -0.026 A 
HETATM   20  C   UNL     1       8.208  32.368  63.270  1.00  0.00     0.012 A 
HETATM   21  C   UNL     1       5.958  33.025  60.395  1.00  0.00     0.013 A 
HETATM   22  C   UNL     1       5.982  33.931  62.671  1.00  0.00     0.012 A 
HETATM   23  C   UNL     1       6.490  32.165  59.428  1.00  0.00     0.014 A 
HETATM   24  C   UNL     1       6.552  33.988  63.944  1.00  0.00     0.001 A 
HETATM   25  C   UNL     1       7.666  33.209  64.242  1.00  0.00     0.001 A 
ENDBRANCH  14  16
ENDBRANCH   1  10
BRANCH   4  26
HETATM   26  C   UNL     1       4.147  28.587  55.808  1.00  0.00     0.157 C 
BRANCH  26  27
HETATM   27  N   UNL     1       3.774  29.838  55.168  1.00  0.00    -0.341 N 
HETATM   28  C   UNL     1       4.353  31.047  55.415  1.00  0.00     0.318 C 
HETATM   29  N   UNL     1       4.125  32.021  54.464  1.00  0.00    -0.330 N 
HETATM   30  O   UNL     1       5.012  31.230  56.438  1.00  0.00    -0.247 OA
HETATM   31  C   UNL     1       3.935  31.706  53.035  1.00  0.00     0.153 C 
HETATM   32  C   UNL     1       4.770  33.321  54.688  1.00  0.00     0.153 C 
HETATM   33  C   UNL     1       3.343  32.886  52.260  1.00  0.00     0.187 C 
HETATM   34  O   UNL     1       4.119  34.072  52.458  1.00  0.00    -0.388 OA
HETATM   35  C   UNL     1       4.138  34.430  53.846  1.00  0.00     0.187 C 
HETATM   36  H   UNL     1       2.993  29.826  54.528  1.00  0.00     0.164 HD
ENDBRANCH  26  27
ENDBRANCH   4  26
TORSDOF 4
ENDMDL
