MODEL 1
REMARK VINA RESULT:      -9.8      0.000      0.000
REMARK  5 active torsions:
REMARK  status: ('A' for Active; 'I' for Inactive)
REMARK    1  A    between atoms: C_5  and  C_6 
REMARK    2  A    between atoms: C_10  and  C_11 
REMARK       I    between atoms: C_11  and  N_12 
REMARK    3  A    between atoms: N_12  and  C_13 
REMARK    4  A    between atoms: C_15  and  O_16 
REMARK    5  A    between atoms: C_19  and  O_20 
ROOT
HETATM    1  C   UNL     1       7.599  26.916  56.204  1.00  0.00     0.068 A 
HETATM    2  N   UNL     1       8.191  25.764  56.605  1.00  0.00    -0.248 NA
HETATM    3  C   UNL     1       7.986  24.628  55.920  1.00  0.00     0.068 A 
HETATM    4  C   UNL     1       7.148  24.545  54.791  1.00  0.00     0.008 A 
HETATM    5  C   UNL     1       6.457  25.732  54.455  1.00  0.00     0.047 A 
HETATM    6  C   UNL     1       6.692  26.917  55.159  1.00  0.00     0.050 A 
HETATM    7  C   UNL     1       8.668  23.493  56.339  1.00  0.00     0.032 A 
HETATM    8  C   UNL     1       8.578  22.279  55.656  1.00  0.00     0.002 A 
HETATM    9  C   UNL     1       7.802  22.195  54.510  1.00  0.00     0.001 A 
HETATM   10  C   UNL     1       7.100  23.318  54.074  1.00  0.00     0.015 A 
ENDROOT
BRANCH   5  11
HETATM   11  C   UNL     1       5.505  25.858  53.318  1.00  0.00     0.257 C 
HETATM   12  N   UNL     1       5.850  26.763  52.330  1.00  0.00    -0.323 N 
HETATM   13  H   UNL     1       6.703  27.292  52.459  1.00  0.00     0.169 HD
HETATM   14  O   UNL     1       4.511  25.139  53.339  1.00  0.00    -0.267 OA
BRANCH  12  15
HETATM   15  C   UNL     1       5.088  27.081  51.180  1.00  0.00     0.040 A 
HETATM   16  C   UNL     1       5.108  26.316  50.009  1.00  0.00     0.066 A 
HETATM   17  C   UNL     1       4.331  26.678  48.907  1.00  0.00     0.073 A 
HETATM   18  C   UNL     1       3.512  27.804  48.991  1.00  0.00     0.073 A 
HETATM   19  C   UNL     1       3.465  28.567  50.157  1.00  0.00     0.073 A 
HETATM   20  C   UNL     1       4.278  28.224  51.239  1.00  0.00     0.066 A 
BRANCH  17  21
HETATM   21  O   UNL     1       4.282  26.021  47.708  1.00  0.00    -0.356 OA
HETATM   22  C   UNL     1       3.021  25.495  47.312  1.00  0.00     0.210 C 
ENDBRANCH  17  21
BRANCH  19  23
HETATM   23  O   UNL     1       2.605  29.631  50.116  1.00  0.00    -0.356 OA
HETATM   24  C   UNL     1       1.564  29.560  49.149  1.00  0.00     0.210 C 
ENDBRANCH  19  23
ENDBRANCH  12  15
ENDBRANCH   5  11
BRANCH   1  25
HETATM   25  C   UNL     1       8.031  28.145  56.906  1.00  0.00    -0.007 A 
HETATM   26  C   UNL     1       9.342  28.647  56.793  1.00  0.00     0.014 A 
HETATM   27  C   UNL     1       9.761  29.777  57.506  1.00  0.00     0.007 A 
HETATM   28  C   UNL     1       8.883  30.437  58.367  1.00  0.00    -0.062 A 
HETATM   29  C   UNL     1       9.327  31.637  59.150  1.00  0.00     0.048 C 
HETATM   30  C   UNL     1       7.573  29.965  58.483  1.00  0.00     0.007 A 
HETATM   31  C   UNL     1       7.158  28.836  57.766  1.00  0.00     0.014 A 
ENDBRANCH   1  25
TORSDOF 5
ENDMDL
MODEL 2
REMARK VINA RESULT:      -9.7      3.016      8.393
REMARK  5 active torsions:
REMARK  status: ('A' for Active; 'I' for Inactive)
REMARK    1  A    between atoms: C_5  and  C_6 
REMARK    2  A    between atoms: C_10  and  C_11 
REMARK       I    between atoms: C_11  and  N_12 
REMARK    3  A    between atoms: N_12  and  C_13 
REMARK    4  A    between atoms: C_15  and  O_16 
REMARK    5  A    between atoms: C_19  and  O_20 
ROOT
HETATM    1  C   UNL     1       6.383  24.916  53.844  1.00  0.00     0.068 A 
HETATM    2  N   UNL     1       5.971  25.116  52.568  1.00  0.00    -0.248 NA
HETATM    3  C   UNL     1       5.474  26.307  52.199  1.00  0.00     0.068 A 
HETATM    4  C   UNL     1       5.323  27.390  53.086  1.00  0.00     0.008 A 
HETATM    5  C   UNL     1       5.657  27.127  54.435  1.00  0.00     0.047 A 
HETATM    6  C   UNL     1       6.196  25.891  54.807  1.00  0.00     0.050 A 
HETATM    7  C   UNL     1       5.126  26.473  50.865  1.00  0.00     0.032 A 
HETATM    8  C   UNL     1       4.664  27.691  50.365  1.00  0.00     0.002 A 
HETATM    9  C   UNL     1       4.563  28.784  51.212  1.00  0.00     0.001 A 
HETATM   10  C   UNL     1       4.898  28.641  52.559  1.00  0.00     0.015 A 
ENDROOT
BRANCH   5  11
HETATM   11  C   UNL     1       5.549  28.121  55.537  1.00  0.00     0.257 C 
HETATM   12  N   UNL     1       6.730  28.717  55.940  1.00  0.00    -0.323 N 
HETATM   13  H   UNL     1       7.582  28.422  55.482  1.00  0.00     0.169 HD
HETATM   14  O   UNL     1       4.427  28.343  55.980  1.00  0.00    -0.267 OA
BRANCH  12  15
HETATM   15  C   UNL     1       6.881  29.657  56.989  1.00  0.00     0.040 A 
HETATM   16  C   UNL     1       6.134  30.837  57.077  1.00  0.00     0.066 A 
HETATM   17  C   UNL     1       6.326  31.724  58.138  1.00  0.00     0.073 A 
HETATM   18  C   UNL     1       7.256  31.411  59.129  1.00  0.00     0.073 A 
HETATM   19  C   UNL     1       7.994  30.230  59.068  1.00  0.00     0.073 A 
HETATM   20  C   UNL     1       7.829  29.369  57.981  1.00  0.00     0.066 A 
BRANCH  17  21
HETATM   21  O   UNL     1       5.670  32.912  58.319  1.00  0.00    -0.356 OA
HETATM   22  C   UNL     1       5.016  33.103  59.568  1.00  0.00     0.210 C 
ENDBRANCH  17  21
BRANCH  19  23
HETATM   23  O   UNL     1       8.855  30.033  60.113  1.00  0.00    -0.356 OA
HETATM   24  C   UNL     1       8.640  30.841  61.264  1.00  0.00     0.210 C 
ENDBRANCH  19  23
ENDBRANCH  12  15
ENDBRANCH   5  11
BRANCH   1  25
HETATM   25  C   UNL     1       7.086  23.640  54.106  1.00  0.00    -0.007 A 
HETATM   26  C   UNL     1       7.572  22.828  53.064  1.00  0.00     0.014 A 
HETATM   27  C   UNL     1       8.183  21.593  53.316  1.00  0.00     0.007 A 
HETATM   28  C   UNL     1       8.319  21.125  54.624  1.00  0.00    -0.062 A 
HETATM   29  C   UNL     1       8.955  19.797  54.905  1.00  0.00     0.048 C 
HETATM   30  C   UNL     1       7.857  21.921  55.675  1.00  0.00     0.007 A 
HETATM   31  C   UNL     1       7.249  23.157  55.417  1.00  0.00     0.014 A 
ENDBRANCH   1  25
TORSDOF 5
ENDMDL
MODEL 3
REMARK VINA RESULT:      -9.7      3.023      8.350
REMARK  5 active torsions:
REMARK  status: ('A' for Active; 'I' for Inactive)
REMARK    1  A    between atoms: C_5  and  C_6 
REMARK    2  A    between atoms: C_10  and  C_11 
REMARK       I    between atoms: C_11  and  N_12 
REMARK    3  A    between atoms: N_12  and  C_13 
REMARK    4  A    between atoms: C_15  and  O_16 
REMARK    5  A    between atoms: C_19  and  O_20 
ROOT
HETATM    1  C   UNL     1       6.439  24.814  53.904  1.00  0.00     0.068 A 
HETATM    2  N   UNL     1       6.107  25.084  52.618  1.00  0.00    -0.248 NA
HETATM    3  C   UNL     1       5.703  26.317  52.271  1.00  0.00     0.068 A 
HETATM    4  C   UNL     1       5.572  27.375  53.191  1.00  0.00     0.008 A 
HETATM    5  C   UNL     1       5.818  27.044  54.544  1.00  0.00     0.047 A 
HETATM    6  C   UNL     1       6.260  25.764  54.894  1.00  0.00     0.050 A 
HETATM    7  C   UNL     1       5.437  26.552  50.929  1.00  0.00     0.032 A 
HETATM    8  C   UNL     1       5.077  27.814  50.454  1.00  0.00     0.002 A 
HETATM    9  C   UNL     1       4.998  28.880  51.337  1.00  0.00     0.001 A 
HETATM   10  C   UNL     1       5.251  28.668  52.692  1.00  0.00     0.015 A 
ENDROOT
BRANCH   5  11
HETATM   11  C   UNL     1       5.712  28.002  55.677  1.00  0.00     0.257 C 
HETATM   12  N   UNL     1       6.890  28.606  56.078  1.00  0.00    -0.323 N 
HETATM   13  H   UNL     1       7.739  28.339  55.598  1.00  0.00     0.169 HD
HETATM   14  O   UNL     1       4.594  28.192  56.145  1.00  0.00    -0.267 OA
BRANCH  12  15
HETATM   15  C   UNL     1       7.043  29.516  57.152  1.00  0.00     0.040 A 
HETATM   16  C   UNL     1       7.935  29.312  58.211  1.00  0.00     0.066 A 
HETATM   17  C   UNL     1       8.045  30.248  59.241  1.00  0.00     0.073 A 
HETATM   18  C   UNL     1       7.270  31.407  59.195  1.00  0.00     0.073 A 
HETATM   19  C   UNL     1       6.390  31.636  58.138  1.00  0.00     0.073 A 
HETATM   20  C   UNL     1       6.254  30.675  57.133  1.00  0.00     0.066 A 
BRANCH  17  21
HETATM   21  O   UNL     1       8.865  30.148  60.332  1.00  0.00    -0.356 OA
HETATM   22  C   UNL     1       8.532  30.945  61.463  1.00  0.00     0.210 C 
ENDBRANCH  17  21
BRANCH  19  23
HETATM   23  O   UNL     1       5.707  32.820  58.201  1.00  0.00    -0.356 OA
HETATM   24  C   UNL     1       5.199  33.183  59.479  1.00  0.00     0.210 C 
ENDBRANCH  19  23
ENDBRANCH  12  15
ENDBRANCH   5  11
BRANCH   1  25
HETATM   25  C   UNL     1       7.048  23.487  54.152  1.00  0.00    -0.007 A 
HETATM   26  C   UNL     1       7.193  22.964  55.451  1.00  0.00     0.014 A 
HETATM   27  C   UNL     1       7.823  21.735  55.682  1.00  0.00     0.007 A 
HETATM   28  C   UNL     1       8.341  20.993  54.619  1.00  0.00    -0.062 A 
HETATM   29  C   UNL     1       9.034  19.685  54.858  1.00  0.00     0.048 C 
HETATM   30  C   UNL     1       8.195  21.487  53.321  1.00  0.00     0.007 A 
HETATM   31  C   UNL     1       7.561  22.716  53.094  1.00  0.00     0.014 A 
ENDBRANCH   1  25
TORSDOF 5
ENDMDL
MODEL 4
REMARK VINA RESULT:      -9.7      0.578      2.233
REMARK  5 active torsions:
REMARK  status: ('A' for Active; 'I' for Inactive)
REMARK    1  A    between atoms: C_5  and  C_6 
REMARK    2  A    between atoms: C_10  and  C_11 
REMARK       I    between atoms: C_11  and  N_12 
REMARK    3  A    between atoms: N_12  and  C_13 
REMARK    4  A    between atoms: C_15  and  O_16 
REMARK    5  A    between atoms: C_19  and  O_20 
ROOT
HETATM    1  C   UNL     1       7.465  26.711  55.957  1.00  0.00     0.068 A 
HETATM    2  N   UNL     1       8.165  25.576  56.200  1.00  0.00    -0.248 NA
HETATM    3  C   UNL     1       8.032  24.515  55.388  1.00  0.00     0.068 A 
HETATM    4  C   UNL     1       7.165  24.494  54.279  1.00  0.00     0.008 A 
HETATM    5  C   UNL     1       6.365  25.648  54.107  1.00  0.00     0.047 A 
HETATM    6  C   UNL     1       6.525  26.757  54.943  1.00  0.00     0.050 A 
HETATM    7  C   UNL     1       8.820  23.402  55.649  1.00  0.00     0.032 A 
HETATM    8  C   UNL     1       8.808  22.275  54.827  1.00  0.00     0.002 A 
HETATM    9  C   UNL     1       8.002  22.259  53.699  1.00  0.00     0.001 A 
HETATM   10  C   UNL     1       7.194  23.361  53.420  1.00  0.00     0.015 A 
ENDROOT
BRANCH   5  11
HETATM   11  C   UNL     1       5.366  25.824  53.017  1.00  0.00     0.257 C 
HETATM   12  N   UNL     1       5.675  26.766  52.053  1.00  0.00    -0.323 N 
HETATM   13  H   UNL     1       6.535  27.285  52.166  1.00  0.00     0.169 HD
HETATM   14  O   UNL     1       4.370  25.109  53.053  1.00  0.00    -0.267 OA
BRANCH  12  15
HETATM   15  C   UNL     1       4.866  27.134  50.950  1.00  0.00     0.040 A 
HETATM   16  C   UNL     1       4.057  28.276  50.937  1.00  0.00     0.066 A 
HETATM   17  C   UNL     1       3.284  28.589  49.818  1.00  0.00     0.073 A 
HETATM   18  C   UNL     1       3.341  27.762  48.696  1.00  0.00     0.073 A 
HETATM   19  C   UNL     1       4.157  26.632  48.684  1.00  0.00     0.073 A 
HETATM   20  C   UNL     1       4.894  26.300  49.823  1.00  0.00     0.066 A 
BRANCH  17  21
HETATM   21  O   UNL     1       2.445  29.664  49.698  1.00  0.00    -0.356 OA
HETATM   22  C   UNL     1       3.000  30.857  49.157  1.00  0.00     0.210 C 
ENDBRANCH  17  21
BRANCH  19  23
HETATM   23  O   UNL     1       4.139  25.920  47.515  1.00  0.00    -0.356 OA
HETATM   24  C   UNL     1       2.856  25.656  46.961  1.00  0.00     0.210 C 
ENDBRANCH  19  23
ENDBRANCH  12  15
ENDBRANCH   5  11
BRANCH   1  25
HETATM   25  C   UNL     1       7.818  27.881  56.792  1.00  0.00    -0.007 A 
HETATM   26  C   UNL     1       6.859  28.562  57.565  1.00  0.00     0.014 A 
HETATM   27  C   UNL     1       7.188  29.705  58.306  1.00  0.00     0.007 A 
HETATM   28  C   UNL     1       8.489  30.210  58.288  1.00  0.00    -0.062 A 
HETATM   29  C   UNL     1       8.847  31.443  59.062  1.00  0.00     0.048 C 
HETATM   30  C   UNL     1       9.460  29.542  57.539  1.00  0.00     0.007 A 
HETATM   31  C   UNL     1       9.127  28.398  56.802  1.00  0.00     0.014 A 
ENDBRANCH   1  25
TORSDOF 5
ENDMDL
MODEL 5
REMARK VINA RESULT:      -9.4      2.842      8.113
REMARK  5 active torsions:
REMARK  status: ('A' for Active; 'I' for Inactive)
REMARK    1  A    between atoms: C_5  and  C_6 
REMARK    2  A    between atoms: C_10  and  C_11 
REMARK       I    between atoms: C_11  and  N_12 
REMARK    3  A    between atoms: N_12  and  C_13 
REMARK    4  A    between atoms: C_15  and  O_16 
REMARK    5  A    between atoms: C_19  and  O_20 
ROOT
HETATM    1  C   UNL     1       6.080  26.425  51.989  1.00  0.00     0.068 A 
HETATM    2  N   UNL     1       6.771  25.265  51.870  1.00  0.00    -0.248 NA
HETATM    3  C   UNL     1       7.318  24.693  52.954  1.00  0.00     0.068 A 
HETATM    4  C   UNL     1       7.243  25.250  54.245  1.00  0.00     0.008 A 
HETATM    5  C   UNL     1       6.612  26.513  54.329  1.00  0.00     0.047 A 
HETATM    6  C   UNL     1       6.024  27.092  53.200  1.00  0.00     0.050 A 
HETATM    7  C   UNL     1       7.961  23.474  52.782  1.00  0.00     0.032 A 
HETATM    8  C   UNL     1       8.504  22.764  53.853  1.00  0.00     0.002 A 
HETATM    9  C   UNL     1       8.388  23.270  55.138  1.00  0.00     0.001 A 
HETATM   10  C   UNL     1       7.756  24.498  55.337  1.00  0.00     0.015 A 
ENDROOT
BRANCH   5  11
HETATM   11  C   UNL     1       6.446  27.288  55.588  1.00  0.00     0.257 C 
HETATM   12  N   UNL     1       7.238  28.416  55.719  1.00  0.00    -0.323 N 
HETATM   13  H   UNL     1       7.887  28.619  54.972  1.00  0.00     0.169 HD
HETATM   14  O   UNL     1       5.613  26.880  56.390  1.00  0.00    -0.267 OA
BRANCH  12  15
HETATM   15  C   UNL     1       7.285  29.282  56.838  1.00  0.00     0.040 A 
HETATM   16  C   UNL     1       8.209  29.144  57.880  1.00  0.00     0.066 A 
HETATM   17  C   UNL     1       8.208  30.033  58.956  1.00  0.00     0.073 A 
HETATM   18  C   UNL     1       7.288  31.081  58.974  1.00  0.00     0.073 A 
HETATM   19  C   UNL     1       6.373  31.246  57.936  1.00  0.00     0.073 A 
HETATM   20  C   UNL     1       6.350  30.327  56.884  1.00  0.00     0.066 A 
BRANCH  17  21
HETATM   21  O   UNL     1       9.048  29.986  60.036  1.00  0.00    -0.356 OA
HETATM   22  C   UNL     1       8.678  30.757  61.173  1.00  0.00     0.210 C 
ENDBRANCH  17  21
BRANCH  19  23
HETATM   23  O   UNL     1       5.542  32.325  58.064  1.00  0.00    -0.356 OA
HETATM   24  C   UNL     1       5.290  32.768  59.392  1.00  0.00     0.210 C 
ENDBRANCH  19  23
ENDBRANCH  12  15
ENDBRANCH   5  11
BRANCH   1  25
HETATM   25  C   UNL     1       5.358  26.877  50.778  1.00  0.00    -0.007 A 
HETATM   26  C   UNL     1       5.264  28.238  50.430  1.00  0.00     0.014 A 
HETATM   27  C   UNL     1       4.530  28.664  49.316  1.00  0.00     0.007 A 
HETATM   28  C   UNL     1       3.855  27.739  48.517  1.00  0.00    -0.062 A 
HETATM   29  C   UNL     1       3.052  28.186  47.333  1.00  0.00     0.048 C 
HETATM   30  C   UNL     1       3.947  26.382  48.835  1.00  0.00     0.007 A 
HETATM   31  C   UNL     1       4.685  25.961  49.949  1.00  0.00     0.014 A 
ENDBRANCH   1  25
TORSDOF 5
ENDMDL
MODEL 6
REMARK VINA RESULT:      -9.4      1.806      5.353
REMARK  5 active torsions:
REMARK  status: ('A' for Active; 'I' for Inactive)
REMARK    1  A    between atoms: C_5  and  C_6 
REMARK    2  A    between atoms: C_10  and  C_11 
REMARK       I    between atoms: C_11  and  N_12 
REMARK    3  A    between atoms: N_12  and  C_13 
REMARK    4  A    between atoms: C_15  and  O_16 
REMARK    5  A    between atoms: C_19  and  O_20 
ROOT
HETATM    1  C   UNL     1       7.023  25.489  55.027  1.00  0.00     0.068 A 
HETATM    2  N   UNL     1       7.239  26.333  56.065  1.00  0.00    -0.248 NA
HETATM    3  C   UNL     1       6.703  27.564  56.055  1.00  0.00     0.068 A 
HETATM    4  C   UNL     1       5.928  28.063  54.990  1.00  0.00     0.008 A 
HETATM    5  C   UNL     1       5.806  27.206  53.871  1.00  0.00     0.047 A 
HETATM    6  C   UNL     1       6.347  25.917  53.898  1.00  0.00     0.050 A 
HETATM    7  C   UNL     1       6.906  28.362  57.173  1.00  0.00     0.032 A 
HETATM    8  C   UNL     1       6.337  29.630  57.292  1.00  0.00     0.002 A 
HETATM    9  C   UNL     1       5.525  30.114  56.278  1.00  0.00     0.001 A 
HETATM   10  C   UNL     1       5.313  29.335  55.140  1.00  0.00     0.015 A 
ENDROOT
BRANCH   5  11
HETATM   11  C   UNL     1       5.055  27.545  52.632  1.00  0.00     0.257 C 
HETATM   12  N   UNL     1       5.762  27.459  51.446  1.00  0.00    -0.323 N 
HETATM   13  H   UNL     1       6.739  27.202  51.503  1.00  0.00     0.169 HD
HETATM   14  O   UNL     1       3.873  27.848  52.760  1.00  0.00    -0.267 OA
BRANCH  12  15
HETATM   15  C   UNL     1       5.274  27.769  50.153  1.00  0.00     0.040 A 
HETATM   16  C   UNL     1       5.260  29.066  49.628  1.00  0.00     0.066 A 
HETATM   17  C   UNL     1       4.769  29.309  48.344  1.00  0.00     0.073 A 
HETATM   18  C   UNL     1       4.311  28.239  47.574  1.00  0.00     0.073 A 
HETATM   19  C   UNL     1       4.337  26.938  48.075  1.00  0.00     0.073 A 
HETATM   20  C   UNL     1       4.788  26.708  49.376  1.00  0.00     0.066 A 
BRANCH  17  21
HETATM   21  O   UNL     1       4.688  30.531  47.734  1.00  0.00    -0.356 OA
HETATM   22  C   UNL     1       5.003  31.669  48.528  1.00  0.00     0.210 C 
ENDBRANCH  17  21
BRANCH  19  23
HETATM   23  O   UNL     1       3.882  25.979  47.211  1.00  0.00    -0.356 OA
HETATM   24  C   UNL     1       2.965  25.034  47.750  1.00  0.00     0.210 C 
ENDBRANCH  19  23
ENDBRANCH  12  15
ENDBRANCH   5  11
BRANCH   1  25
HETATM   25  C   UNL     1       7.494  24.098  55.213  1.00  0.00    -0.007 A 
HETATM   26  C   UNL     1       7.453  23.151  54.172  1.00  0.00     0.014 A 
HETATM   27  C   UNL     1       7.845  21.821  54.371  1.00  0.00     0.007 A 
HETATM   28  C   UNL     1       8.281  21.392  55.625  1.00  0.00    -0.062 A 
HETATM   29  C   UNL     1       8.686  19.966  55.854  1.00  0.00     0.048 C 
HETATM   30  C   UNL     1       8.344  22.319  56.669  1.00  0.00     0.007 A 
HETATM   31  C   UNL     1       7.954  23.648  56.463  1.00  0.00     0.014 A 
ENDBRANCH   1  25
TORSDOF 5
ENDMDL
MODEL 7
REMARK VINA RESULT:      -9.3      1.810      5.009
REMARK  5 active torsions:
REMARK  status: ('A' for Active; 'I' for Inactive)
REMARK    1  A    between atoms: C_5  and  C_6 
REMARK    2  A    between atoms: C_10  and  C_11 
REMARK       I    between atoms: C_11  and  N_12 
REMARK    3  A    between atoms: N_12  and  C_13 
REMARK    4  A    between atoms: C_15  and  O_16 
REMARK    5  A    between atoms: C_19  and  O_20 
ROOT
HETATM    1  C   UNL     1       7.035  25.477  55.033  1.00  0.00     0.068 A 
HETATM    2  N   UNL     1       7.256  26.334  56.059  1.00  0.00    -0.248 NA
HETATM    3  C   UNL     1       6.726  27.567  56.033  1.00  0.00     0.068 A 
HETATM    4  C   UNL     1       5.951  28.054  54.962  1.00  0.00     0.008 A 
HETATM    5  C   UNL     1       5.823  27.183  53.855  1.00  0.00     0.047 A 
HETATM    6  C   UNL     1       6.359  25.892  53.899  1.00  0.00     0.050 A 
HETATM    7  C   UNL     1       6.934  28.379  57.139  1.00  0.00     0.032 A 
HETATM    8  C   UNL     1       6.370  29.652  57.242  1.00  0.00     0.002 A 
HETATM    9  C   UNL     1       5.559  30.125  56.223  1.00  0.00     0.001 A 
HETATM   10  C   UNL     1       5.342  29.332  55.096  1.00  0.00     0.015 A 
ENDROOT
BRANCH   5  11
HETATM   11  C   UNL     1       5.071  27.507  52.613  1.00  0.00     0.257 C 
HETATM   12  N   UNL     1       5.762  27.356  51.424  1.00  0.00    -0.323 N 
HETATM   13  H   UNL     1       6.729  27.065  51.480  1.00  0.00     0.169 HD
HETATM   14  O   UNL     1       3.903  27.859  52.743  1.00  0.00    -0.267 OA
BRANCH  12  15
HETATM   15  C   UNL     1       5.272  27.641  50.126  1.00  0.00     0.040 A 
HETATM   16  C   UNL     1       4.702  26.673  49.291  1.00  0.00     0.066 A 
HETATM   17  C   UNL     1       4.233  27.015  48.021  1.00  0.00     0.073 A 
HETATM   18  C   UNL     1       4.315  28.341  47.598  1.00  0.00     0.073 A 
HETATM   19  C   UNL     1       4.862  29.322  48.425  1.00  0.00     0.073 A 
HETATM   20  C   UNL     1       5.370  28.965  49.676  1.00  0.00     0.066 A 
BRANCH  17  21
HETATM   21  O   UNL     1       3.676  26.155  47.114  1.00  0.00    -0.356 OA
HETATM   22  C   UNL     1       3.016  25.007  47.635  1.00  0.00     0.210 C 
ENDBRANCH  17  21
BRANCH  19  23
HETATM   23  O   UNL     1       4.863  30.585  47.899  1.00  0.00    -0.356 OA
HETATM   24  C   UNL     1       4.301  31.605  48.716  1.00  0.00     0.210 C 
ENDBRANCH  19  23
ENDBRANCH  12  15
ENDBRANCH   5  11
BRANCH   1  25
HETATM   25  C   UNL     1       7.500  24.086  55.237  1.00  0.00    -0.007 A 
HETATM   26  C   UNL     1       7.471  23.130  54.204  1.00  0.00     0.014 A 
HETATM   27  C   UNL     1       7.857  21.802  54.420  1.00  0.00     0.007 A 
HETATM   28  C   UNL     1       8.275  21.382  55.684  1.00  0.00    -0.062 A 
HETATM   29  C   UNL     1       8.673  19.958  55.931  1.00  0.00     0.048 C 
HETATM   30  C   UNL     1       8.326  22.317  56.720  1.00  0.00     0.007 A 
HETATM   31  C   UNL     1       7.941  23.646  56.498  1.00  0.00     0.014 A 
ENDBRANCH   1  25
TORSDOF 5
ENDMDL
MODEL 8
REMARK VINA RESULT:      -8.3      3.466      7.598
REMARK  5 active torsions:
REMARK  status: ('A' for Active; 'I' for Inactive)
REMARK    1  A    between atoms: C_5  and  C_6 
REMARK    2  A    between atoms: C_10  and  C_11 
REMARK       I    between atoms: C_11  and  N_12 
REMARK    3  A    between atoms: N_12  and  C_13 
REMARK    4  A    between atoms: C_15  and  O_16 
REMARK    5  A    between atoms: C_19  and  O_20 
ROOT
HETATM    1  C   UNL     1       5.714  26.119  52.232  1.00  0.00     0.068 A 
HETATM    2  N   UNL     1       5.329  25.798  50.972  1.00  0.00    -0.248 NA
HETATM    3  C   UNL     1       4.744  26.720  50.191  1.00  0.00     0.068 A 
HETATM    4  C   UNL     1       4.470  28.034  50.617  1.00  0.00     0.008 A 
HETATM    5  C   UNL     1       4.781  28.316  51.968  1.00  0.00     0.047 A 
HETATM    6  C   UNL     1       5.412  27.358  52.769  1.00  0.00     0.050 A 
HETATM    7  C   UNL     1       4.428  26.353  48.890  1.00  0.00     0.032 A 
HETATM    8  C   UNL     1       3.880  27.255  47.977  1.00  0.00     0.002 A 
HETATM    9  C   UNL     1       3.657  28.568  48.363  1.00  0.00     0.001 A 
HETATM   10  C   UNL     1       3.957  28.959  49.667  1.00  0.00     0.015 A 
ENDROOT
BRANCH   5  11
HETATM   11  C   UNL     1       4.551  29.630  52.628  1.00  0.00     0.257 C 
HETATM   12  N   UNL     1       4.291  29.594  53.986  1.00  0.00    -0.323 N 
HETATM   13  H   UNL     1       4.248  28.685  54.429  1.00  0.00     0.169 HD
HETATM   14  O   UNL     1       4.631  30.630  51.923  1.00  0.00    -0.267 OA
BRANCH  12  15
HETATM   15  C   UNL     1       4.002  30.705  54.815  1.00  0.00     0.040 A 
HETATM   16  C   UNL     1       2.766  31.359  54.820  1.00  0.00     0.066 A 
HETATM   17  C   UNL     1       2.540  32.449  55.664  1.00  0.00     0.073 A 
HETATM   18  C   UNL     1       3.555  32.868  56.524  1.00  0.00     0.073 A 
HETATM   19  C   UNL     1       4.786  32.215  56.546  1.00  0.00     0.073 A 
HETATM   20  C   UNL     1       5.020  31.154  55.668  1.00  0.00     0.066 A 
BRANCH  17  21
HETATM   21  O   UNL     1       1.383  33.176  55.742  1.00  0.00    -0.356 OA
HETATM   22  C   UNL     1       0.821  33.628  54.515  1.00  0.00     0.210 C 
ENDBRANCH  17  21
BRANCH  19  23
HETATM   23  O   UNL     1       5.686  32.710  57.450  1.00  0.00    -0.356 OA
HETATM   24  C   UNL     1       6.213  31.778  58.386  1.00  0.00     0.210 C 
ENDBRANCH  19  23
ENDBRANCH  12  15
ENDBRANCH   5  11
BRANCH   1  25
HETATM   25  C   UNL     1       6.515  25.098  52.945  1.00  0.00    -0.007 A 
HETATM   26  C   UNL     1       7.529  24.362  52.302  1.00  0.00     0.014 A 
HETATM   27  C   UNL     1       8.242  23.357  52.966  1.00  0.00     0.007 A 
HETATM   28  C   UNL     1       7.957  23.047  54.297  1.00  0.00    -0.062 A 
HETATM   29  C   UNL     1       8.702  21.961  55.012  1.00  0.00     0.048 C 
HETATM   30  C   UNL     1       6.965  23.775  54.959  1.00  0.00     0.007 A 
HETATM   31  C   UNL     1       6.256  24.782  54.290  1.00  0.00     0.014 A 
ENDBRANCH   1  25
TORSDOF 5
ENDMDL
MODEL 9
REMARK VINA RESULT:      -8.2      3.890      7.360
REMARK  5 active torsions:
REMARK  status: ('A' for Active; 'I' for Inactive)
REMARK    1  A    between atoms: C_5  and  C_6 
REMARK    2  A    between atoms: C_10  and  C_11 
REMARK       I    between atoms: C_11  and  N_12 
REMARK    3  A    between atoms: N_12  and  C_13 
REMARK    4  A    between atoms: C_15  and  O_16 
REMARK    5  A    between atoms: C_19  and  O_20 
ROOT
HETATM    1  C   UNL     1       5.228  26.427  51.168  1.00  0.00     0.068 A 
HETATM    2  N   UNL     1       4.588  25.666  50.248  1.00  0.00    -0.248 NA
HETATM    3  C   UNL     1       3.936  26.247  49.228  1.00  0.00     0.068 A 
HETATM    4  C   UNL     1       3.847  27.643  49.062  1.00  0.00     0.008 A 
HETATM    5  C   UNL     1       4.429  28.419  50.092  1.00  0.00     0.047 A 
HETATM    6  C   UNL     1       5.126  27.807  51.138  1.00  0.00     0.050 A 
HETATM    7  C   UNL     1       3.352  25.417  48.281  1.00  0.00     0.032 A 
HETATM    8  C   UNL     1       2.709  25.919  47.149  1.00  0.00     0.002 A 
HETATM    9  C   UNL     1       2.662  27.289  46.941  1.00  0.00     0.001 A 
HETATM   10  C   UNL     1       3.233  28.145  47.882  1.00  0.00     0.015 A 
ENDROOT
BRANCH   5  11
HETATM   11  C   UNL     1       4.427  29.907  50.127  1.00  0.00     0.257 C 
HETATM   12  N   UNL     1       5.575  30.530  49.673  1.00  0.00    -0.323 N 
HETATM   13  H   UNL     1       6.341  29.939  49.377  1.00  0.00     0.169 HD
HETATM   14  O   UNL     1       3.406  30.454  50.532  1.00  0.00    -0.267 OA
BRANCH  12  15
HETATM   15  C   UNL     1       5.820  31.925  49.649  1.00  0.00     0.040 A 
HETATM   16  C   UNL     1       6.218  32.615  48.499  1.00  0.00     0.066 A 
HETATM   17  C   UNL     1       6.441  33.993  48.536  1.00  0.00     0.073 A 
HETATM   18  C   UNL     1       6.240  34.684  49.730  1.00  0.00     0.073 A 
HETATM   19  C   UNL     1       5.824  34.016  50.881  1.00  0.00     0.073 A 
HETATM   20  C   UNL     1       5.645  32.631  50.848  1.00  0.00     0.066 A 
BRANCH  17  21
HETATM   21  O   UNL     1       6.849  34.768  47.484  1.00  0.00    -0.356 OA
HETATM   22  C   UNL     1       7.666  34.142  46.502  1.00  0.00     0.210 C 
ENDBRANCH  17  21
BRANCH  19  23
HETATM   23  O   UNL     1       5.641  34.813  51.978  1.00  0.00    -0.356 OA
HETATM   24  C   UNL     1       6.790  35.040  52.786  1.00  0.00     0.210 C 
ENDBRANCH  19  23
ENDBRANCH  12  15
ENDBRANCH   5  11
BRANCH   1  25
HETATM   25  C   UNL     1       6.072  25.696  52.141  1.00  0.00    -0.007 A 
HETATM   26  C   UNL     1       7.335  25.182  51.794  1.00  0.00     0.014 A 
HETATM   27  C   UNL     1       8.102  24.441  52.702  1.00  0.00     0.007 A 
HETATM   28  C   UNL     1       7.623  24.179  53.986  1.00  0.00    -0.062 A 
HETATM   29  C   UNL     1       8.428  23.371  54.959  1.00  0.00     0.048 C 
HETATM   30  C   UNL     1       6.378  24.692  54.356  1.00  0.00     0.007 A 
HETATM   31  C   UNL     1       5.616  25.436  53.446  1.00  0.00     0.014 A 
ENDBRANCH   1  25
TORSDOF 5
ENDMDL
MODEL 10
REMARK VINA RESULT:      -8.1      3.910      7.550
REMARK  5 active torsions:
REMARK  status: ('A' for Active; 'I' for Inactive)
REMARK    1  A    between atoms: C_5  and  C_6 
REMARK    2  A    between atoms: C_10  and  C_11 
REMARK       I    between atoms: C_11  and  N_12 
REMARK    3  A    between atoms: N_12  and  C_13 
REMARK    4  A    between atoms: C_15  and  O_16 
REMARK    5  A    between atoms: C_19  and  O_20 
ROOT
HETATM    1  C   UNL     1       5.230  26.398  51.214  1.00  0.00     0.068 A 
HETATM    2  N   UNL     1       4.605  25.682  50.248  1.00  0.00    -0.248 NA
HETATM    3  C   UNL     1       3.963  26.311  49.251  1.00  0.00     0.068 A 
HETATM    4  C   UNL     1       3.870  27.713  49.154  1.00  0.00     0.008 A 
HETATM    5  C   UNL     1       4.436  28.438  50.228  1.00  0.00     0.047 A 
HETATM    6  C   UNL     1       5.123  27.777  51.252  1.00  0.00     0.050 A 
HETATM    7  C   UNL     1       3.394  25.527  48.256  1.00  0.00     0.032 A 
HETATM    8  C   UNL     1       2.764  26.083  47.143  1.00  0.00     0.002 A 
HETATM    9  C   UNL     1       2.714  27.461  47.002  1.00  0.00     0.001 A 
HETATM   10  C   UNL     1       3.269  28.272  47.993  1.00  0.00     0.015 A 
ENDROOT
BRANCH   5  11
HETATM   11  C   UNL     1       4.427  29.922  50.338  1.00  0.00     0.257 C 
HETATM   12  N   UNL     1       5.557  30.576  49.880  1.00  0.00    -0.323 N 
HETATM   13  H   UNL     1       6.316  30.005  49.531  1.00  0.00     0.169 HD
HETATM   14  O   UNL     1       3.417  30.442  50.802  1.00  0.00    -0.267 OA
BRANCH  12  15
HETATM   15  C   UNL     1       5.794  31.971  49.918  1.00  0.00     0.040 A 
HETATM   16  C   UNL     1       5.641  32.746  51.074  1.00  0.00     0.066 A 
HETATM   17  C   UNL     1       5.893  34.119  51.050  1.00  0.00     0.073 A 
HETATM   18  C   UNL     1       6.322  34.713  49.863  1.00  0.00     0.073 A 
HETATM   19  C   UNL     1       6.498  33.953  48.708  1.00  0.00     0.073 A 
HETATM   20  C   UNL     1       6.202  32.589  48.727  1.00  0.00     0.066 A 
BRANCH  17  21
HETATM   21  O   UNL     1       5.761  34.977  52.108  1.00  0.00    -0.356 OA
HETATM   22  C   UNL     1       5.582  34.392  53.393  1.00  0.00     0.210 C 
ENDBRANCH  17  21
BRANCH  19  23
HETATM   23  O   UNL     1       6.944  34.653  47.619  1.00  0.00    -0.356 OA
HETATM   24  C   UNL     1       7.682  35.838  47.895  1.00  0.00     0.210 C 
ENDBRANCH  19  23
ENDBRANCH  12  15
ENDBRANCH   5  11
BRANCH   1  25
HETATM   25  C   UNL     1       6.064  25.622  52.160  1.00  0.00    -0.007 A 
HETATM   26  C   UNL     1       7.335  25.133  51.805  1.00  0.00     0.014 A 
HETATM   27  C   UNL     1       8.094  24.350  52.684  1.00  0.00     0.007 A 
HETATM   28  C   UNL     1       7.598  24.020  53.946  1.00  0.00    -0.062 A 
HETATM   29  C   UNL     1       8.394  23.167  54.888  1.00  0.00     0.048 C 
HETATM   30  C   UNL     1       6.346  24.508  54.325  1.00  0.00     0.007 A 
HETATM   31  C   UNL     1       5.592  25.294  53.443  1.00  0.00     0.014 A 
ENDBRANCH   1  25
TORSDOF 5
ENDMDL
