MODEL 1
REMARK VINA RESULT:      -9.8      0.000      0.000
REMARK  6 active torsions:
REMARK  status: ('A' for Active; 'I' for Inactive)
REMARK    1  A    between atoms: C_4  and  O_5 
REMARK    2  A    between atoms: O_5  and  C_6 
REMARK    3  A    between atoms: C_6  and  C_7 
REMARK       I    between atoms: C_7  and  N_8 
REMARK    4  A    between atoms: N_8  and  C_9 
REMARK    5  A    between atoms: C_9  and  C_10 
REMARK       I    between atoms: C_10  and  N_11 
REMARK    6  A    between atoms: N_11  and  N_12 
ROOT
HETATM    1  C   UNL     1       6.366  27.722  56.010  1.00  0.00     0.255 C 
HETATM    2  N   UNL     1       7.566  27.059  55.830  1.00  0.00    -0.245 N 
HETATM    3  O   UNL     1       5.253  27.202  55.900  1.00  0.00    -0.270 OA
HETATM    4  H   UNL     1       8.438  27.585  55.897  1.00  0.00     0.192 HD
ENDROOT
BRANCH   1   5
HETATM    5  C   UNL     1       6.500  29.177  56.476  1.00  0.00     0.227 C 
BRANCH   5   6
HETATM    6  N   UNL     1       6.816  29.450  57.874  1.00  0.00    -0.350 N 
HETATM    7  C   UNL     1       8.144  29.521  58.262  1.00  0.00     0.242 C 
HETATM    8  O   UNL     1       9.049  28.997  57.620  1.00  0.00    -0.271 OA
HETATM    9  H   UNL     1       6.219  30.138  58.322  1.00  0.00     0.163 HD
BRANCH   7  10
HETATM   10  C   UNL     1       8.387  30.293  59.552  1.00  0.00     0.278 C 
BRANCH  10  11
HETATM   11  O   UNL     1       7.351  31.276  59.629  1.00  0.00    -0.342 OA
BRANCH  11  12
HETATM   12  C   UNL     1       7.321  31.899  60.847  1.00  0.00     0.069 A 
HETATM   13  C   UNL     1       6.498  32.997  61.102  1.00  0.00     0.043 A 
HETATM   14  C   UNL     1       6.530  33.623  62.355  1.00  0.00    -0.059 A 
HETATM   15  C   UNL     1       5.668  34.816  62.644  1.00  0.00     0.048 C 
HETATM   16  C   UNL     1       7.408  33.142  63.337  1.00  0.00     0.007 A 
HETATM   17  C   UNL     1       8.243  32.056  63.071  1.00  0.00     0.003 A 
HETATM   18  C   UNL     1       8.207  31.441  61.821  1.00  0.00     0.037 A 
ENDBRANCH  11  12
ENDBRANCH  10  11
ENDBRANCH   7  10
ENDBRANCH   5   6
ENDBRANCH   1   5
BRANCH   2  19
HETATM   19  N   UNL     1       7.571  25.808  55.282  1.00  0.00    -0.166 NA
HETATM   20  C   UNL     1       7.895  24.828  56.060  1.00  0.00     0.157 A 
HETATM   21  C   UNL     1       8.211  24.850  57.559  1.00  0.00     0.277 A 
HETATM   22  C   UNL     1       8.015  23.436  55.645  1.00  0.00     0.028 A 
HETATM   23  O   UNL     1       8.246  25.843  58.253  1.00  0.00    -0.266 OA
HETATM   24  N   UNL     1       8.436  23.533  57.904  1.00  0.00    -0.321 N 
HETATM   25  C   UNL     1       8.334  22.705  56.788  1.00  0.00     0.048 A 
HETATM   26  H   UNL     1       8.671  23.238  58.840  1.00  0.00     0.169 HD
HETATM   27  C   UNL     1       8.529  21.342  56.732  1.00  0.00     0.032 A 
HETATM   28  C   UNL     1       8.406  20.726  55.480  1.00  0.00     0.021 A 
HETATM   29  C   UNL     1       8.095  21.480  54.329  1.00  0.00     0.012 A 
HETATM   30 BR   UNL     1       7.965  20.604  52.656  1.00  0.00    -0.051 Br
HETATM   31  C   UNL     1       7.889  22.857  54.398  1.00  0.00     0.035 A 
ENDBRANCH   2  19
TORSDOF 6
ENDMDL
MODEL 2
REMARK VINA RESULT:      -9.7      1.734      2.680
REMARK  6 active torsions:
REMARK  status: ('A' for Active; 'I' for Inactive)
REMARK    1  A    between atoms: C_4  and  O_5 
REMARK    2  A    between atoms: O_5  and  C_6 
REMARK    3  A    between atoms: C_6  and  C_7 
REMARK       I    between atoms: C_7  and  N_8 
REMARK    4  A    between atoms: N_8  and  C_9 
REMARK    5  A    between atoms: C_9  and  C_10 
REMARK       I    between atoms: C_10  and  N_11 
REMARK    6  A    between atoms: N_11  and  N_12 
ROOT
HETATM    1  C   UNL     1       7.580  28.506  57.464  1.00  0.00     0.255 C 
HETATM    2  N   UNL     1       6.699  27.720  56.746  1.00  0.00    -0.245 N 
HETATM    3  O   UNL     1       8.724  28.170  57.779  1.00  0.00    -0.270 OA
HETATM    4  H   UNL     1       5.754  28.066  56.572  1.00  0.00     0.192 HD
ENDROOT
BRANCH   1   5
HETATM    5  C   UNL     1       7.075  29.920  57.772  1.00  0.00     0.227 C 
BRANCH   5   6
HETATM    6  N   UNL     1       7.394  30.526  59.061  1.00  0.00    -0.350 N 
HETATM    7  C   UNL     1       8.417  31.459  59.130  1.00  0.00     0.242 C 
HETATM    8  O   UNL     1       9.311  31.523  58.291  1.00  0.00    -0.271 OA
HETATM    9  H   UNL     1       6.592  30.751  59.640  1.00  0.00     0.163 HD
BRANCH   7  10
HETATM   10  C   UNL     1       8.345  32.389  60.333  1.00  0.00     0.278 C 
BRANCH  10  11
HETATM   11  O   UNL     1       7.181  32.002  61.067  1.00  0.00    -0.342 OA
BRANCH  11  12
HETATM   12  C   UNL     1       7.000  32.766  62.188  1.00  0.00     0.069 A 
HETATM   13  C   UNL     1       6.191  33.902  62.193  1.00  0.00     0.043 A 
HETATM   14  C   UNL     1       6.067  34.672  63.357  1.00  0.00    -0.059 A 
HETATM   15  C   UNL     1       5.216  35.908  63.379  1.00  0.00     0.048 C 
HETATM   16  C   UNL     1       6.777  34.294  64.505  1.00  0.00     0.007 A 
HETATM   17  C   UNL     1       7.601  33.168  64.490  1.00  0.00     0.003 A 
HETATM   18  C   UNL     1       7.721  32.409  63.327  1.00  0.00     0.037 A 
ENDBRANCH  11  12
ENDBRANCH  10  11
ENDBRANCH   7  10
ENDBRANCH   5   6
ENDBRANCH   1   5
BRANCH   2  19
HETATM   19  N   UNL     1       6.985  26.401  56.539  1.00  0.00    -0.166 NA
HETATM   20  C   UNL     1       7.227  26.037  55.322  1.00  0.00     0.157 A 
HETATM   21  C   UNL     1       7.317  26.897  54.058  1.00  0.00     0.277 A 
HETATM   22  C   UNL     1       7.492  24.668  54.896  1.00  0.00     0.028 A 
HETATM   23  O   UNL     1       7.120  28.093  54.007  1.00  0.00    -0.266 OA
HETATM   24  N   UNL     1       7.654  26.023  53.044  1.00  0.00    -0.321 N 
HETATM   25  C   UNL     1       7.746  24.720  53.527  1.00  0.00     0.048 A 
HETATM   26  H   UNL     1       7.781  26.310  52.085  1.00  0.00     0.169 HD
HETATM   27  C   UNL     1       8.024  23.575  52.810  1.00  0.00     0.032 A 
HETATM   28  C   UNL     1       8.027  22.362  53.511  1.00  0.00     0.021 A 
HETATM   29  C   UNL     1       7.756  22.324  54.894  1.00  0.00     0.012 A 
HETATM   30 BR   UNL     1       7.748  20.657  55.790  1.00  0.00    -0.051 Br
HETATM   31  C   UNL     1       7.486  23.488  55.613  1.00  0.00     0.035 A 
ENDBRANCH   2  19
TORSDOF 6
ENDMDL
MODEL 3
REMARK VINA RESULT:      -9.4      5.023     11.226
REMARK  6 active torsions:
REMARK  status: ('A' for Active; 'I' for Inactive)
REMARK    1  A    between atoms: C_4  and  O_5 
REMARK    2  A    between atoms: O_5  and  C_6 
REMARK    3  A    between atoms: C_6  and  C_7 
REMARK       I    between atoms: C_7  and  N_8 
REMARK    4  A    between atoms: N_8  and  C_9 
REMARK    5  A    between atoms: C_9  and  C_10 
REMARK       I    between atoms: C_10  and  N_11 
REMARK    6  A    between atoms: N_11  and  N_12 
ROOT
HETATM    1  C   UNL     1       8.634  31.009  61.778  1.00  0.00     0.255 C 
HETATM    2  N   UNL     1       8.042  32.235  62.019  1.00  0.00    -0.245 N 
HETATM    3  O   UNL     1       8.832  30.145  62.635  1.00  0.00    -0.270 OA
HETATM    4  H   UNL     1       7.962  32.906  61.253  1.00  0.00     0.192 HD
ENDROOT
BRANCH   1   5
HETATM    5  C   UNL     1       8.949  30.728  60.304  1.00  0.00     0.227 C 
BRANCH   5   6
HETATM    6  N   UNL     1       7.959  30.038  59.483  1.00  0.00    -0.350 N 
HETATM    7  C   UNL     1       8.365  29.443  58.299  1.00  0.00     0.242 C 
HETATM    8  O   UNL     1       9.386  29.778  57.707  1.00  0.00    -0.271 OA
HETATM    9  H   UNL     1       7.273  29.498  60.001  1.00  0.00     0.163 HD
BRANCH   7  10
HETATM   10  C   UNL     1       7.438  28.348  57.791  1.00  0.00     0.278 C 
BRANCH  10  11
HETATM   11  O   UNL     1       8.021  27.109  58.201  1.00  0.00    -0.342 OA
BRANCH  11  12
HETATM   12  C   UNL     1       7.796  26.107  57.296  1.00  0.00     0.069 A 
HETATM   13  C   UNL     1       6.815  26.202  56.309  1.00  0.00     0.043 A 
HETATM   14  C   UNL     1       6.598  25.133  55.428  1.00  0.00    -0.059 A 
HETATM   15  C   UNL     1       5.536  25.206  54.372  1.00  0.00     0.048 C 
HETATM   16  C   UNL     1       7.367  23.968  55.564  1.00  0.00     0.007 A 
HETATM   17  C   UNL     1       8.334  23.871  56.566  1.00  0.00     0.003 A 
HETATM   18  C   UNL     1       8.541  24.938  57.439  1.00  0.00     0.037 A 
ENDBRANCH  11  12
ENDBRANCH  10  11
ENDBRANCH   7  10
ENDBRANCH   5   6
ENDBRANCH   1   5
BRANCH   2  19
HETATM   19  N   UNL     1       7.848  32.650  63.305  1.00  0.00    -0.166 NA
HETATM   20  C   UNL     1       6.635  32.929  63.656  1.00  0.00     0.157 A 
HETATM   21  C   UNL     1       5.342  32.788  62.847  1.00  0.00     0.277 A 
HETATM   22  C   UNL     1       6.239  33.441  64.962  1.00  0.00     0.028 A 
HETATM   23  O   UNL     1       5.272  32.421  61.693  1.00  0.00    -0.266 OA
HETATM   24  N   UNL     1       4.330  33.165  63.707  1.00  0.00    -0.321 N 
HETATM   25  C   UNL     1       4.850  33.559  64.938  1.00  0.00     0.048 A 
HETATM   26  H   UNL     1       3.356  33.176  63.445  1.00  0.00     0.169 HD
HETATM   27  C   UNL     1       4.156  34.033  66.031  1.00  0.00     0.032 A 
HETATM   28  C   UNL     1       4.904  34.403  67.157  1.00  0.00     0.021 A 
HETATM   29  C   UNL     1       6.310  34.290  67.161  1.00  0.00     0.012 A 
HETATM   30 BR   UNL     1       7.276  34.827  68.697  1.00  0.00    -0.051 Br
HETATM   31  C   UNL     1       7.003  33.799  66.054  1.00  0.00     0.035 A 
ENDBRANCH   2  19
TORSDOF 6
ENDMDL
MODEL 4
REMARK VINA RESULT:      -9.3      3.945     10.624
REMARK  6 active torsions:
REMARK  status: ('A' for Active; 'I' for Inactive)
REMARK    1  A    between atoms: C_4  and  O_5 
REMARK    2  A    between atoms: O_5  and  C_6 
REMARK    3  A    between atoms: C_6  and  C_7 
REMARK       I    between atoms: C_7  and  N_8 
REMARK    4  A    between atoms: N_8  and  C_9 
REMARK    5  A    between atoms: C_9  and  C_10 
REMARK       I    between atoms: C_10  and  N_11 
REMARK    6  A    between atoms: N_11  and  N_12 
ROOT
HETATM    1  C   UNL     1       7.479  30.198  57.994  1.00  0.00     0.255 C 
HETATM    2  N   UNL     1       8.245  31.210  58.542  1.00  0.00    -0.245 N 
HETATM    3  O   UNL     1       6.248  30.149  58.036  1.00  0.00    -0.270 OA
HETATM    4  H   UNL     1       9.263  31.142  58.496  1.00  0.00     0.192 HD
ENDROOT
BRANCH   1   5
HETATM    5  C   UNL     1       8.271  29.150  57.204  1.00  0.00     0.227 C 
BRANCH   5   6
HETATM    6  N   UNL     1       7.880  27.746  57.293  1.00  0.00    -0.350 N 
HETATM    7  C   UNL     1       7.213  27.166  56.226  1.00  0.00     0.242 C 
HETATM    8  O   UNL     1       6.593  27.824  55.397  1.00  0.00    -0.271 OA
HETATM    9  H   UNL     1       8.564  27.138  57.732  1.00  0.00     0.163 HD
BRANCH   7  10
HETATM   10  C   UNL     1       7.304  25.647  56.174  1.00  0.00     0.278 C 
BRANCH  10  11
HETATM   11  O   UNL     1       7.030  25.278  54.820  1.00  0.00    -0.342 OA
BRANCH  11  12
HETATM   12  C   UNL     1       7.318  23.962  54.576  1.00  0.00     0.069 A 
HETATM   13  C   UNL     1       7.489  23.034  55.602  1.00  0.00     0.043 A 
HETATM   14  C   UNL     1       7.819  21.705  55.301  1.00  0.00    -0.059 A 
HETATM   15  C   UNL     1       8.026  20.695  56.390  1.00  0.00     0.048 C 
HETATM   16  C   UNL     1       7.990  21.331  53.960  1.00  0.00     0.007 A 
HETATM   17  C   UNL     1       7.837  22.268  52.938  1.00  0.00     0.003 A 
HETATM   18  C   UNL     1       7.511  23.587  53.246  1.00  0.00     0.037 A 
ENDBRANCH  11  12
ENDBRANCH  10  11
ENDBRANCH   7  10
ENDBRANCH   5   6
ENDBRANCH   1   5
BRANCH   2  19
HETATM   19  N   UNL     1       7.665  32.117  59.382  1.00  0.00    -0.166 NA
HETATM   20  C   UNL     1       7.900  31.980  60.646  1.00  0.00     0.157 A 
HETATM   21  C   UNL     1       8.812  30.974  61.354  1.00  0.00     0.277 A 
HETATM   22  C   UNL     1       7.325  32.810  61.698  1.00  0.00     0.028 A 
HETATM   23  O   UNL     1       9.440  30.091  60.808  1.00  0.00    -0.266 OA
HETATM   24  N   UNL     1       8.745  31.298  62.693  1.00  0.00    -0.321 N 
HETATM   25  C   UNL     1       7.869  32.362  62.900  1.00  0.00     0.048 A 
HETATM   26  H   UNL     1       9.248  30.797  63.411  1.00  0.00     0.169 HD
HETATM   27  C   UNL     1       7.516  32.939  64.101  1.00  0.00     0.032 A 
HETATM   28  C   UNL     1       6.581  33.982  64.064  1.00  0.00     0.021 A 
HETATM   29  C   UNL     1       6.030  34.416  62.840  1.00  0.00     0.012 A 
HETATM   30 BR   UNL     1       4.751  35.812  62.845  1.00  0.00    -0.051 Br
HETATM   31  C   UNL     1       6.401  33.834  61.629  1.00  0.00     0.035 A 
ENDBRANCH   2  19
TORSDOF 6
ENDMDL
MODEL 5
REMARK VINA RESULT:      -9.2      2.121      3.238
REMARK  6 active torsions:
REMARK  status: ('A' for Active; 'I' for Inactive)
REMARK    1  A    between atoms: C_4  and  O_5 
REMARK    2  A    between atoms: O_5  and  C_6 
REMARK    3  A    between atoms: C_6  and  C_7 
REMARK       I    between atoms: C_7  and  N_8 
REMARK    4  A    between atoms: N_8  and  C_9 
REMARK    5  A    between atoms: C_9  and  C_10 
REMARK       I    between atoms: C_10  and  N_11 
REMARK    6  A    between atoms: N_11  and  N_12 
ROOT
HETATM    1  C   UNL     1       5.545  28.256  56.578  1.00  0.00     0.255 C 
HETATM    2  N   UNL     1       4.963  27.055  56.217  1.00  0.00    -0.245 N 
HETATM    3  O   UNL     1       6.759  28.441  56.694  1.00  0.00    -0.270 OA
HETATM    4  H   UNL     1       3.945  26.986  56.191  1.00  0.00     0.192 HD
ENDROOT
BRANCH   1   5
HETATM    5  C   UNL     1       4.564  29.425  56.729  1.00  0.00     0.227 C 
BRANCH   5   6
HETATM    6  N   UNL     1       5.053  30.703  57.236  1.00  0.00    -0.350 N 
HETATM    7  C   UNL     1       4.350  31.338  58.248  1.00  0.00     0.242 C 
HETATM    8  O   UNL     1       3.165  31.110  58.473  1.00  0.00    -0.271 OA
HETATM    9  H   UNL     1       6.061  30.770  57.330  1.00  0.00     0.163 HD
BRANCH   7  10
HETATM   10  C   UNL     1       5.163  32.345  59.048  1.00  0.00     0.278 C 
BRANCH  10  11
HETATM   11  O   UNL     1       6.530  32.130  58.688  1.00  0.00    -0.342 OA
BRANCH  11  12
HETATM   12  C   UNL     1       7.314  31.858  59.776  1.00  0.00     0.069 A 
HETATM   13  C   UNL     1       7.114  32.474  61.012  1.00  0.00     0.043 A 
HETATM   14  C   UNL     1       7.967  32.188  62.086  1.00  0.00    -0.059 A 
HETATM   15  C   UNL     1       7.781  32.854  63.417  1.00  0.00     0.048 C 
HETATM   16  C   UNL     1       9.028  31.291  61.897  1.00  0.00     0.007 A 
HETATM   17  C   UNL     1       9.236  30.692  60.654  1.00  0.00     0.003 A 
HETATM   18  C   UNL     1       8.384  30.984  59.590  1.00  0.00     0.037 A 
ENDBRANCH  11  12
ENDBRANCH  10  11
ENDBRANCH   7  10
ENDBRANCH   5   6
ENDBRANCH   1   5
BRANCH   2  19
HETATM   19  N   UNL     1       5.719  25.918  56.192  1.00  0.00    -0.166 NA
HETATM   20  C   UNL     1       5.986  25.416  55.032  1.00  0.00     0.157 A 
HETATM   21  C   UNL     1       5.636  25.959  53.642  1.00  0.00     0.277 A 
HETATM   22  C   UNL     1       6.725  24.180  54.805  1.00  0.00     0.028 A 
HETATM   23  O   UNL     1       4.989  26.961  53.423  1.00  0.00    -0.266 OA
HETATM   24  N   UNL     1       6.204  25.073  52.750  1.00  0.00    -0.321 N 
HETATM   25  C   UNL     1       6.830  24.027  53.423  1.00  0.00     0.048 A 
HETATM   26  H   UNL     1       6.134  25.174  51.748  1.00  0.00     0.169 HD
HETATM   27  C   UNL     1       7.472  22.937  52.874  1.00  0.00     0.032 A 
HETATM   28  C   UNL     1       7.999  21.987  53.759  1.00  0.00     0.021 A 
HETATM   29  C   UNL     1       7.874  22.150  55.155  1.00  0.00     0.012 A 
HETATM   30 BR   UNL     1       8.581  20.826  56.307  1.00  0.00    -0.051 Br
HETATM   31  C   UNL     1       7.233  23.261  55.702  1.00  0.00     0.035 A 
ENDBRANCH   2  19
TORSDOF 6
ENDMDL
MODEL 6
REMARK VINA RESULT:      -9.1      3.745     10.036
REMARK  6 active torsions:
REMARK  status: ('A' for Active; 'I' for Inactive)
REMARK    1  A    between atoms: C_4  and  O_5 
REMARK    2  A    between atoms: O_5  and  C_6 
REMARK    3  A    between atoms: C_6  and  C_7 
REMARK       I    between atoms: C_7  and  N_8 
REMARK    4  A    between atoms: N_8  and  C_9 
REMARK    5  A    between atoms: C_9  and  C_10 
REMARK       I    between atoms: C_10  and  N_11 
REMARK    6  A    between atoms: N_11  and  N_12 
ROOT
HETATM    1  C   UNL     1       5.595  29.601  56.626  1.00  0.00     0.255 C 
HETATM    2  N   UNL     1       6.357  30.737  56.828  1.00  0.00    -0.245 N 
HETATM    3  O   UNL     1       4.713  29.202  57.390  1.00  0.00    -0.270 OA
HETATM    4  H   UNL     1       7.096  30.963  56.161  1.00  0.00     0.192 HD
ENDROOT
BRANCH   1   5
HETATM    5  C   UNL     1       5.844  28.890  55.291  1.00  0.00     0.227 C 
BRANCH   5   6
HETATM    6  N   UNL     1       5.938  27.434  55.265  1.00  0.00    -0.350 N 
HETATM    7  C   UNL     1       7.021  26.841  54.636  1.00  0.00     0.242 C 
HETATM    8  O   UNL     1       7.685  27.418  53.780  1.00  0.00    -0.271 OA
HETATM    9  H   UNL     1       5.656  26.971  56.123  1.00  0.00     0.163 HD
BRANCH   7  10
HETATM   10  C   UNL     1       7.312  25.416  55.085  1.00  0.00     0.278 C 
BRANCH  10  11
HETATM   11  O   UNL     1       7.962  24.776  53.984  1.00  0.00    -0.342 OA
BRANCH  11  12
HETATM   12  C   UNL     1       7.973  23.413  54.113  1.00  0.00     0.069 A 
HETATM   13  C   UNL     1       8.141  22.783  55.346  1.00  0.00     0.043 A 
HETATM   14  C   UNL     1       8.182  21.384  55.420  1.00  0.00    -0.059 A 
HETATM   15  C   UNL     1       8.381  20.686  56.732  1.00  0.00     0.048 C 
HETATM   16  C   UNL     1       8.067  20.633  54.241  1.00  0.00     0.007 A 
HETATM   17  C   UNL     1       7.919  21.269  53.008  1.00  0.00     0.003 A 
HETATM   18  C   UNL     1       7.882  22.661  52.943  1.00  0.00     0.037 A 
ENDBRANCH  11  12
ENDBRANCH  10  11
ENDBRANCH   7  10
ENDBRANCH   5   6
ENDBRANCH   1   5
BRANCH   2  19
HETATM   19  N   UNL     1       6.321  31.367  58.038  1.00  0.00    -0.166 NA
HETATM   20  C   UNL     1       7.310  31.150  58.843  1.00  0.00     0.157 A 
HETATM   21  C   UNL     1       8.582  30.329  58.608  1.00  0.00     0.277 A 
HETATM   22  C   UNL     1       7.421  31.683  60.195  1.00  0.00     0.028 A 
HETATM   23  O   UNL     1       8.835  29.700  57.602  1.00  0.00    -0.266 OA
HETATM   24  N   UNL     1       9.327  30.471  59.760  1.00  0.00    -0.321 N 
HETATM   25  C   UNL     1       8.648  31.250  60.694  1.00  0.00     0.048 A 
HETATM   26  H   UNL     1      10.226  30.032  59.896  1.00  0.00     0.169 HD
HETATM   27  C   UNL     1       9.055  31.579  61.970  1.00  0.00     0.032 A 
HETATM   28  C   UNL     1       8.180  32.352  62.744  1.00  0.00     0.021 A 
HETATM   29  C   UNL     1       6.936  32.772  62.230  1.00  0.00     0.012 A 
HETATM   30 BR   UNL     1       5.780  33.793  63.326  1.00  0.00    -0.051 Br
HETATM   31  C   UNL     1       6.538  32.444  60.934  1.00  0.00     0.035 A 
ENDBRANCH   2  19
TORSDOF 6
ENDMDL
MODEL 7
REMARK VINA RESULT:      -9.0      4.211     10.732
REMARK  6 active torsions:
REMARK  status: ('A' for Active; 'I' for Inactive)
REMARK    1  A    between atoms: C_4  and  O_5 
REMARK    2  A    between atoms: O_5  and  C_6 
REMARK    3  A    between atoms: C_6  and  C_7 
REMARK       I    between atoms: C_7  and  N_8 
REMARK    4  A    between atoms: N_8  and  C_9 
REMARK    5  A    between atoms: C_9  and  C_10 
REMARK       I    between atoms: C_10  and  N_11 
REMARK    6  A    between atoms: N_11  and  N_12 
ROOT
HETATM    1  C   UNL     1       8.756  31.180  58.946  1.00  0.00     0.255 C 
HETATM    2  N   UNL     1       7.678  30.966  59.783  1.00  0.00    -0.245 N 
HETATM    3  O   UNL     1       9.287  32.276  58.751  1.00  0.00    -0.270 OA
HETATM    4  H   UNL     1       7.277  30.029  59.845  1.00  0.00     0.192 HD
ENDROOT
BRANCH   1   5
HETATM    5  C   UNL     1       9.351  29.910  58.327  1.00  0.00     0.227 C 
BRANCH   5   6
HETATM    6  N   UNL     1       8.853  29.447  57.035  1.00  0.00    -0.350 N 
HETATM    7  C   UNL     1       8.159  28.249  56.972  1.00  0.00     0.242 C 
HETATM    8  O   UNL     1       8.266  27.377  57.828  1.00  0.00    -0.271 OA
HETATM    9  H   UNL     1       8.477  30.174  56.435  1.00  0.00     0.163 HD
BRANCH   7  10
HETATM   10  C   UNL     1       7.260  28.102  55.752  1.00  0.00     0.278 C 
BRANCH  10  11
HETATM   11  O   UNL     1       6.680  26.799  55.839  1.00  0.00    -0.342 OA
BRANCH  11  12
HETATM   12  C   UNL     1       7.077  25.986  54.812  1.00  0.00     0.069 A 
HETATM   13  C   UNL     1       7.580  24.703  55.028  1.00  0.00     0.043 A 
HETATM   14  C   UNL     1       8.007  23.924  53.944  1.00  0.00    -0.059 A 
HETATM   15  C   UNL     1       8.568  22.549  54.156  1.00  0.00     0.048 C 
HETATM   16  C   UNL     1       7.938  24.457  52.649  1.00  0.00     0.007 A 
HETATM   17  C   UNL     1       7.453  25.749  52.440  1.00  0.00     0.003 A 
HETATM   18  C   UNL     1       7.032  26.518  53.524  1.00  0.00     0.037 A 
ENDBRANCH  11  12
ENDBRANCH  10  11
ENDBRANCH   7  10
ENDBRANCH   5   6
ENDBRANCH   1   5
BRANCH   2  19
HETATM   19  N   UNL     1       6.982  32.033  60.275  1.00  0.00    -0.166 NA
HETATM   20  C   UNL     1       7.171  32.333  61.519  1.00  0.00     0.157 A 
HETATM   21  C   UNL     1       8.136  31.703  62.527  1.00  0.00     0.277 A 
HETATM   22  C   UNL     1       6.478  33.396  62.237  1.00  0.00     0.028 A 
HETATM   23  O   UNL     1       8.864  30.758  62.306  1.00  0.00    -0.266 OA
HETATM   24  N   UNL     1       7.980  32.432  63.688  1.00  0.00    -0.321 N 
HETATM   25  C   UNL     1       7.005  33.413  63.527  1.00  0.00     0.048 A 
HETATM   26  H   UNL     1       8.493  32.240  64.536  1.00  0.00     0.169 HD
HETATM   27  C   UNL     1       6.549  34.308  64.472  1.00  0.00     0.032 A 
HETATM   28  C   UNL     1       5.527  35.186  64.085  1.00  0.00     0.021 A 
HETATM   29  C   UNL     1       4.995  35.148  62.779  1.00  0.00     0.012 A 
HETATM   30 BR   UNL     1       3.599  36.338  62.314  1.00  0.00    -0.051 Br
HETATM   31  C   UNL     1       5.471  34.247  61.827  1.00  0.00     0.035 A 
ENDBRANCH   2  19
TORSDOF 6
ENDMDL
MODEL 8
REMARK VINA RESULT:      -8.8      2.593      3.969
REMARK  6 active torsions:
REMARK  status: ('A' for Active; 'I' for Inactive)
REMARK    1  A    between atoms: C_4  and  O_5 
REMARK    2  A    between atoms: O_5  and  C_6 
REMARK    3  A    between atoms: C_6  and  C_7 
REMARK       I    between atoms: C_7  and  N_8 
REMARK    4  A    between atoms: N_8  and  C_9 
REMARK    5  A    between atoms: C_9  and  C_10 
REMARK       I    between atoms: C_10  and  N_11 
REMARK    6  A    between atoms: N_11  and  N_12 
ROOT
HETATM    1  C   UNL     1       4.534  27.398  53.023  1.00  0.00     0.255 C 
HETATM    2  N   UNL     1       4.463  26.423  54.000  1.00  0.00    -0.245 N 
HETATM    3  O   UNL     1       5.054  27.244  51.915  1.00  0.00    -0.270 OA
HETATM    4  H   UNL     1       4.053  26.658  54.905  1.00  0.00     0.192 HD
ENDROOT
BRANCH   1   5
HETATM    5  C   UNL     1       3.808  28.704  53.364  1.00  0.00     0.227 C 
BRANCH   5   6
HETATM    6  N   UNL     1       4.549  29.782  54.012  1.00  0.00    -0.350 N 
HETATM    7  C   UNL     1       4.566  29.848  55.397  1.00  0.00     0.242 C 
HETATM    8  O   UNL     1       3.707  29.317  56.094  1.00  0.00    -0.271 OA
HETATM    9  H   UNL     1       5.436  30.015  53.578  1.00  0.00     0.163 HD
BRANCH   7  10
HETATM   10  C   UNL     1       5.729  30.639  55.978  1.00  0.00     0.278 C 
BRANCH  10  11
HETATM   11  O   UNL     1       5.917  30.151  57.308  1.00  0.00    -0.342 OA
BRANCH  11  12
HETATM   12  C   UNL     1       7.194  30.354  57.757  1.00  0.00     0.069 A 
HETATM   13  C   UNL     1       8.307  29.825  57.103  1.00  0.00     0.043 A 
HETATM   14  C   UNL     1       9.592  30.032  57.622  1.00  0.00    -0.059 A 
HETATM   15  C   UNL     1      10.800  29.456  56.945  1.00  0.00     0.048 C 
HETATM   16  C   UNL     1       9.740  30.759  58.812  1.00  0.00     0.007 A 
HETATM   17  C   UNL     1       8.622  31.270  59.473  1.00  0.00     0.003 A 
HETATM   18  C   UNL     1       7.347  31.058  58.951  1.00  0.00     0.037 A 
ENDBRANCH  11  12
ENDBRANCH  10  11
ENDBRANCH   7  10
ENDBRANCH   5   6
ENDBRANCH   1   5
BRANCH   2  19
HETATM   19  N   UNL     1       5.190  25.276  53.864  1.00  0.00    -0.166 NA
HETATM   20  C   UNL     1       6.227  25.144  54.626  1.00  0.00     0.157 A 
HETATM   21  C   UNL     1       6.732  26.071  55.736  1.00  0.00     0.277 A 
HETATM   22  C   UNL     1       7.157  24.022  54.586  1.00  0.00     0.028 A 
HETATM   23  O   UNL     1       6.233  27.133  56.044  1.00  0.00    -0.266 OA
HETATM   24  N   UNL     1       7.836  25.436  56.268  1.00  0.00    -0.321 N 
HETATM   25  C   UNL     1       8.095  24.246  55.592  1.00  0.00     0.048 A 
HETATM   26  H   UNL     1       8.384  25.819  57.024  1.00  0.00     0.169 HD
HETATM   27  C   UNL     1       9.130  23.362  55.812  1.00  0.00     0.032 A 
HETATM   28  C   UNL     1       9.206  22.241  54.975  1.00  0.00     0.021 A 
HETATM   29  C   UNL     1       8.257  22.034  53.953  1.00  0.00     0.012 A 
HETATM   30 BR   UNL     1       8.420  20.517  52.834  1.00  0.00    -0.051 Br
HETATM   31  C   UNL     1       7.207  22.928  53.745  1.00  0.00     0.035 A 
ENDBRANCH   2  19
TORSDOF 6
ENDMDL
MODEL 9
REMARK VINA RESULT:      -8.8      5.537      9.268
REMARK  6 active torsions:
REMARK  status: ('A' for Active; 'I' for Inactive)
REMARK    1  A    between atoms: C_4  and  O_5 
REMARK    2  A    between atoms: O_5  and  C_6 
REMARK    3  A    between atoms: C_6  and  C_7 
REMARK       I    between atoms: C_7  and  N_8 
REMARK    4  A    between atoms: N_8  and  C_9 
REMARK    5  A    between atoms: C_9  and  C_10 
REMARK       I    between atoms: C_10  and  N_11 
REMARK    6  A    between atoms: N_11  and  N_12 
ROOT
HETATM    1  C   UNL     1       4.410  27.110  52.574  1.00  0.00     0.255 C 
HETATM    2  N   UNL     1       4.440  26.287  53.684  1.00  0.00    -0.245 N 
HETATM    3  O   UNL     1       4.887  26.823  51.473  1.00  0.00    -0.270 OA
HETATM    4  H   UNL     1       4.059  26.630  54.566  1.00  0.00     0.192 HD
ENDROOT
BRANCH   1   5
HETATM    5  C   UNL     1       3.626  28.414  52.764  1.00  0.00     0.227 C 
BRANCH   5   6
HETATM    6  N   UNL     1       2.469  28.679  51.915  1.00  0.00    -0.350 N 
HETATM    7  C   UNL     1       2.563  29.654  50.935  1.00  0.00     0.242 C 
HETATM    8  O   UNL     1       3.389  30.560  50.982  1.00  0.00    -0.271 OA
HETATM    9  H   UNL     1       1.950  27.855  51.628  1.00  0.00     0.163 HD
BRANCH   7  10
HETATM   10  C   UNL     1       1.553  29.515  49.804  1.00  0.00     0.278 C 
BRANCH  10  11
HETATM   11  O   UNL     1       2.277  29.746  48.593  1.00  0.00    -0.342 OA
BRANCH  11  12
HETATM   12  C   UNL     1       3.059  28.677  48.247  1.00  0.00     0.069 A 
HETATM   13  C   UNL     1       2.577  27.368  48.252  1.00  0.00     0.043 A 
HETATM   14  C   UNL     1       3.428  26.305  47.925  1.00  0.00    -0.059 A 
HETATM   15  C   UNL     1       2.935  24.888  47.942  1.00  0.00     0.048 C 
HETATM   16  C   UNL     1       4.768  26.573  47.610  1.00  0.00     0.007 A 
HETATM   17  C   UNL     1       5.251  27.882  47.626  1.00  0.00     0.003 A 
HETATM   18  C   UNL     1       4.398  28.934  47.955  1.00  0.00     0.037 A 
ENDBRANCH  11  12
ENDBRANCH  10  11
ENDBRANCH   7  10
ENDBRANCH   5   6
ENDBRANCH   1   5
BRANCH   2  19
HETATM   19  N   UNL     1       5.226  25.170  53.675  1.00  0.00    -0.166 NA
HETATM   20  C   UNL     1       5.935  24.943  54.732  1.00  0.00     0.157 A 
HETATM   21  C   UNL     1       5.972  25.717  56.053  1.00  0.00     0.277 A 
HETATM   22  C   UNL     1       6.875  23.839  54.887  1.00  0.00     0.028 A 
HETATM   23  O   UNL     1       5.344  26.727  56.292  1.00  0.00    -0.266 OA
HETATM   24  N   UNL     1       6.850  25.022  56.860  1.00  0.00    -0.321 N 
HETATM   25  C   UNL     1       7.389  23.933  56.179  1.00  0.00     0.048 A 
HETATM   26  H   UNL     1       7.078  25.304  57.802  1.00  0.00     0.169 HD
HETATM   27  C   UNL     1       8.324  23.031  56.641  1.00  0.00     0.032 A 
HETATM   28  C   UNL     1       8.746  22.031  55.756  1.00  0.00     0.021 A 
HETATM   29  C   UNL     1       8.226  21.957  54.446  1.00  0.00     0.012 A 
HETATM   30 BR   UNL     1       8.847  20.601  53.280  1.00  0.00    -0.051 Br
HETATM   31  C   UNL     1       7.272  22.866  53.991  1.00  0.00     0.035 A 
ENDBRANCH   2  19
TORSDOF 6
ENDMDL
MODEL 10
REMARK VINA RESULT:      -8.5      2.387      3.564
REMARK  6 active torsions:
REMARK  status: ('A' for Active; 'I' for Inactive)
REMARK    1  A    between atoms: C_4  and  O_5 
REMARK    2  A    between atoms: O_5  and  C_6 
REMARK    3  A    between atoms: C_6  and  C_7 
REMARK       I    between atoms: C_7  and  N_8 
REMARK    4  A    between atoms: N_8  and  C_9 
REMARK    5  A    between atoms: C_9  and  C_10 
REMARK       I    between atoms: C_10  and  N_11 
REMARK    6  A    between atoms: N_11  and  N_12 
ROOT
HETATM    1  C   UNL     1       7.863  29.732  58.061  1.00  0.00     0.255 C 
HETATM    2  N   UNL     1       8.172  28.495  57.529  1.00  0.00    -0.245 N 
HETATM    3  O   UNL     1       6.937  30.451  57.676  1.00  0.00    -0.270 OA
HETATM    4  H   UNL     1       8.987  27.992  57.884  1.00  0.00     0.192 HD
ENDROOT
BRANCH   1   5
HETATM    5  C   UNL     1       8.703  30.136  59.278  1.00  0.00     0.227 C 
BRANCH   5   6
HETATM    6  N   UNL     1       8.032  30.631  60.475  1.00  0.00    -0.350 N 
HETATM    7  C   UNL     1       8.702  30.588  61.688  1.00  0.00     0.242 C 
HETATM    8  O   UNL     1       9.640  29.826  61.898  1.00  0.00    -0.271 OA
HETATM    9  H   UNL     1       7.477  31.470  60.340  1.00  0.00     0.163 HD
BRANCH   7  10
HETATM   10  C   UNL     1       8.173  31.556  62.737  1.00  0.00     0.278 C 
BRANCH  10  11
HETATM   11  O   UNL     1       7.373  32.509  62.034  1.00  0.00    -0.342 OA
BRANCH  11  12
HETATM   12  C   UNL     1       6.814  33.435  62.873  1.00  0.00     0.069 A 
HETATM   13  C   UNL     1       6.879  33.316  64.262  1.00  0.00     0.043 A 
HETATM   14  C   UNL     1       6.260  34.272  65.078  1.00  0.00    -0.059 A 
HETATM   15  C   UNL     1       6.302  34.154  66.573  1.00  0.00     0.048 C 
HETATM   16  C   UNL     1       5.564  35.333  64.482  1.00  0.00     0.007 A 
HETATM   17  C   UNL     1       5.486  35.437  63.092  1.00  0.00     0.003 A 
HETATM   18  C   UNL     1       6.103  34.481  62.287  1.00  0.00     0.037 A 
ENDBRANCH  11  12
ENDBRANCH  10  11
ENDBRANCH   7  10
ENDBRANCH   5   6
ENDBRANCH   1   5
BRANCH   2  19
HETATM   19  N   UNL     1       7.586  28.096  56.362  1.00  0.00    -0.166 NA
HETATM   20  C   UNL     1       7.501  26.823  56.153  1.00  0.00     0.157 A 
HETATM   21  C   UNL     1       7.901  25.665  57.074  1.00  0.00     0.277 A 
HETATM   22  C   UNL     1       6.966  26.207  54.945  1.00  0.00     0.028 A 
HETATM   23  O   UNL     1       8.421  25.783  58.163  1.00  0.00    -0.266 OA
HETATM   24  N   UNL     1       7.548  24.518  56.394  1.00  0.00    -0.321 N 
HETATM   25  C   UNL     1       7.013  24.829  55.146  1.00  0.00     0.048 A 
HETATM   26  H   UNL     1       7.697  23.589  56.759  1.00  0.00     0.169 HD
HETATM   27  C   UNL     1       6.583  23.951  54.173  1.00  0.00     0.032 A 
HETATM   28  C   UNL     1       6.111  24.502  52.974  1.00  0.00     0.021 A 
HETATM   29  C   UNL     1       6.081  25.899  52.780  1.00  0.00     0.012 A 
HETATM   30 BR   UNL     1       5.459  26.590  51.132  1.00  0.00    -0.051 Br
HETATM   31  C   UNL     1       6.508  26.779  53.774  1.00  0.00     0.035 A 
ENDBRANCH   2  19
TORSDOF 6
ENDMDL
