MODEL 1
REMARK VINA RESULT:      -7.5      0.000      0.000
REMARK  5 active torsions:
REMARK  status: ('A' for Active; 'I' for Inactive)
REMARK    1  A    between atoms: C_2  and  O_3 
REMARK    2  A    between atoms: C_4  and  C_5 
REMARK    3  A    between atoms: C_5  and  O_6 
REMARK    4  A    between atoms: C_9  and  C_10 
REMARK    5  A    between atoms: C_22  and  O_23 
ROOT
HETATM    1  C   UNL     1       4.917  27.431  53.275  1.00  0.00     0.047 C 
HETATM    2  C   UNL     1       6.246  27.867  53.926  1.00  0.00     0.073 C 
HETATM    3  C   UNL     1       6.063  28.615  55.309  1.00  0.00     0.133 C 
HETATM    4  C   UNL     1       6.865  28.129  56.551  1.00  0.00     0.074 C 
HETATM    5  C   UNL     1       7.363  26.744  56.410  1.00  0.00     0.030 A 
HETATM    6  C   UNL     1       7.495  26.095  55.206  1.00  0.00     0.042 A 
HETATM    7  N   UNL     1       7.954  24.838  55.481  1.00  0.00    -0.279 N 
HETATM    8  H   UNL     1       8.171  24.085  54.836  1.00  0.00     0.189 HD
HETATM    9  N   UNL     1       8.124  24.622  56.802  1.00  0.00    -0.149 NA
HETATM   10  C   UNL     1       7.754  25.778  57.336  1.00  0.00     0.190 A 
HETATM   11  C   UNL     1       7.228  26.653  53.871  1.00  0.00     0.097 C 
ENDROOT
BRANCH   4  12
HETATM   12  C   UNL     1       8.083  29.006  56.836  1.00  0.00    -0.047 A 
HETATM   13  C   UNL     1       8.209  29.801  57.987  1.00  0.00     0.027 A 
HETATM   14  C   UNL     1       9.367  30.551  58.208  1.00  0.00     0.011 A 
HETATM   15 BR   UNL     1       9.505  31.619  59.762  1.00  0.00    -0.051 Br
HETATM   16  C   UNL     1      10.420  30.519  57.297  1.00  0.00     0.019 A 
HETATM   17  C   UNL     1      10.313  29.733  56.153  1.00  0.00     0.002 A 
HETATM   18  C   UNL     1       9.156  28.984  55.925  1.00  0.00     0.008 A 
ENDBRANCH   4  12
BRANCH   3  19
HETATM   19  C   UNL     1       4.610  28.642  55.750  1.00  0.00     0.266 C 
HETATM   20  O   UNL     1       4.067  27.775  56.423  1.00  0.00    -0.265 OA
BRANCH  19  21
HETATM   21  O   UNL     1       3.999  29.774  55.301  1.00  0.00    -0.326 OA
HETATM   22  C   UNL     1       4.767  30.965  55.469  1.00  0.00     0.213 C 
ENDBRANCH  19  21
ENDBRANCH   3  19
BRANCH   2  23
HETATM   23  O   UNL     1       6.765  28.851  52.993  1.00  0.00    -0.389 OA
HETATM   24  H   UNL     1       7.375  29.440  53.472  1.00  0.00     0.210 HD
ENDBRANCH   2  23
BRANCH  10  25
HETATM   25  O   UNL     1       7.811  25.841  58.661  1.00  0.00    -0.343 OA
HETATM   26  H   UNL     1       8.300  26.661  58.843  1.00  0.00     0.219 HD
ENDBRANCH  10  25
TORSDOF 5
ENDMDL
MODEL 2
REMARK VINA RESULT:      -7.4      3.300      5.209
REMARK  5 active torsions:
REMARK  status: ('A' for Active; 'I' for Inactive)
REMARK    1  A    between atoms: C_2  and  O_3 
REMARK    2  A    between atoms: C_4  and  C_5 
REMARK    3  A    between atoms: C_5  and  O_6 
REMARK    4  A    between atoms: C_9  and  C_10 
REMARK    5  A    between atoms: C_22  and  O_23 
ROOT
HETATM    1  C   UNL     1       3.372  29.039  52.721  1.00  0.00     0.047 C 
HETATM    2  C   UNL     1       4.246  27.920  53.324  1.00  0.00     0.073 C 
HETATM    3  C   UNL     1       5.505  27.548  52.440  1.00  0.00     0.133 C 
HETATM    4  C   UNL     1       6.916  27.518  53.096  1.00  0.00     0.074 C 
HETATM    5  C   UNL     1       6.979  28.280  54.362  1.00  0.00     0.030 A 
HETATM    6  C   UNL     1       5.878  28.618  55.109  1.00  0.00     0.042 A 
HETATM    7  N   UNL     1       6.330  29.335  56.181  1.00  0.00    -0.279 N 
HETATM    8  H   UNL     1       5.799  29.742  56.944  1.00  0.00     0.189 HD
HETATM    9  N   UNL     1       7.671  29.491  56.175  1.00  0.00    -0.149 NA
HETATM   10  C   UNL     1       8.033  28.856  55.069  1.00  0.00     0.190 A 
HETATM   11  C   UNL     1       4.479  28.254  54.832  1.00  0.00     0.097 C 
ENDROOT
BRANCH   4  12
HETATM   12  C   UNL     1       7.377  26.097  53.415  1.00  0.00    -0.047 A 
HETATM   13  C   UNL     1       7.548  25.616  54.724  1.00  0.00     0.027 A 
HETATM   14  C   UNL     1       7.933  24.293  54.949  1.00  0.00     0.011 A 
HETATM   15 BR   UNL     1       8.164  23.676  56.722  1.00  0.00    -0.051 Br
HETATM   16  C   UNL     1       8.146  23.423  53.883  1.00  0.00     0.019 A 
HETATM   17  C   UNL     1       7.978  23.881  52.580  1.00  0.00     0.002 A 
HETATM   18  C   UNL     1       7.597  25.205  52.348  1.00  0.00     0.008 A 
ENDBRANCH   4  12
BRANCH   3  19
HETATM   19  C   UNL     1       5.639  28.461  51.234  1.00  0.00     0.266 C 
HETATM   20  O   UNL     1       6.037  29.617  51.272  1.00  0.00    -0.265 OA
BRANCH  19  21
HETATM   21  O   UNL     1       5.264  27.805  50.099  1.00  0.00    -0.326 OA
HETATM   22  C   UNL     1       5.324  28.598  48.913  1.00  0.00     0.213 C 
ENDBRANCH  19  21
ENDBRANCH   3  19
BRANCH   2  23
HETATM   23  O   UNL     1       3.368  26.763  53.296  1.00  0.00    -0.389 OA
HETATM   24  H   UNL     1       3.340  26.374  54.188  1.00  0.00     0.210 HD
ENDBRANCH   2  23
BRANCH  10  25
HETATM   25  O   UNL     1       9.335  28.866  54.804  1.00  0.00    -0.343 OA
HETATM   26  H   UNL     1       9.634  29.742  55.101  1.00  0.00     0.219 HD
ENDBRANCH  10  25
TORSDOF 5
ENDMDL
MODEL 3
REMARK VINA RESULT:      -7.1      2.257      3.806
REMARK  5 active torsions:
REMARK  status: ('A' for Active; 'I' for Inactive)
REMARK    1  A    between atoms: C_2  and  O_3 
REMARK    2  A    between atoms: C_4  and  C_5 
REMARK    3  A    between atoms: C_5  and  O_6 
REMARK    4  A    between atoms: C_9  and  C_10 
REMARK    5  A    between atoms: C_22  and  O_23 
ROOT
HETATM    1  C   UNL     1       5.838  24.896  54.917  1.00  0.00     0.047 C 
HETATM    2  C   UNL     1       6.500  25.978  55.795  1.00  0.00     0.073 C 
HETATM    3  C   UNL     1       7.421  26.981  54.986  1.00  0.00     0.133 C 
HETATM    4  C   UNL     1       7.208  28.514  55.150  1.00  0.00     0.074 C 
HETATM    5  C   UNL     1       5.876  28.856  55.693  1.00  0.00     0.030 A 
HETATM    6  C   UNL     1       5.074  27.972  56.372  1.00  0.00     0.042 A 
HETATM    7  N   UNL     1       3.925  28.640  56.688  1.00  0.00    -0.279 N 
HETATM    8  H   UNL     1       3.111  28.303  57.193  1.00  0.00     0.189 HD
HETATM    9  N   UNL     1       3.925  29.915  56.246  1.00  0.00    -0.149 NA
HETATM   10  C   UNL     1       5.103  30.015  55.645  1.00  0.00     0.190 A 
HETATM   11  C   UNL     1       5.399  26.580  56.725  1.00  0.00     0.097 C 
ENDROOT
BRANCH   4  12
HETATM   12  C   UNL     1       8.239  29.146  56.084  1.00  0.00    -0.047 A 
HETATM   13  C   UNL     1       7.954  29.519  57.407  1.00  0.00     0.027 A 
HETATM   14  C   UNL     1       8.953  30.056  58.223  1.00  0.00     0.011 A 
HETATM   15 BR   UNL     1       8.539  30.559  59.998  1.00  0.00    -0.051 Br
HETATM   16  C   UNL     1      10.250  30.222  57.744  1.00  0.00     0.019 A 
HETATM   17  C   UNL     1      10.550  29.853  56.436  1.00  0.00     0.002 A 
HETATM   18  C   UNL     1       9.554  29.319  55.614  1.00  0.00     0.008 A 
ENDBRANCH   4  12
BRANCH   3  19
HETATM   19  C   UNL     1       7.362  26.721  53.491  1.00  0.00     0.266 C 
HETATM   20  O   UNL     1       8.023  25.875  52.901  1.00  0.00    -0.265 OA
BRANCH  19  21
HETATM   21  O   UNL     1       6.461  27.554  52.899  1.00  0.00    -0.326 OA
HETATM   22  C   UNL     1       5.724  26.962  51.830  1.00  0.00     0.213 C 
ENDBRANCH  19  21
ENDBRANCH   3  19
BRANCH   2  23
HETATM   23  O   UNL     1       7.384  25.212  56.656  1.00  0.00    -0.389 OA
HETATM   24  H   UNL     1       7.930  25.834  57.169  1.00  0.00     0.210 HD
ENDBRANCH   2  23
BRANCH  10  25
HETATM   25  O   UNL     1       5.366  31.194  55.094  1.00  0.00    -0.343 OA
HETATM   26  H   UNL     1       5.762  30.975  54.234  1.00  0.00     0.219 HD
ENDBRANCH  10  25
TORSDOF 5
ENDMDL
MODEL 4
REMARK VINA RESULT:      -7.0      7.394      9.162
REMARK  5 active torsions:
REMARK  status: ('A' for Active; 'I' for Inactive)
REMARK    1  A    between atoms: C_2  and  O_3 
REMARK    2  A    between atoms: C_4  and  C_5 
REMARK    3  A    between atoms: C_5  and  O_6 
REMARK    4  A    between atoms: C_9  and  C_10 
REMARK    5  A    between atoms: C_22  and  O_23 
ROOT
HETATM    1  C   UNL     1       3.194  36.730  62.669  1.00  0.00     0.047 C 
HETATM    2  C   UNL     1       4.375  35.875  62.166  1.00  0.00     0.073 C 
HETATM    3  C   UNL     1       4.557  34.514  62.954  1.00  0.00     0.133 C 
HETATM    4  C   UNL     1       4.660  33.179  62.159  1.00  0.00     0.074 C 
HETATM    5  C   UNL     1       4.121  33.284  60.786  1.00  0.00     0.030 A 
HETATM    6  C   UNL     1       3.944  34.472  60.120  1.00  0.00     0.042 A 
HETATM    7  N   UNL     1       3.407  34.167  58.901  1.00  0.00    -0.279 N 
HETATM    8  H   UNL     1       3.149  34.793  58.145  1.00  0.00     0.189 HD
HETATM    9  N   UNL     1       3.215  32.841  58.733  1.00  0.00    -0.149 NA
HETATM   10  C   UNL     1       3.644  32.337  59.882  1.00  0.00     0.190 A 
HETATM   11  C   UNL     1       4.294  35.816  60.607  1.00  0.00     0.097 C 
ENDROOT
BRANCH   4  12
HETATM   12  C   UNL     1       6.101  32.691  62.031  1.00  0.00    -0.047 A 
HETATM   13  C   UNL     1       6.676  32.297  60.811  1.00  0.00     0.027 A 
HETATM   14  C   UNL     1       8.014  31.898  60.754  1.00  0.00     0.011 A 
HETATM   15 BR   UNL     1       8.759  31.365  59.100  1.00  0.00    -0.051 Br
HETATM   16  C   UNL     1       8.804  31.890  61.900  1.00  0.00     0.019 A 
HETATM   17  C   UNL     1       8.251  32.281  63.116  1.00  0.00     0.002 A 
HETATM   18  C   UNL     1       6.912  32.677  63.181  1.00  0.00     0.008 A 
ENDBRANCH   4  12
BRANCH   3  19
HETATM   19  C   UNL     1       3.450  34.296  63.971  1.00  0.00     0.266 C 
HETATM   20  O   UNL     1       2.368  33.779  63.727  1.00  0.00    -0.265 OA
BRANCH  19  21
HETATM   21  O   UNL     1       3.837  34.748  65.197  1.00  0.00    -0.326 OA
HETATM   22  C   UNL     1       4.659  33.838  65.929  1.00  0.00     0.213 C 
ENDBRANCH  19  21
ENDBRANCH   3  19
BRANCH   2  23
HETATM   23  O   UNL     1       5.533  36.691  62.482  1.00  0.00    -0.389 OA
HETATM   24  H   UNL     1       6.240  36.485  61.844  1.00  0.00     0.210 HD
ENDBRANCH   2  23
BRANCH  10  25
HETATM   25  O   UNL     1       3.554  31.017  59.996  1.00  0.00    -0.343 OA
HETATM   26  H   UNL     1       4.476  30.718  60.064  1.00  0.00     0.219 HD
ENDBRANCH  10  25
TORSDOF 5
ENDMDL
MODEL 5
REMARK VINA RESULT:      -7.0      9.612     11.228
REMARK  5 active torsions:
REMARK  status: ('A' for Active; 'I' for Inactive)
REMARK    1  A    between atoms: C_2  and  O_3 
REMARK    2  A    between atoms: C_4  and  C_5 
REMARK    3  A    between atoms: C_5  and  O_6 
REMARK    4  A    between atoms: C_9  and  C_10 
REMARK    5  A    between atoms: C_22  and  O_23 
ROOT
HETATM    1  C   UNL     1       5.513  31.791  62.825  1.00  0.00     0.047 C 
HETATM    2  C   UNL     1       5.995  33.236  63.068  1.00  0.00     0.073 C 
HETATM    3  C   UNL     1       4.858  34.325  62.895  1.00  0.00     0.133 C 
HETATM    4  C   UNL     1       4.619  35.364  64.029  1.00  0.00     0.074 C 
HETATM    5  C   UNL     1       5.174  34.935  65.331  1.00  0.00     0.030 A 
HETATM    6  C   UNL     1       6.144  33.972  65.471  1.00  0.00     0.042 A 
HETATM    7  N   UNL     1       6.375  33.835  66.811  1.00  0.00    -0.279 N 
HETATM    8  H   UNL     1       7.030  33.219  67.283  1.00  0.00     0.189 HD
HETATM    9  N   UNL     1       5.605  34.652  67.560  1.00  0.00    -0.149 NA
HETATM   10  C   UNL     1       4.889  35.294  66.647  1.00  0.00     0.190 A 
HETATM   11  C   UNL     1       6.829  33.247  64.389  1.00  0.00     0.097 C 
ENDROOT
BRANCH   4  12
HETATM   12  C   UNL     1       5.241  36.722  63.712  1.00  0.00    -0.047 A 
HETATM   13  C   UNL     1       5.333  37.766  64.647  1.00  0.00     0.027 A 
HETATM   14  C   UNL     1       5.950  38.972  64.305  1.00  0.00     0.011 A 
HETATM   15 BR   UNL     1       6.052  40.363  65.582  1.00  0.00    -0.051 Br
HETATM   16  C   UNL     1       6.493  39.159  63.037  1.00  0.00     0.019 A 
HETATM   17  C   UNL     1       6.414  38.133  62.099  1.00  0.00     0.002 A 
HETATM   18  C   UNL     1       5.794  36.927  62.433  1.00  0.00     0.008 A 
ENDBRANCH   4  12
BRANCH   3  19
HETATM   19  C   UNL     1       3.504  33.691  62.633  1.00  0.00     0.266 C 
HETATM   20  O   UNL     1       2.678  33.422  63.496  1.00  0.00    -0.265 OA
BRANCH  19  21
HETATM   21  O   UNL     1       3.332  33.475  61.299  1.00  0.00    -0.326 OA
HETATM   22  C   UNL     1       3.620  34.605  60.476  1.00  0.00     0.213 C 
ENDBRANCH  19  21
ENDBRANCH   3  19
BRANCH   2  23
HETATM   23  O   UNL     1       6.942  33.456  61.989  1.00  0.00    -0.389 OA
HETATM   24  H   UNL     1       7.735  33.885  62.357  1.00  0.00     0.210 HD
ENDBRANCH   2  23
BRANCH  10  25
HETATM   25  O   UNL     1       4.014  36.174  67.121  1.00  0.00    -0.343 OA
HETATM   26  H   UNL     1       3.405  36.331  66.380  1.00  0.00     0.219 HD
ENDBRANCH  10  25
TORSDOF 5
ENDMDL
MODEL 6
REMARK VINA RESULT:      -6.8      8.681     10.484
REMARK  5 active torsions:
REMARK  status: ('A' for Active; 'I' for Inactive)
REMARK    1  A    between atoms: C_2  and  O_3 
REMARK    2  A    between atoms: C_4  and  C_5 
REMARK    3  A    between atoms: C_5  and  O_6 
REMARK    4  A    between atoms: C_9  and  C_10 
REMARK    5  A    between atoms: C_22  and  O_23 
ROOT
HETATM    1  C   UNL     1       3.375  37.457  62.086  1.00  0.00     0.047 C 
HETATM    2  C   UNL     1       3.987  36.043  62.013  1.00  0.00     0.073 C 
HETATM    3  C   UNL     1       5.551  36.012  62.256  1.00  0.00     0.133 C 
HETATM    4  C   UNL     1       6.139  35.036  63.317  1.00  0.00     0.074 C 
HETATM    5  C   UNL     1       5.132  34.576  64.297  1.00  0.00     0.030 A 
HETATM    6  C   UNL     1       3.776  34.630  64.086  1.00  0.00     0.042 A 
HETATM    7  N   UNL     1       3.179  34.145  65.216  1.00  0.00    -0.279 N 
HETATM    8  H   UNL     1       2.190  34.032  65.414  1.00  0.00     0.189 HD
HETATM    9  N   UNL     1       4.071  33.780  66.161  1.00  0.00    -0.149 NA
HETATM   10  C   UNL     1       5.233  34.058  65.587  1.00  0.00     0.190 A 
HETATM   11  C   UNL     1       3.091  35.090  62.867  1.00  0.00     0.097 C 
ENDROOT
BRANCH   4  12
HETATM   12  C   UNL     1       6.741  33.784  62.683  1.00  0.00    -0.047 A 
HETATM   13  C   UNL     1       6.456  33.371  61.371  1.00  0.00     0.027 A 
HETATM   14  C   UNL     1       7.072  32.236  60.836  1.00  0.00     0.011 A 
HETATM   15 BR   UNL     1       6.663  31.698  59.070  1.00  0.00    -0.051 Br
HETATM   16  C   UNL     1       7.984  31.500  61.587  1.00  0.00     0.019 A 
HETATM   17  C   UNL     1       8.280  31.898  62.887  1.00  0.00     0.002 A 
HETATM   18  C   UNL     1       7.665  33.029  63.430  1.00  0.00     0.008 A 
ENDBRANCH   4  12
BRANCH   3  19
HETATM   19  C   UNL     1       6.095  37.382  62.620  1.00  0.00     0.266 C 
HETATM   20  O   UNL     1       6.133  37.842  63.753  1.00  0.00    -0.265 OA
BRANCH  19  21
HETATM   21  O   UNL     1       6.546  38.024  61.506  1.00  0.00    -0.326 OA
HETATM   22  C   UNL     1       7.160  39.288  61.761  1.00  0.00     0.213 C 
ENDBRANCH  19  21
ENDBRANCH   3  19
BRANCH   2  23
HETATM   23  O   UNL     1       3.779  35.662  60.628  1.00  0.00    -0.389 OA
HETATM   24  H   UNL     1       3.119  34.947  60.600  1.00  0.00     0.210 HD
ENDBRANCH   2  23
BRANCH  10  25
HETATM   25  O   UNL     1       6.310  33.803  66.322  1.00  0.00    -0.343 OA
HETATM   26  H   UNL     1       6.025  33.980  67.235  1.00  0.00     0.219 HD
ENDBRANCH  10  25
TORSDOF 5
ENDMDL
MODEL 7
REMARK VINA RESULT:      -6.5      5.513      6.846
REMARK  5 active torsions:
REMARK  status: ('A' for Active; 'I' for Inactive)
REMARK    1  A    between atoms: C_2  and  O_3 
REMARK    2  A    between atoms: C_4  and  C_5 
REMARK    3  A    between atoms: C_5  and  O_6 
REMARK    4  A    between atoms: C_9  and  C_10 
REMARK    5  A    between atoms: C_22  and  O_23 
ROOT
HETATM    1  C   UNL     1       4.371  31.191  49.629  1.00  0.00     0.047 C 
HETATM    2  C   UNL     1       5.122  29.938  50.125  1.00  0.00     0.073 C 
HETATM    3  C   UNL     1       4.302  29.074  51.168  1.00  0.00     0.133 C 
HETATM    4  C   UNL     1       4.128  27.547  50.924  1.00  0.00     0.074 C 
HETATM    5  C   UNL     1       4.359  27.158  49.516  1.00  0.00     0.030 A 
HETATM    6  C   UNL     1       5.051  27.926  48.612  1.00  0.00     0.042 A 
HETATM    7  N   UNL     1       5.032  27.253  47.423  1.00  0.00    -0.279 N 
HETATM    8  H   UNL     1       5.447  27.518  46.535  1.00  0.00     0.189 HD
HETATM    9  N   UNL     1       4.357  26.086  47.495  1.00  0.00    -0.149 NA
HETATM   10  C   UNL     1       3.958  26.059  48.759  1.00  0.00     0.190 A 
HETATM   11  C   UNL     1       5.717  29.211  48.876  1.00  0.00     0.097 C 
ENDROOT
BRANCH   4  12
HETATM   12  C   UNL     1       5.082  26.710  51.774  1.00  0.00    -0.047 A 
HETATM   13  C   UNL     1       4.923  26.526  53.157  1.00  0.00     0.027 A 
HETATM   14  C   UNL     1       5.809  25.715  53.871  1.00  0.00     0.011 A 
HETATM   15 BR   UNL     1       5.576  25.492  55.734  1.00  0.00    -0.051 Br
HETATM   16  C   UNL     1       6.859  25.069  53.226  1.00  0.00     0.019 A 
HETATM   17  C   UNL     1       7.029  25.237  51.855  1.00  0.00     0.002 A 
HETATM   18  C   UNL     1       6.149  26.050  51.136  1.00  0.00     0.008 A 
ENDBRANCH   4  12
BRANCH   3  19
HETATM   19  C   UNL     1       2.899  29.615  51.371  1.00  0.00     0.266 C 
HETATM   20  O   UNL     1       1.910  29.248  50.750  1.00  0.00    -0.265 OA
BRANCH  19  21
HETATM   21  O   UNL     1       2.892  30.561  52.353  1.00  0.00    -0.326 OA
HETATM   22  C   UNL     1       3.539  30.161  53.561  1.00  0.00     0.213 C 
ENDBRANCH  19  21
ENDBRANCH   3  19
BRANCH   2  23
HETATM   23  O   UNL     1       6.252  30.492  50.848  1.00  0.00    -0.389 OA
HETATM   24  H   UNL     1       6.196  30.205  51.777  1.00  0.00     0.210 HD
ENDBRANCH   2  23
BRANCH  10  25
HETATM   25  O   UNL     1       3.241  24.997  49.109  1.00  0.00    -0.343 OA
HETATM   26  H   UNL     1       3.902  24.339  49.382  1.00  0.00     0.219 HD
ENDBRANCH  10  25
TORSDOF 5
ENDMDL
MODEL 8
REMARK VINA RESULT:      -6.5      3.083      5.157
REMARK  5 active torsions:
REMARK  status: ('A' for Active; 'I' for Inactive)
REMARK    1  A    between atoms: C_2  and  O_3 
REMARK    2  A    between atoms: C_4  and  C_5 
REMARK    3  A    between atoms: C_5  and  O_6 
REMARK    4  A    between atoms: C_9  and  C_10 
REMARK    5  A    between atoms: C_22  and  O_23 
ROOT
HETATM    1  C   UNL     1       8.104  31.858  59.113  1.00  0.00     0.047 C 
HETATM    2  C   UNL     1       8.047  30.360  58.749  1.00  0.00     0.073 C 
HETATM    3  C   UNL     1       6.727  29.940  57.983  1.00  0.00     0.133 C 
HETATM    4  C   UNL     1       6.840  29.150  56.646  1.00  0.00     0.074 C 
HETATM    5  C   UNL     1       8.170  29.277  56.012  1.00  0.00     0.030 A 
HETATM    6  C   UNL     1       9.304  29.666  56.681  1.00  0.00     0.042 A 
HETATM    7  N   UNL     1      10.317  29.691  55.764  1.00  0.00    -0.279 N 
HETATM    8  H   UNL     1      11.294  29.928  55.902  1.00  0.00     0.189 HD
HETATM    9  N   UNL     1       9.907  29.345  54.525  1.00  0.00    -0.149 NA
HETATM   10  C   UNL     1       8.614  29.111  54.702  1.00  0.00     0.190 A 
HETATM   11  C   UNL     1       9.421  29.969  58.116  1.00  0.00     0.097 C 
ENDROOT
BRANCH   4  12
HETATM   12  C   UNL     1       6.582  27.656  56.831  1.00  0.00    -0.047 A 
HETATM   13  C   UNL     1       7.608  26.710  56.989  1.00  0.00     0.027 A 
HETATM   14  C   UNL     1       7.304  25.362  57.195  1.00  0.00     0.011 A 
HETATM   15 BR   UNL     1       8.705  24.109  57.395  1.00  0.00    -0.051 Br
HETATM   16  C   UNL     1       5.981  24.933  57.257  1.00  0.00     0.019 A 
HETATM   17  C   UNL     1       4.952  25.858  57.107  1.00  0.00     0.002 A 
HETATM   18  C   UNL     1       5.250  27.207  56.896  1.00  0.00     0.008 A 
ENDBRANCH   4  12
BRANCH   3  19
HETATM   19  C   UNL     1       5.847  31.137  57.673  1.00  0.00     0.266 C 
HETATM   20  O   UNL     1       5.916  31.813  56.655  1.00  0.00    -0.265 OA
BRANCH  19  21
HETATM   21  O   UNL     1       4.959  31.347  58.685  1.00  0.00    -0.326 OA
HETATM   22  C   UNL     1       3.636  30.883  58.415  1.00  0.00     0.213 C 
ENDBRANCH  19  21
ENDBRANCH   3  19
BRANCH   2  23
HETATM   23  O   UNL     1       7.996  29.706  60.044  1.00  0.00    -0.389 OA
HETATM   24  H   UNL     1       7.073  29.708  60.356  1.00  0.00     0.210 HD
ENDBRANCH   2  23
BRANCH  10  25
HETATM   25  O   UNL     1       7.943  28.756  53.611  1.00  0.00    -0.343 OA
HETATM   26  H   UNL     1       8.226  27.842  53.442  1.00  0.00     0.219 HD
ENDBRANCH  10  25
TORSDOF 5
ENDMDL
MODEL 9
REMARK VINA RESULT:      -6.5      2.648      4.572
REMARK  5 active torsions:
REMARK  status: ('A' for Active; 'I' for Inactive)
REMARK    1  A    between atoms: C_2  and  O_3 
REMARK    2  A    between atoms: C_4  and  C_5 
REMARK    3  A    between atoms: C_5  and  O_6 
REMARK    4  A    between atoms: C_9  and  C_10 
REMARK    5  A    between atoms: C_22  and  O_23 
ROOT
HETATM    1  C   UNL     1       7.917  26.370  55.742  1.00  0.00     0.047 C 
HETATM    2  C   UNL     1       7.496  27.318  56.883  1.00  0.00     0.073 C 
HETATM    3  C   UNL     1       8.022  28.801  56.706  1.00  0.00     0.133 C 
HETATM    4  C   UNL     1       7.016  29.985  56.808  1.00  0.00     0.074 C 
HETATM    5  C   UNL     1       5.612  29.566  56.606  1.00  0.00     0.030 A 
HETATM    6  C   UNL     1       5.171  28.273  56.738  1.00  0.00     0.042 A 
HETATM    7  N   UNL     1       3.835  28.278  56.450  1.00  0.00    -0.279 N 
HETATM    8  H   UNL     1       3.181  27.501  56.451  1.00  0.00     0.189 HD
HETATM    9  N   UNL     1       3.375  29.506  56.129  1.00  0.00    -0.149 NA
HETATM   10  C   UNL     1       4.464  30.257  56.222  1.00  0.00     0.190 A 
HETATM   11  C   UNL     1       5.970  27.106  57.144  1.00  0.00     0.097 C 
ENDROOT
BRANCH   4  12
HETATM   12  C   UNL     1       7.077  30.683  58.165  1.00  0.00    -0.047 A 
HETATM   13  C   UNL     1       7.997  30.339  59.169  1.00  0.00     0.027 A 
HETATM   14  C   UNL     1       8.027  31.044  60.374  1.00  0.00     0.011 A 
HETATM   15 BR   UNL     1       9.271  30.554  61.712  1.00  0.00    -0.051 Br
HETATM   16  C   UNL     1       7.154  32.104  60.601  1.00  0.00     0.019 A 
HETATM   17  C   UNL     1       6.238  32.460  59.615  1.00  0.00     0.002 A 
HETATM   18  C   UNL     1       6.200  31.757  58.409  1.00  0.00     0.008 A 
ENDBRANCH   4  12
BRANCH   3  19
HETATM   19  C   UNL     1       8.741  28.992  55.383  1.00  0.00     0.266 C 
HETATM   20  O   UNL     1       8.339  28.582  54.302  1.00  0.00    -0.265 OA
BRANCH  19  21
HETATM   21  O   UNL     1       9.893  29.696  55.566  1.00  0.00    -0.326 OA
HETATM   22  C   UNL     1      10.613  29.352  56.750  1.00  0.00     0.213 C 
ENDBRANCH  19  21
ENDBRANCH   3  19
BRANCH   2  23
HETATM   23  O   UNL     1       8.185  26.773  58.039  1.00  0.00    -0.389 OA
HETATM   24  H   UNL     1       7.524  26.565  58.723  1.00  0.00     0.210 HD
ENDBRANCH   2  23
BRANCH  10  25
HETATM   25  O   UNL     1       4.297  31.544  55.937  1.00  0.00    -0.343 OA
HETATM   26  H   UNL     1       5.179  31.934  56.062  1.00  0.00     0.219 HD
ENDBRANCH  10  25
TORSDOF 5
ENDMDL
MODEL 10
REMARK VINA RESULT:      -6.4      6.110      8.432
REMARK  5 active torsions:
REMARK  status: ('A' for Active; 'I' for Inactive)
REMARK    1  A    between atoms: C_2  and  O_3 
REMARK    2  A    between atoms: C_4  and  C_5 
REMARK    3  A    between atoms: C_5  and  O_6 
REMARK    4  A    between atoms: C_9  and  C_10 
REMARK    5  A    between atoms: C_22  and  O_23 
ROOT
HETATM    1  C   UNL     1       1.656  27.997  46.909  1.00  0.00     0.047 C 
HETATM    2  C   UNL     1       2.056  28.062  48.398  1.00  0.00     0.073 C 
HETATM    3  C   UNL     1       3.416  27.321  48.725  1.00  0.00     0.133 C 
HETATM    4  C   UNL     1       4.527  28.077  49.511  1.00  0.00     0.074 C 
HETATM    5  C   UNL     1       4.365  29.546  49.467  1.00  0.00     0.030 A 
HETATM    6  C   UNL     1       3.186  30.180  49.158  1.00  0.00     0.042 A 
HETATM    7  N   UNL     1       3.436  31.523  49.193  1.00  0.00    -0.279 N 
HETATM    8  H   UNL     1       2.797  32.293  49.022  1.00  0.00     0.189 HD
HETATM    9  N   UNL     1       4.718  31.807  49.503  1.00  0.00    -0.149 NA
HETATM   10  C   UNL     1       5.255  30.603  49.653  1.00  0.00     0.190 A 
HETATM   11  C   UNL     1       1.891  29.541  48.874  1.00  0.00     0.097 C 
ENDROOT
BRANCH   4  12
HETATM   12  C   UNL     1       4.565  27.683  50.986  1.00  0.00    -0.047 A 
HETATM   13  C   UNL     1       5.281  26.577  51.471  1.00  0.00     0.027 A 
HETATM   14  C   UNL     1       5.308  26.293  52.838  1.00  0.00     0.011 A 
HETATM   15 BR   UNL     1       6.274  24.791  53.461  1.00  0.00    -0.051 Br
HETATM   16  C   UNL     1       4.634  27.105  53.747  1.00  0.00     0.019 A 
HETATM   17  C   UNL     1       3.923  28.207  53.284  1.00  0.00     0.002 A 
HETATM   18  C   UNL     1       3.888  28.494  51.917  1.00  0.00     0.008 A 
ENDBRANCH   4  12
BRANCH   3  19
HETATM   19  C   UNL     1       4.091  26.798  47.470  1.00  0.00     0.266 C 
HETATM   20  O   UNL     1       5.086  27.290  46.954  1.00  0.00    -0.265 OA
BRANCH  19  21
HETATM   21  O   UNL     1       3.440  25.695  47.005  1.00  0.00    -0.326 OA
HETATM   22  C   UNL     1       3.140  24.722  48.006  1.00  0.00     0.213 C 
ENDBRANCH  19  21
ENDBRANCH   3  19
BRANCH   2  23
HETATM   23  O   UNL     1       1.006  27.305  49.056  1.00  0.00    -0.389 OA
HETATM   24  H   UNL     1       1.070  27.458  50.016  1.00  0.00     0.210 HD
ENDBRANCH   2  23
BRANCH  10  25
HETATM   25  O   UNL     1       6.548  30.587  49.955  1.00  0.00    -0.343 OA
HETATM   26  H   UNL     1       6.569  30.614  50.926  1.00  0.00     0.219 HD
ENDBRANCH  10  25
TORSDOF 5
ENDMDL
