MODEL 1
REMARK VINA RESULT:     -10.7      0.000      0.000
REMARK  5 active torsions:
REMARK  status: ('A' for Active; 'I' for Inactive)
REMARK    1  A    between atoms: C_7  and  C_8 
REMARK    2  A    between atoms: C_16  and  C_17 
REMARK    3  A    between atoms: C_19  and  O_20 
REMARK    4  A    between atoms: C_24  and  C_25 
REMARK       I    between atoms: C_25  and  N_26 
REMARK    5  A    between atoms: N_26  and  C_27 
ROOT
HETATM    1  C   UNL     1       5.021  27.919  57.079  1.00  0.00     0.070 C 
HETATM    2  C   UNL     1       5.536  27.370  55.771  1.00  0.00     0.037 C 
HETATM    3  N   UNL     1       4.570  27.174  54.780  1.00  0.00    -0.192 N 
HETATM    4  C   UNL     1       4.902  26.987  53.485  1.00  0.00     0.726 A 
HETATM    5  N   UNL     1       6.193  26.679  53.171  1.00  0.00    -0.083 N 
HETATM    6  N   UNL     1       6.394  26.655  51.842  1.00  0.00    -0.135 NA
HETATM    7  C   UNL     1       5.153  26.917  51.385  1.00  0.00     0.199 A 
HETATM    8  N   UNL     1       4.210  27.114  52.383  1.00  0.00    -0.041 NA
HETATM    9  C   UNL     1       7.252  26.502  54.165  1.00  0.00     0.202 C 
HETATM   10  C   UNL     1       6.842  27.088  55.514  1.00  0.00     0.062 C 
HETATM   11  H   UNL     1       3.645  27.549  54.973  1.00  0.00     0.184 HD
ENDROOT
BRANCH  10  12
HETATM   12  C   UNL     1       7.927  27.558  56.433  1.00  0.00     0.256 C 
HETATM   13  N   UNL     1       8.429  28.809  56.144  1.00  0.00    -0.323 N 
HETATM   14  H   UNL     1       8.130  29.270  55.295  1.00  0.00     0.169 HD
HETATM   15  O   UNL     1       8.247  26.857  57.385  1.00  0.00    -0.267 OA
BRANCH  13  16
HETATM   16  C   UNL     1       9.335  29.565  56.922  1.00  0.00     0.035 A 
HETATM   17  C   UNL     1      10.723  29.515  56.783  1.00  0.00     0.029 A 
HETATM   18  C   UNL     1      11.548  30.281  57.615  1.00  0.00     0.002 A 
HETATM   19  C   UNL     1      10.992  31.095  58.597  1.00  0.00     0.000 A 
HETATM   20  C   UNL     1       9.610  31.154  58.745  1.00  0.00     0.002 A 
HETATM   21  C   UNL     1       8.785  30.398  57.908  1.00  0.00     0.029 A 
ENDBRANCH  13  16
ENDBRANCH  10  12
BRANCH   9  22
HETATM   22  C   UNL     1       7.621  25.018  54.232  1.00  0.00    -0.025 A 
HETATM   23  C   UNL     1       7.700  24.321  55.454  1.00  0.00     0.046 A 
HETATM   24  C   UNL     1       8.063  22.977  55.470  1.00  0.00     0.066 A 
HETATM   25  C   UNL     1       8.334  22.297  54.292  1.00  0.00     0.036 A 
HETATM   26  C   UNL     1       8.233  22.964  53.073  1.00  0.00     0.003 A 
HETATM   27  C   UNL     1       7.877  24.315  53.041  1.00  0.00     0.010 A 
BRANCH  24  28
HETATM   28  O   UNL     1       8.166  22.283  56.639  1.00  0.00    -0.361 OA
HETATM   29  H   UNL     1       9.102  22.215  56.890  1.00  0.00     0.217 HD
ENDBRANCH  24  28
ENDBRANCH   9  22
BRANCH   7  30
HETATM   30  C   UNL     1       4.827  27.035  49.967  1.00  0.00     0.016 A 
HETATM   31  C   UNL     1       4.090  26.035  49.315  1.00  0.00     0.039 A 
HETATM   32  C   UNL     1       3.806  26.148  47.955  1.00  0.00     0.035 A 
HETATM   33 CL   UNL     1       2.906  24.911  47.166  1.00  0.00    -0.084 Cl
HETATM   34  C   UNL     1       4.246  27.251  47.228  1.00  0.00     0.024 A 
HETATM   35  C   UNL     1       4.977  28.253  47.866  1.00  0.00     0.003 A 
HETATM   36  C   UNL     1       5.263  28.146  49.229  1.00  0.00     0.015 A 
ENDBRANCH   7  30
TORSDOF 5
ENDMDL
MODEL 2
REMARK VINA RESULT:     -10.5      4.539      7.433
REMARK  5 active torsions:
REMARK  status: ('A' for Active; 'I' for Inactive)
REMARK    1  A    between atoms: C_7  and  C_8 
REMARK    2  A    between atoms: C_16  and  C_17 
REMARK    3  A    between atoms: C_19  and  O_20 
REMARK    4  A    between atoms: C_24  and  C_25 
REMARK       I    between atoms: C_25  and  N_26 
REMARK    5  A    between atoms: N_26  and  C_27 
ROOT
HETATM    1  C   UNL     1       9.648  31.931  58.756  1.00  0.00     0.070 C 
HETATM    2  C   UNL     1       8.689  30.857  58.305  1.00  0.00     0.037 C 
HETATM    3  N   UNL     1       9.231  29.881  57.465  1.00  0.00    -0.192 N 
HETATM    4  C   UNL     1       8.602  28.711  57.229  1.00  0.00     0.726 A 
HETATM    5  N   UNL     1       7.286  28.589  57.561  1.00  0.00    -0.083 N 
HETATM    6  N   UNL     1       6.839  27.333  57.390  1.00  0.00    -0.135 NA
HETATM    7  C   UNL     1       7.938  26.729  56.898  1.00  0.00     0.199 A 
HETATM    8  N   UNL     1       9.039  27.564  56.778  1.00  0.00    -0.041 NA
HETATM    9  C   UNL     1       6.488  29.674  58.134  1.00  0.00     0.202 C 
HETATM   10  C   UNL     1       7.383  30.784  58.677  1.00  0.00     0.062 C 
HETATM   11  H   UNL     1      10.242  29.897  57.351  1.00  0.00     0.184 HD
ENDROOT
BRANCH  10  12
HETATM   12  C   UNL     1       6.852  31.628  59.795  1.00  0.00     0.256 C 
HETATM   13  N   UNL     1       7.149  31.168  61.060  1.00  0.00    -0.323 N 
HETATM   14  H   UNL     1       7.590  30.264  61.158  1.00  0.00     0.169 HD
HETATM   15  O   UNL     1       6.262  32.669  59.528  1.00  0.00    -0.267 OA
BRANCH  13  16
HETATM   16  C   UNL     1       6.918  31.833  62.286  1.00  0.00     0.035 A 
HETATM   17  C   UNL     1       5.657  32.019  62.854  1.00  0.00     0.029 A 
HETATM   18  C   UNL     1       5.518  32.713  64.062  1.00  0.00     0.002 A 
HETATM   19  C   UNL     1       6.637  33.233  64.706  1.00  0.00     0.000 A 
HETATM   20  C   UNL     1       7.899  33.053  64.149  1.00  0.00     0.002 A 
HETATM   21  C   UNL     1       8.041  32.351  62.949  1.00  0.00     0.029 A 
ENDBRANCH  13  16
ENDBRANCH  10  12
BRANCH   9  22
HETATM   22  C   UNL     1       5.485  30.156  57.083  1.00  0.00    -0.025 A 
HETATM   23  C   UNL     1       5.722  30.011  55.702  1.00  0.00     0.046 A 
HETATM   24  C   UNL     1       4.793  30.486  54.779  1.00  0.00     0.066 A 
HETATM   25  C   UNL     1       3.617  31.090  55.199  1.00  0.00     0.036 A 
HETATM   26  C   UNL     1       3.355  31.216  56.561  1.00  0.00     0.003 A 
HETATM   27  C   UNL     1       4.280  30.751  57.498  1.00  0.00     0.010 A 
BRANCH  24  28
HETATM   28  O   UNL     1       5.006  30.377  53.437  1.00  0.00    -0.361 OA
HETATM   29  H   UNL     1       5.434  31.187  53.114  1.00  0.00     0.217 HD
ENDBRANCH  24  28
ENDBRANCH   9  22
BRANCH   7  30
HETATM   30  C   UNL     1       7.995  25.309  56.563  1.00  0.00     0.016 A 
HETATM   31  C   UNL     1       7.660  24.861  55.277  1.00  0.00     0.039 A 
HETATM   32  C   UNL     1       7.695  23.500  54.977  1.00  0.00     0.035 A 
HETATM   33 CL   UNL     1       7.276  22.964  53.396  1.00  0.00    -0.084 Cl
HETATM   34  C   UNL     1       8.060  22.570  55.947  1.00  0.00     0.024 A 
HETATM   35  C   UNL     1       8.398  23.003  57.229  1.00  0.00     0.003 A 
HETATM   36  C   UNL     1       8.368  24.366  57.534  1.00  0.00     0.015 A 
ENDBRANCH   7  30
TORSDOF 5
ENDMDL
MODEL 3
REMARK VINA RESULT:     -10.3      4.006      6.784
REMARK  5 active torsions:
REMARK  status: ('A' for Active; 'I' for Inactive)
REMARK    1  A    between atoms: C_7  and  C_8 
REMARK    2  A    between atoms: C_16  and  C_17 
REMARK    3  A    between atoms: C_19  and  O_20 
REMARK    4  A    between atoms: C_24  and  C_25 
REMARK       I    between atoms: C_25  and  N_26 
REMARK    5  A    between atoms: N_26  and  C_27 
ROOT
HETATM    1  C   UNL     1       2.921  29.423  56.711  1.00  0.00     0.070 C 
HETATM    2  C   UNL     1       4.241  28.808  56.316  1.00  0.00     0.037 C 
HETATM    3  N   UNL     1       4.379  27.446  56.600  1.00  0.00    -0.192 N 
HETATM    4  C   UNL     1       5.352  26.695  56.044  1.00  0.00     0.726 A 
HETATM    5  N   UNL     1       6.402  27.317  55.437  1.00  0.00    -0.083 N 
HETATM    6  N   UNL     1       7.215  26.442  54.820  1.00  0.00    -0.135 NA
HETATM    7  C   UNL     1       6.623  25.272  55.129  1.00  0.00     0.199 A 
HETATM    8  N   UNL     1       5.474  25.402  55.896  1.00  0.00    -0.041 NA
HETATM    9  C   UNL     1       6.564  28.770  55.379  1.00  0.00     0.202 C 
HETATM   10  C   UNL     1       5.253  29.481  55.705  1.00  0.00     0.062 C 
HETATM   11  H   UNL     1       3.537  26.964  56.908  1.00  0.00     0.184 HD
ENDROOT
BRANCH  10  12
HETATM   12  C   UNL     1       5.032  30.844  55.125  1.00  0.00     0.256 C 
HETATM   13  N   UNL     1       4.430  30.856  53.885  1.00  0.00    -0.323 N 
HETATM   14  H   UNL     1       4.283  29.977  53.406  1.00  0.00     0.169 HD
HETATM   15  O   UNL     1       5.331  31.830  55.789  1.00  0.00    -0.267 OA
BRANCH  13  16
HETATM   16  C   UNL     1       3.960  31.984  53.175  1.00  0.00     0.035 A 
HETATM   17  C   UNL     1       4.669  32.623  52.156  1.00  0.00     0.029 A 
HETATM   18  C   UNL     1       4.138  33.752  51.522  1.00  0.00     0.002 A 
HETATM   19  C   UNL     1       2.899  34.256  51.907  1.00  0.00     0.000 A 
HETATM   20  C   UNL     1       2.183  33.627  52.922  1.00  0.00     0.002 A 
HETATM   21  C   UNL     1       2.708  32.494  53.548  1.00  0.00     0.029 A 
ENDBRANCH  13  16
ENDBRANCH  10  12
BRANCH   9  22
HETATM   22  C   UNL     1       7.722  29.175  56.295  1.00  0.00    -0.025 A 
HETATM   23  C   UNL     1       7.551  29.349  57.683  1.00  0.00     0.046 A 
HETATM   24  C   UNL     1       8.627  29.741  58.475  1.00  0.00     0.066 A 
HETATM   25  C   UNL     1       9.882  29.947  57.922  1.00  0.00     0.036 A 
HETATM   26  C   UNL     1      10.074  29.752  56.556  1.00  0.00     0.003 A 
HETATM   27  C   UNL     1       9.003  29.366  55.747  1.00  0.00     0.010 A 
BRANCH  24  28
HETATM   28  O   UNL     1       8.486  29.936  59.817  1.00  0.00    -0.361 OA
HETATM   29  H   UNL     1       7.650  29.540  60.112  1.00  0.00     0.217 HD
ENDBRANCH  24  28
ENDBRANCH   9  22
BRANCH   7  30
HETATM   30  C   UNL     1       7.108  23.977  54.661  1.00  0.00     0.016 A 
HETATM   31  C   UNL     1       7.297  22.915  55.559  1.00  0.00     0.039 A 
HETATM   32  C   UNL     1       7.783  21.691  55.103  1.00  0.00     0.035 A 
HETATM   33 CL   UNL     1       8.017  20.399  56.216  1.00  0.00    -0.084 Cl
HETATM   34  C   UNL     1       8.087  21.504  53.757  1.00  0.00     0.024 A 
HETATM   35  C   UNL     1       7.900  22.551  52.855  1.00  0.00     0.003 A 
HETATM   36  C   UNL     1       7.411  23.780  53.305  1.00  0.00     0.015 A 
ENDBRANCH   7  30
TORSDOF 5
ENDMDL
MODEL 4
REMARK VINA RESULT:     -10.0      4.388      7.262
REMARK  5 active torsions:
REMARK  status: ('A' for Active; 'I' for Inactive)
REMARK    1  A    between atoms: C_7  and  C_8 
REMARK    2  A    between atoms: C_16  and  C_17 
REMARK    3  A    between atoms: C_19  and  O_20 
REMARK    4  A    between atoms: C_24  and  C_25 
REMARK       I    between atoms: C_25  and  N_26 
REMARK    5  A    between atoms: N_26  and  C_27 
ROOT
HETATM    1  C   UNL     1       4.285  27.869  54.156  1.00  0.00     0.070 C 
HETATM    2  C   UNL     1       4.489  28.358  52.743  1.00  0.00     0.037 C 
HETATM    3  N   UNL     1       4.321  29.733  52.553  1.00  0.00    -0.192 N 
HETATM    4  C   UNL     1       4.759  30.360  51.441  1.00  0.00     0.726 A 
HETATM    5  N   UNL     1       5.098  29.615  50.351  1.00  0.00    -0.083 N 
HETATM    6  N   UNL     1       5.638  30.367  49.376  1.00  0.00    -0.135 NA
HETATM    7  C   UNL     1       5.561  31.596  49.922  1.00  0.00     0.199 A 
HETATM    8  N   UNL     1       5.009  31.619  51.195  1.00  0.00    -0.041 NA
HETATM    9  C   UNL     1       4.982  28.157  50.295  1.00  0.00     0.202 C 
HETATM   10  C   UNL     1       4.835  27.564  51.694  1.00  0.00     0.062 C 
HETATM   11  H   UNL     1       4.221  30.295  53.395  1.00  0.00     0.184 HD
ENDROOT
BRANCH  10  12
HETATM   12  C   UNL     1       5.308  26.160  51.914  1.00  0.00     0.256 C 
HETATM   13  N   UNL     1       6.425  26.044  52.712  1.00  0.00    -0.323 N 
HETATM   14  H   UNL     1       6.910  26.884  52.997  1.00  0.00     0.169 HD
HETATM   15  O   UNL     1       4.662  25.233  51.440  1.00  0.00    -0.267 OA
BRANCH  13  16
HETATM   16  C   UNL     1       6.995  24.851  53.214  1.00  0.00     0.035 A 
HETATM   17  C   UNL     1       7.801  23.990  52.468  1.00  0.00     0.029 A 
HETATM   18  C   UNL     1       8.303  22.815  53.039  1.00  0.00     0.002 A 
HETATM   19  C   UNL     1       7.997  22.488  54.356  1.00  0.00     0.000 A 
HETATM   20  C   UNL     1       7.194  23.340  55.110  1.00  0.00     0.002 A 
HETATM   21  C   UNL     1       6.701  24.518  54.545  1.00  0.00     0.029 A 
ENDBRANCH  13  16
ENDBRANCH  10  12
BRANCH   9  22
HETATM   22  C   UNL     1       3.833  27.790  49.352  1.00  0.00    -0.025 A 
HETATM   23  C   UNL     1       3.997  26.873  48.295  1.00  0.00     0.046 A 
HETATM   24  C   UNL     1       2.931  26.587  47.446  1.00  0.00     0.066 A 
HETATM   25  C   UNL     1       1.691  27.178  47.635  1.00  0.00     0.036 A 
HETATM   26  C   UNL     1       1.504  28.066  48.693  1.00  0.00     0.003 A 
HETATM   27  C   UNL     1       2.566  28.369  49.548  1.00  0.00     0.010 A 
BRANCH  24  28
HETATM   28  O   UNL     1       3.067  25.719  46.404  1.00  0.00    -0.361 OA
HETATM   29  H   UNL     1       2.905  24.814  46.717  1.00  0.00     0.217 HD
ENDBRANCH  24  28
ENDBRANCH   9  22
BRANCH   7  30
HETATM   30  C   UNL     1       6.056  32.801  49.264  1.00  0.00     0.016 A 
HETATM   31  C   UNL     1       6.546  32.750  47.950  1.00  0.00     0.039 A 
HETATM   32  C   UNL     1       7.039  33.904  47.341  1.00  0.00     0.035 A 
HETATM   33 CL   UNL     1       7.643  33.826  45.731  1.00  0.00    -0.084 Cl
HETATM   34  C   UNL     1       7.052  35.117  48.025  1.00  0.00     0.024 A 
HETATM   35  C   UNL     1       6.566  35.180  49.330  1.00  0.00     0.003 A 
HETATM   36  C   UNL     1       6.068  34.028  49.944  1.00  0.00     0.015 A 
ENDBRANCH   7  30
TORSDOF 5
ENDMDL
MODEL 5
REMARK VINA RESULT:     -10.0      3.632      7.243
REMARK  5 active torsions:
REMARK  status: ('A' for Active; 'I' for Inactive)
REMARK    1  A    between atoms: C_7  and  C_8 
REMARK    2  A    between atoms: C_16  and  C_17 
REMARK    3  A    between atoms: C_19  and  O_20 
REMARK    4  A    between atoms: C_24  and  C_25 
REMARK       I    between atoms: C_25  and  N_26 
REMARK    5  A    between atoms: N_26  and  C_27 
ROOT
HETATM    1  C   UNL     1       2.399  28.549  52.084  1.00  0.00     0.070 C 
HETATM    2  C   UNL     1       3.656  28.084  52.778  1.00  0.00     0.037 C 
HETATM    3  N   UNL     1       3.654  26.750  53.195  1.00  0.00    -0.192 N 
HETATM    4  C   UNL     1       4.788  26.108  53.545  1.00  0.00     0.726 A 
HETATM    5  N   UNL     1       5.913  26.839  53.790  1.00  0.00    -0.083 N 
HETATM    6  N   UNL     1       6.986  26.055  53.995  1.00  0.00    -0.135 NA
HETATM    7  C   UNL     1       6.435  24.829  53.905  1.00  0.00     0.199 A 
HETATM    8  N   UNL     1       5.073  24.836  53.638  1.00  0.00    -0.041 NA
HETATM    9  C   UNL     1       5.962  28.300  53.733  1.00  0.00     0.202 C 
HETATM   10  C   UNL     1       4.753  28.860  52.989  1.00  0.00     0.062 C 
HETATM   11  H   UNL     1       2.877  26.179  52.871  1.00  0.00     0.184 HD
ENDROOT
BRANCH  10  12
HETATM   12  C   UNL     1       4.904  30.183  52.302  1.00  0.00     0.256 C 
HETATM   13  N   UNL     1       5.448  30.120  51.037  1.00  0.00    -0.323 N 
HETATM   14  H   UNL     1       5.806  29.235  50.704  1.00  0.00     0.169 HD
HETATM   15  O   UNL     1       4.494  31.194  52.860  1.00  0.00    -0.267 OA
BRANCH  13  16
HETATM   16  C   UNL     1       5.561  31.176  50.104  1.00  0.00     0.035 A 
HETATM   17  C   UNL     1       6.055  32.446  50.408  1.00  0.00     0.029 A 
HETATM   18  C   UNL     1       6.108  33.441  49.426  1.00  0.00     0.002 A 
HETATM   19  C   UNL     1       5.661  33.178  48.135  1.00  0.00     0.000 A 
HETATM   20  C   UNL     1       5.167  31.915  47.819  1.00  0.00     0.002 A 
HETATM   21  C   UNL     1       5.123  30.918  48.796  1.00  0.00     0.029 A 
ENDBRANCH  13  16
ENDBRANCH  10  12
BRANCH   9  22
HETATM   22  C   UNL     1       6.108  28.844  55.157  1.00  0.00    -0.025 A 
HETATM   23  C   UNL     1       5.001  29.001  56.014  1.00  0.00     0.046 A 
HETATM   24  C   UNL     1       5.177  29.522  57.294  1.00  0.00     0.066 A 
HETATM   25  C   UNL     1       6.437  29.877  57.752  1.00  0.00     0.036 A 
HETATM   26  C   UNL     1       7.545  29.702  56.927  1.00  0.00     0.003 A 
HETATM   27  C   UNL     1       7.384  29.187  55.639  1.00  0.00     0.010 A 
BRANCH  24  28
HETATM   28  O   UNL     1       4.121  29.703  58.138  1.00  0.00    -0.361 OA
HETATM   29  H   UNL     1       4.218  29.113  58.903  1.00  0.00     0.217 HD
ENDBRANCH  24  28
ENDBRANCH   9  22
BRANCH   7  30
HETATM   30  C   UNL     1       7.201  23.592  54.024  1.00  0.00     0.016 A 
HETATM   31  C   UNL     1       7.414  22.999  55.277  1.00  0.00     0.039 A 
HETATM   32  C   UNL     1       8.168  21.830  55.381  1.00  0.00     0.035 A 
HETATM   33 CL   UNL     1       8.427  21.116  56.925  1.00  0.00    -0.084 Cl
HETATM   34  C   UNL     1       8.718  21.239  54.246  1.00  0.00     0.024 A 
HETATM   35  C   UNL     1       8.511  21.818  52.995  1.00  0.00     0.003 A 
HETATM   36  C   UNL     1       7.754  22.987  52.885  1.00  0.00     0.015 A 
ENDBRANCH   7  30
TORSDOF 5
ENDMDL
MODEL 6
REMARK VINA RESULT:      -9.3      3.937      7.744
REMARK  5 active torsions:
REMARK  status: ('A' for Active; 'I' for Inactive)
REMARK    1  A    between atoms: C_7  and  C_8 
REMARK    2  A    between atoms: C_16  and  C_17 
REMARK    3  A    between atoms: C_19  and  O_20 
REMARK    4  A    between atoms: C_24  and  C_25 
REMARK       I    between atoms: C_25  and  N_26 
REMARK    5  A    between atoms: N_26  and  C_27 
ROOT
HETATM    1  C   UNL     1       3.653  27.817  48.676  1.00  0.00     0.070 C 
HETATM    2  C   UNL     1       4.383  27.657  49.987  1.00  0.00     0.037 C 
HETATM    3  N   UNL     1       4.406  26.361  50.509  1.00  0.00    -0.192 N 
HETATM    4  C   UNL     1       5.260  25.999  51.489  1.00  0.00     0.726 A 
HETATM    5  N   UNL     1       5.900  26.971  52.200  1.00  0.00    -0.083 N 
HETATM    6  N   UNL     1       6.810  26.457  53.045  1.00  0.00    -0.135 NA
HETATM    7  C   UNL     1       6.645  25.136  52.835  1.00  0.00     0.199 A 
HETATM    8  N   UNL     1       5.683  24.828  51.886  1.00  0.00    -0.041 NA
HETATM    9  C   UNL     1       5.693  28.404  51.988  1.00  0.00     0.202 C 
HETATM   10  C   UNL     1       5.012  28.667  50.647  1.00  0.00     0.062 C 
HETATM   11  H   UNL     1       4.061  25.624  49.897  1.00  0.00     0.184 HD
ENDROOT
BRANCH  10  12
HETATM   12  C   UNL     1       5.260  29.986  49.982  1.00  0.00     0.256 C 
HETATM   13  N   UNL     1       4.137  30.764  49.802  1.00  0.00    -0.323 N 
HETATM   14  H   UNL     1       3.231  30.369  50.015  1.00  0.00     0.169 HD
HETATM   15  O   UNL     1       6.410  30.306  49.705  1.00  0.00    -0.267 OA
BRANCH  13  16
HETATM   16  C   UNL     1       4.091  32.104  49.352  1.00  0.00     0.035 A 
HETATM   17  C   UNL     1       3.960  32.479  48.014  1.00  0.00     0.029 A 
HETATM   18  C   UNL     1       3.948  33.832  47.655  1.00  0.00     0.002 A 
HETATM   19  C   UNL     1       4.075  34.818  48.628  1.00  0.00     0.000 A 
HETATM   20  C   UNL     1       4.206  34.455  49.965  1.00  0.00     0.002 A 
HETATM   21  C   UNL     1       4.208  33.106  50.327  1.00  0.00     0.029 A 
ENDBRANCH  13  16
ENDBRANCH  10  12
BRANCH   9  22
HETATM   22  C   UNL     1       4.927  28.973  53.185  1.00  0.00    -0.025 A 
HETATM   23  C   UNL     1       4.720  28.228  54.363  1.00  0.00     0.046 A 
HETATM   24  C   UNL     1       3.996  28.777  55.418  1.00  0.00     0.066 A 
HETATM   25  C   UNL     1       3.485  30.064  55.339  1.00  0.00     0.036 A 
HETATM   26  C   UNL     1       3.704  30.823  54.192  1.00  0.00     0.003 A 
HETATM   27  C   UNL     1       4.422  30.284  53.122  1.00  0.00     0.010 A 
BRANCH  24  28
HETATM   28  O   UNL     1       3.764  28.072  56.562  1.00  0.00    -0.361 OA
HETATM   29  H   UNL     1       2.978  27.514  56.440  1.00  0.00     0.217 HD
ENDBRANCH  24  28
ENDBRANCH   9  22
BRANCH   7  30
HETATM   30  C   UNL     1       7.439  24.110  53.505  1.00  0.00     0.016 A 
HETATM   31  C   UNL     1       7.643  22.857  52.908  1.00  0.00     0.039 A 
HETATM   32  C   UNL     1       8.382  21.877  53.569  1.00  0.00     0.035 A 
HETATM   33 CL   UNL     1       8.620  20.343  52.827  1.00  0.00    -0.084 Cl
HETATM   34  C   UNL     1       8.927  22.127  54.826  1.00  0.00     0.024 A 
HETATM   35  C   UNL     1       8.734  23.370  55.429  1.00  0.00     0.003 A 
HETATM   36  C   UNL     1       7.996  24.356  54.770  1.00  0.00     0.015 A 
ENDBRANCH   7  30
TORSDOF 5
ENDMDL
MODEL 7
REMARK VINA RESULT:      -9.3      6.750      9.771
REMARK  5 active torsions:
REMARK  status: ('A' for Active; 'I' for Inactive)
REMARK    1  A    between atoms: C_7  and  C_8 
REMARK    2  A    between atoms: C_16  and  C_17 
REMARK    3  A    between atoms: C_19  and  O_20 
REMARK    4  A    between atoms: C_24  and  C_25 
REMARK       I    between atoms: C_25  and  N_26 
REMARK    5  A    between atoms: N_26  and  C_27 
ROOT
HETATM    1  C   UNL     1       3.432  33.767  63.849  1.00  0.00     0.070 C 
HETATM    2  C   UNL     1       4.167  33.388  62.587  1.00  0.00     0.037 C 
HETATM    3  N   UNL     1       3.523  32.450  61.775  1.00  0.00    -0.192 N 
HETATM    4  C   UNL     1       3.890  32.241  60.493  1.00  0.00     0.726 A 
HETATM    5  N   UNL     1       5.091  32.721  60.063  1.00  0.00    -0.083 N 
HETATM    6  N   UNL     1       5.255  32.551  58.739  1.00  0.00    -0.135 NA
HETATM    7  C   UNL     1       4.116  31.908  58.416  1.00  0.00     0.199 A 
HETATM    8  N   UNL     1       3.260  31.694  59.487  1.00  0.00    -0.041 NA
HETATM    9  C   UNL     1       6.040  33.429  60.924  1.00  0.00     0.202 C 
HETATM   10  C   UNL     1       5.364  33.908  62.206  1.00  0.00     0.062 C 
HETATM   11  H   UNL     1       2.565  32.218  62.028  1.00  0.00     0.184 HD
ENDROOT
BRANCH  10  12
HETATM   12  C   UNL     1       5.932  35.115  62.888  1.00  0.00     0.256 C 
HETATM   13  N   UNL     1       5.741  36.304  62.216  1.00  0.00    -0.323 N 
HETATM   14  H   UNL     1       5.347  36.279  61.285  1.00  0.00     0.169 HD
HETATM   15  O   UNL     1       6.456  34.987  63.988  1.00  0.00    -0.267 OA
BRANCH  13  16
HETATM   16  C   UNL     1       6.025  37.606  62.688  1.00  0.00     0.035 A 
HETATM   17  C   UNL     1       5.662  38.081  63.950  1.00  0.00     0.029 A 
HETATM   18  C   UNL     1       5.962  39.395  64.326  1.00  0.00     0.002 A 
HETATM   19  C   UNL     1       6.618  40.246  63.442  1.00  0.00     0.000 A 
HETATM   20  C   UNL     1       6.984  39.784  62.182  1.00  0.00     0.002 A 
HETATM   21  C   UNL     1       6.695  38.469  61.809  1.00  0.00     0.029 A 
ENDBRANCH  13  16
ENDBRANCH  10  12
BRANCH   9  22
HETATM   22  C   UNL     1       7.250  32.524  61.172  1.00  0.00    -0.025 A 
HETATM   23  C   UNL     1       7.219  31.478  62.116  1.00  0.00     0.046 A 
HETATM   24  C   UNL     1       8.351  30.695  62.327  1.00  0.00     0.066 A 
HETATM   25  C   UNL     1       9.515  30.914  61.605  1.00  0.00     0.036 A 
HETATM   26  C   UNL     1       9.552  31.926  60.649  1.00  0.00     0.003 A 
HETATM   27  C   UNL     1       8.428  32.725  60.431  1.00  0.00     0.010 A 
BRANCH  24  28
HETATM   28  O   UNL     1       8.356  29.689  63.248  1.00  0.00    -0.361 OA
HETATM   29  H   UNL     1       9.229  29.262  63.250  1.00  0.00     0.217 HD
ENDBRANCH  24  28
ENDBRANCH   9  22
BRANCH   7  30
HETATM   30  C   UNL     1       3.776  31.511  57.053  1.00  0.00     0.016 A 
HETATM   31  C   UNL     1       4.134  30.246  56.564  1.00  0.00     0.039 A 
HETATM   32  C   UNL     1       3.825  29.888  55.253  1.00  0.00     0.035 A 
HETATM   33 CL   UNL     1       4.275  28.334  54.664  1.00  0.00    -0.084 Cl
HETATM   34  C   UNL     1       3.159  30.777  54.413  1.00  0.00     0.024 A 
HETATM   35  C   UNL     1       2.795  32.036  54.888  1.00  0.00     0.003 A 
HETATM   36  C   UNL     1       3.100  32.400  56.203  1.00  0.00     0.015 A 
ENDBRANCH   7  30
TORSDOF 5
ENDMDL
MODEL 8
REMARK VINA RESULT:      -9.3      6.723      9.847
REMARK  5 active torsions:
REMARK  status: ('A' for Active; 'I' for Inactive)
REMARK    1  A    between atoms: C_7  and  C_8 
REMARK    2  A    between atoms: C_16  and  C_17 
REMARK    3  A    between atoms: C_19  and  O_20 
REMARK    4  A    between atoms: C_24  and  C_25 
REMARK       I    between atoms: C_25  and  N_26 
REMARK    5  A    between atoms: N_26  and  C_27 
ROOT
HETATM    1  C   UNL     1       1.856  34.662  61.716  1.00  0.00     0.070 C 
HETATM    2  C   UNL     1       2.981  33.908  61.050  1.00  0.00     0.037 C 
HETATM    3  N   UNL     1       2.661  32.625  60.599  1.00  0.00    -0.192 N 
HETATM    4  C   UNL     1       3.446  31.956  59.729  1.00  0.00     0.726 A 
HETATM    5  N   UNL     1       4.719  32.395  59.515  1.00  0.00    -0.083 N 
HETATM    6  N   UNL     1       5.327  31.710  58.531  1.00  0.00    -0.135 NA
HETATM    7  C   UNL     1       4.372  30.817  58.205  1.00  0.00     0.199 A 
HETATM    8  N   UNL     1       3.203  30.942  58.941  1.00  0.00    -0.041 NA
HETATM    9  C   UNL     1       5.311  33.542  60.204  1.00  0.00     0.202 C 
HETATM   10  C   UNL     1       4.233  34.403  60.858  1.00  0.00     0.062 C 
HETATM   11  H   UNL     1       1.675  32.372  60.625  1.00  0.00     0.184 HD
ENDROOT
BRANCH  10  12
HETATM   12  C   UNL     1       4.525  35.859  61.057  1.00  0.00     0.256 C 
HETATM   13  N   UNL     1       5.204  36.160  62.218  1.00  0.00    -0.323 N 
HETATM   14  H   UNL     1       5.358  35.427  62.897  1.00  0.00     0.169 HD
HETATM   15  O   UNL     1       4.210  36.655  60.180  1.00  0.00    -0.267 OA
BRANCH  13  16
HETATM   16  C   UNL     1       5.746  37.412  62.589  1.00  0.00     0.035 A 
HETATM   17  C   UNL     1       6.534  38.207  61.754  1.00  0.00     0.029 A 
HETATM   18  C   UNL     1       7.051  39.423  62.212  1.00  0.00     0.002 A 
HETATM   19  C   UNL     1       6.792  39.852  63.511  1.00  0.00     0.000 A 
HETATM   20  C   UNL     1       6.007  39.069  64.352  1.00  0.00     0.002 A 
HETATM   21  C   UNL     1       5.482  37.859  63.892  1.00  0.00     0.029 A 
ENDBRANCH  13  16
ENDBRANCH  10  12
BRANCH   9  22
HETATM   22  C   UNL     1       6.367  33.034  61.189  1.00  0.00    -0.025 A 
HETATM   23  C   UNL     1       7.683  32.732  60.783  1.00  0.00     0.046 A 
HETATM   24  C   UNL     1       8.606  32.249  61.708  1.00  0.00     0.066 A 
HETATM   25  C   UNL     1       8.257  32.076  63.039  1.00  0.00     0.036 A 
HETATM   26  C   UNL     1       6.969  32.395  63.461  1.00  0.00     0.003 A 
HETATM   27  C   UNL     1       6.030  32.874  62.544  1.00  0.00     0.010 A 
BRANCH  24  28
HETATM   28  O   UNL     1       9.879  31.931  61.340  1.00  0.00    -0.361 OA
HETATM   29  H   UNL     1       9.902  31.753  60.385  1.00  0.00     0.217 HD
ENDBRANCH  24  28
ENDBRANCH   9  22
BRANCH   7  30
HETATM   30  C   UNL     1       4.522  29.832  57.138  1.00  0.00     0.016 A 
HETATM   31  C   UNL     1       5.304  28.683  57.327  1.00  0.00     0.039 A 
HETATM   32  C   UNL     1       5.459  27.762  56.292  1.00  0.00     0.035 A 
HETATM   33 CL   UNL     1       6.426  26.359  56.537  1.00  0.00    -0.084 Cl
HETATM   34  C   UNL     1       4.843  27.969  55.061  1.00  0.00     0.024 A 
HETATM   35  C   UNL     1       4.061  29.106  54.861  1.00  0.00     0.003 A 
HETATM   36  C   UNL     1       3.900  30.031  55.895  1.00  0.00     0.015 A 
ENDBRANCH   7  30
TORSDOF 5
ENDMDL
MODEL 9
REMARK VINA RESULT:      -9.1      2.603      3.537
REMARK  5 active torsions:
REMARK  status: ('A' for Active; 'I' for Inactive)
REMARK    1  A    between atoms: C_7  and  C_8 
REMARK    2  A    between atoms: C_16  and  C_17 
REMARK    3  A    between atoms: C_19  and  O_20 
REMARK    4  A    between atoms: C_24  and  C_25 
REMARK       I    between atoms: C_25  and  N_26 
REMARK    5  A    between atoms: N_26  and  C_27 
ROOT
HETATM    1  C   UNL     1       3.198  31.060  57.817  1.00  0.00     0.070 C 
HETATM    2  C   UNL     1       4.106  30.363  56.834  1.00  0.00     0.037 C 
HETATM    3  N   UNL     1       3.465  29.746  55.756  1.00  0.00    -0.192 N 
HETATM    4  C   UNL     1       4.137  29.356  54.652  1.00  0.00     0.726 A 
HETATM    5  N   UNL     1       5.497  29.279  54.699  1.00  0.00    -0.083 N 
HETATM    6  N   UNL     1       6.026  29.007  53.493  1.00  0.00    -0.135 NA
HETATM    7  C   UNL     1       4.914  28.881  52.743  1.00  0.00     0.199 A 
HETATM    8  N   UNL     1       3.732  29.081  53.440  1.00  0.00    -0.041 NA
HETATM    9  C   UNL     1       6.287  29.562  55.898  1.00  0.00     0.202 C 
HETATM   10  C   UNL     1       5.462  30.326  56.930  1.00  0.00     0.062 C 
HETATM   11  H   UNL     1       2.472  29.942  55.651  1.00  0.00     0.184 HD
ENDROOT
BRANCH  10  12
HETATM   12  C   UNL     1       6.191  31.215  57.891  1.00  0.00     0.256 C 
HETATM   13  N   UNL     1       6.866  30.553  58.894  1.00  0.00    -0.323 N 
HETATM   14  H   UNL     1       6.741  29.554  58.989  1.00  0.00     0.169 HD
HETATM   15  O   UNL     1       6.194  32.425  57.699  1.00  0.00    -0.267 OA
BRANCH  13  16
HETATM   16  C   UNL     1       7.757  31.114  59.837  1.00  0.00     0.035 A 
HETATM   17  C   UNL     1       9.107  31.369  59.588  1.00  0.00     0.029 A 
HETATM   18  C   UNL     1       9.924  31.905  60.590  1.00  0.00     0.002 A 
HETATM   19  C   UNL     1       9.402  32.180  61.850  1.00  0.00     0.000 A 
HETATM   20  C   UNL     1       8.058  31.930  62.109  1.00  0.00     0.002 A 
HETATM   21  C   UNL     1       7.238  31.406  61.107  1.00  0.00     0.029 A 
ENDBRANCH  13  16
ENDBRANCH  10  12
BRANCH   9  22
HETATM   22  C   UNL     1       6.865  28.247  56.430  1.00  0.00    -0.025 A 
HETATM   23  C   UNL     1       6.052  27.128  56.696  1.00  0.00     0.046 A 
HETATM   24  C   UNL     1       6.616  25.959  57.201  1.00  0.00     0.066 A 
HETATM   25  C   UNL     1       7.981  25.869  57.433  1.00  0.00     0.036 A 
HETATM   26  C   UNL     1       8.802  26.958  57.149  1.00  0.00     0.003 A 
HETATM   27  C   UNL     1       8.250  28.139  56.648  1.00  0.00     0.010 A 
BRANCH  24  28
HETATM   28  O   UNL     1       5.852  24.867  57.487  1.00  0.00    -0.361 OA
HETATM   29  H   UNL     1       6.429  24.129  57.740  1.00  0.00     0.217 HD
ENDBRANCH  24  28
ENDBRANCH   9  22
BRANCH   7  30
HETATM   30  C   UNL     1       4.939  28.610  51.309  1.00  0.00     0.016 A 
HETATM   31  C   UNL     1       4.376  27.433  50.792  1.00  0.00     0.039 A 
HETATM   32  C   UNL     1       4.427  27.174  49.423  1.00  0.00     0.035 A 
HETATM   33 CL   UNL     1       3.738  25.724  48.803  1.00  0.00    -0.084 Cl
HETATM   34  C   UNL     1       5.036  28.075  48.553  1.00  0.00     0.024 A 
HETATM   35  C   UNL     1       5.597  29.249  49.054  1.00  0.00     0.003 A 
HETATM   36  C   UNL     1       5.546  29.515  50.425  1.00  0.00     0.015 A 
ENDBRANCH   7  30
TORSDOF 5
ENDMDL
MODEL 10
REMARK VINA RESULT:      -9.0      4.799      7.374
REMARK  5 active torsions:
REMARK  status: ('A' for Active; 'I' for Inactive)
REMARK    1  A    between atoms: C_7  and  C_8 
REMARK    2  A    between atoms: C_16  and  C_17 
REMARK    3  A    between atoms: C_19  and  O_20 
REMARK    4  A    between atoms: C_24  and  C_25 
REMARK       I    between atoms: C_25  and  N_26 
REMARK    5  A    between atoms: N_26  and  C_27 
ROOT
HETATM    1  C   UNL     1       3.527  30.284  54.008  1.00  0.00     0.070 C 
HETATM    2  C   UNL     1       4.211  30.363  52.665  1.00  0.00     0.037 C 
HETATM    3  N   UNL     1       4.025  31.559  51.965  1.00  0.00    -0.192 N 
HETATM    4  C   UNL     1       4.801  31.903  50.916  1.00  0.00     0.726 A 
HETATM    5  N   UNL     1       5.580  30.949  50.330  1.00  0.00    -0.083 N 
HETATM    6  N   UNL     1       6.390  31.470  49.392  1.00  0.00    -0.135 NA
HETATM    7  C   UNL     1       6.021  32.766  49.418  1.00  0.00     0.199 A 
HETATM    8  N   UNL     1       5.031  33.056  50.346  1.00  0.00    -0.041 NA
HETATM    9  C   UNL     1       5.603  29.548  50.749  1.00  0.00     0.202 C 
HETATM   10  C   UNL     1       4.985  29.379  52.134  1.00  0.00     0.062 C 
HETATM   11  H   UNL     1       3.574  32.314  52.477  1.00  0.00     0.184 HD
ENDROOT
BRANCH  10  12
HETATM   12  C   UNL     1       5.444  28.224  52.970  1.00  0.00     0.256 C 
HETATM   13  N   UNL     1       5.646  27.051  52.277  1.00  0.00    -0.323 N 
HETATM   14  H   UNL     1       5.374  27.006  51.304  1.00  0.00     0.169 HD
HETATM   15  O   UNL     1       5.662  28.402  54.163  1.00  0.00    -0.267 OA
BRANCH  13  16
HETATM   16  C   UNL     1       6.222  25.857  52.769  1.00  0.00     0.035 A 
HETATM   17  C   UNL     1       5.827  25.221  53.948  1.00  0.00     0.029 A 
HETATM   18  C   UNL     1       6.471  24.054  54.374  1.00  0.00     0.002 A 
HETATM   19  C   UNL     1       7.519  23.518  53.631  1.00  0.00     0.000 A 
HETATM   20  C   UNL     1       7.920  24.143  52.454  1.00  0.00     0.002 A 
HETATM   21  C   UNL     1       7.272  25.303  52.022  1.00  0.00     0.029 A 
ENDBRANCH  13  16
ENDBRANCH  10  12
BRANCH   9  22
HETATM   22  C   UNL     1       4.924  28.700  49.669  1.00  0.00    -0.025 A 
HETATM   23  C   UNL     1       3.568  28.326  49.755  1.00  0.00     0.046 A 
HETATM   24  C   UNL     1       2.998  27.534  48.762  1.00  0.00     0.066 A 
HETATM   25  C   UNL     1       3.741  27.117  47.668  1.00  0.00     0.036 A 
HETATM   26  C   UNL     1       5.075  27.501  47.554  1.00  0.00     0.003 A 
HETATM   27  C   UNL     1       5.664  28.289  48.546  1.00  0.00     0.010 A 
BRANCH  24  28
HETATM   28  O   UNL     1       1.694  27.141  48.830  1.00  0.00    -0.361 OA
HETATM   29  H   UNL     1       1.235  27.415  48.019  1.00  0.00     0.217 HD
ENDBRANCH  24  28
ENDBRANCH   9  22
BRANCH   7  30
HETATM   30  C   UNL     1       6.636  33.795  48.585  1.00  0.00     0.016 A 
HETATM   31  C   UNL     1       6.789  33.603  47.204  1.00  0.00     0.039 A 
HETATM   32  C   UNL     1       7.401  34.583  46.423  1.00  0.00     0.035 A 
HETATM   33 CL   UNL     1       7.587  34.331  44.731  1.00  0.00    -0.084 Cl
HETATM   34  C   UNL     1       7.867  35.761  47.001  1.00  0.00     0.024 A 
HETATM   35  C   UNL     1       7.718  35.965  48.373  1.00  0.00     0.003 A 
HETATM   36  C   UNL     1       7.103  34.987  49.159  1.00  0.00     0.015 A 
ENDBRANCH   7  30
TORSDOF 5
ENDMDL
