MODEL 1
REMARK VINA RESULT:     -10.1      0.000      0.000
REMARK  4 active torsions:
REMARK  status: ('A' for Active; 'I' for Inactive)
REMARK    1  A    between atoms: C_5  and  C_6 
REMARK    2  A    between atoms: C_8  and  O_9 
REMARK    3  A    between atoms: C_15  and  C_16 
REMARK       I    between atoms: C_16  and  N_17 
REMARK    4  A    between atoms: N_17  and  C_18 
ROOT
HETATM    1  C   UNL     1       4.454  27.980  56.199  1.00  0.00     0.071 C 
HETATM    2  C   UNL     1       5.782  28.047  56.848  1.00  0.00     0.041 A 
HETATM    3  N   UNL     1       6.305  29.201  57.372  1.00  0.00    -0.342 N 
HETATM    4  H   UNL     1       5.847  30.101  57.392  1.00  0.00     0.167 HD
HETATM    5  C   UNL     1       7.554  28.934  57.884  1.00  0.00     0.139 A 
HETATM    6  N   UNL     1       7.825  27.647  57.753  1.00  0.00    -0.223 NA
HETATM    7  C   UNL     1       6.746  27.083  57.079  1.00  0.00     0.149 A 
ENDROOT
BRANCH   7   8
HETATM    8  C   UNL     1       6.708  25.665  56.695  1.00  0.00     0.276 C 
HETATM    9  N   UNL     1       7.632  25.396  55.707  1.00  0.00    -0.322 N 
HETATM   10  H   UNL     1       8.199  26.200  55.450  1.00  0.00     0.169 HD
HETATM   11  O   UNL     1       5.938  24.868  57.220  1.00  0.00    -0.266 OA
BRANCH   9  12
HETATM   12  C   UNL     1       7.863  24.183  55.035  1.00  0.00     0.035 A 
HETATM   13  C   UNL     1       8.362  23.038  55.662  1.00  0.00     0.039 A 
HETATM   14  C   UNL     1       8.527  21.884  54.908  1.00  0.00    -0.024 A 
HETATM   15  C   UNL     1       8.225  21.854  53.557  1.00  0.00    -0.026 A 
HETATM   16  C   UNL     1       9.031  20.555  55.332  1.00  0.00     0.207 C 
HETATM   17  C   UNL     1       8.528  20.505  53.018  1.00  0.00     0.207 C 
HETATM   18  C   UNL     1       7.741  22.975  52.911  1.00  0.00     0.012 A 
HETATM   19  O   UNL     1       8.818  19.698  54.184  1.00  0.00    -0.382 OA
HETATM   20  C   UNL     1       7.553  24.141  53.661  1.00  0.00     0.030 A 
ENDBRANCH   9  12
ENDBRANCH   7   8
BRANCH   5  21
HETATM   21  C   UNL     1       8.420  29.944  58.497  1.00  0.00     0.013 A 
HETATM   22  C   UNL     1       8.162  30.463  59.778  1.00  0.00     0.052 A 
HETATM   23  C   UNL     1       9.001  31.431  60.339  1.00  0.00     0.069 A 
HETATM   24  C   UNL     1      10.110  31.879  59.618  1.00  0.00     0.037 A 
HETATM   25  C   UNL     1      10.372  31.382  58.342  1.00  0.00     0.004 A 
HETATM   26  C   UNL     1       9.527  30.424  57.784  1.00  0.00     0.015 A 
BRANCH  23  27
HETATM   27  O   UNL     1       8.850  32.011  61.569  1.00  0.00    -0.356 OA
HETATM   28  C   UNL     1       8.243  31.224  62.586  1.00  0.00     0.210 C 
ENDBRANCH  23  27
ENDBRANCH   5  21
TORSDOF 4
ENDMDL
MODEL 2
REMARK VINA RESULT:      -9.8      2.382     10.116
REMARK  4 active torsions:
REMARK  status: ('A' for Active; 'I' for Inactive)
REMARK    1  A    between atoms: C_5  and  C_6 
REMARK    2  A    between atoms: C_8  and  O_9 
REMARK    3  A    between atoms: C_15  and  C_16 
REMARK       I    between atoms: C_16  and  N_17 
REMARK    4  A    between atoms: N_17  and  C_18 
ROOT
HETATM    1  C   UNL     1      10.985  30.684  57.390  1.00  0.00     0.071 C 
HETATM    2  C   UNL     1       9.791  29.863  57.695  1.00  0.00     0.041 A 
HETATM    3  N   UNL     1       9.525  28.667  57.080  1.00  0.00    -0.342 N 
HETATM    4  H   UNL     1      10.106  28.216  56.389  1.00  0.00     0.167 HD
HETATM    5  C   UNL     1       8.340  28.167  57.570  1.00  0.00     0.139 A 
HETATM    6  N   UNL     1       7.869  28.970  58.508  1.00  0.00    -0.223 NA
HETATM    7  C   UNL     1       8.742  30.051  58.577  1.00  0.00     0.149 A 
ENDROOT
BRANCH   7   8
HETATM    8  C   UNL     1       8.518  31.193  59.474  1.00  0.00     0.276 C 
HETATM    9  N   UNL     1       7.851  30.799  60.616  1.00  0.00    -0.322 N 
HETATM   10  H   UNL     1       7.672  29.799  60.659  1.00  0.00     0.169 HD
HETATM   11  O   UNL     1       8.897  32.325  59.196  1.00  0.00    -0.266 OA
BRANCH   9  12
HETATM   12  C   UNL     1       7.402  31.597  61.683  1.00  0.00     0.035 A 
HETATM   13  C   UNL     1       6.088  32.057  61.801  1.00  0.00     0.039 A 
HETATM   14  C   UNL     1       5.745  32.817  62.911  1.00  0.00    -0.024 A 
HETATM   15  C   UNL     1       6.677  33.138  63.883  1.00  0.00    -0.026 A 
HETATM   16  C   UNL     1       4.435  33.416  63.266  1.00  0.00     0.207 C 
HETATM   17  C   UNL     1       6.031  33.977  64.922  1.00  0.00     0.207 C 
HETATM   18  C   UNL     1       7.986  32.705  63.785  1.00  0.00     0.012 A 
HETATM   19  O   UNL     1       4.620  33.940  64.603  1.00  0.00    -0.382 OA
HETATM   20  C   UNL     1       8.342  31.924  62.681  1.00  0.00     0.030 A 
ENDBRANCH   9  12
ENDBRANCH   7   8
BRANCH   5  21
HETATM   21  C   UNL     1       7.730  26.915  57.115  1.00  0.00     0.013 A 
HETATM   22  C   UNL     1       8.349  25.669  57.325  1.00  0.00     0.052 A 
HETATM   23  C   UNL     1       7.749  24.489  56.875  1.00  0.00     0.069 A 
HETATM   24  C   UNL     1       6.518  24.552  56.218  1.00  0.00     0.037 A 
HETATM   25  C   UNL     1       5.899  25.780  55.992  1.00  0.00     0.004 A 
HETATM   26  C   UNL     1       6.506  26.954  56.434  1.00  0.00     0.015 A 
BRANCH  23  27
HETATM   27  O   UNL     1       8.254  23.225  57.017  1.00  0.00    -0.356 OA
HETATM   28  C   UNL     1       8.277  22.402  55.858  1.00  0.00     0.210 C 
ENDBRANCH  23  27
ENDBRANCH   5  21
TORSDOF 4
ENDMDL
MODEL 3
REMARK VINA RESULT:      -9.2      1.726      2.771
REMARK  4 active torsions:
REMARK  status: ('A' for Active; 'I' for Inactive)
REMARK    1  A    between atoms: C_5  and  C_6 
REMARK    2  A    between atoms: C_8  and  O_9 
REMARK    3  A    between atoms: C_15  and  C_16 
REMARK       I    between atoms: C_16  and  N_17 
REMARK    4  A    between atoms: N_17  and  C_18 
ROOT
HETATM    1  C   UNL     1       9.759  29.288  55.441  1.00  0.00     0.071 C 
HETATM    2  C   UNL     1       8.993  29.290  56.707  1.00  0.00     0.041 A 
HETATM    3  N   UNL     1       9.155  30.240  57.682  1.00  0.00    -0.342 N 
HETATM    4  H   UNL     1       9.780  31.032  57.637  1.00  0.00     0.167 HD
HETATM    5  C   UNL     1       8.314  29.950  58.733  1.00  0.00     0.139 A 
HETATM    6  N   UNL     1       7.588  28.885  58.443  1.00  0.00    -0.223 NA
HETATM    7  C   UNL     1       8.019  28.439  57.198  1.00  0.00     0.149 A 
ENDROOT
BRANCH   7   8
HETATM    8  C   UNL     1       7.480  27.229  56.561  1.00  0.00     0.276 C 
HETATM    9  N   UNL     1       8.338  26.160  56.727  1.00  0.00    -0.322 N 
HETATM   10  H   UNL     1       9.157  26.380  57.288  1.00  0.00     0.169 HD
HETATM   11  O   UNL     1       6.403  27.225  55.975  1.00  0.00    -0.266 OA
BRANCH   9  12
HETATM   12  C   UNL     1       8.213  24.855  56.221  1.00  0.00     0.035 A 
HETATM   13  C   UNL     1       7.899  24.572  54.889  1.00  0.00     0.039 A 
HETATM   14  C   UNL     1       7.827  23.245  54.490  1.00  0.00    -0.024 A 
HETATM   15  C   UNL     1       8.041  22.208  55.382  1.00  0.00    -0.026 A 
HETATM   16  C   UNL     1       7.517  22.687  53.151  1.00  0.00     0.207 C 
HETATM   17  C   UNL     1       7.870  20.913  54.679  1.00  0.00     0.207 C 
HETATM   18  C   UNL     1       8.342  22.461  56.708  1.00  0.00     0.012 A 
HETATM   19  O   UNL     1       7.757  21.264  53.280  1.00  0.00    -0.382 OA
HETATM   20  C   UNL     1       8.435  23.793  57.122  1.00  0.00     0.030 A 
ENDBRANCH   9  12
ENDBRANCH   7   8
BRANCH   5  21
HETATM   21  C   UNL     1       8.244  30.739  59.965  1.00  0.00     0.013 A 
HETATM   22  C   UNL     1       7.156  31.587  60.241  1.00  0.00     0.052 A 
HETATM   23  C   UNL     1       7.116  32.335  61.423  1.00  0.00     0.069 A 
HETATM   24  C   UNL     1       8.165  32.229  62.338  1.00  0.00     0.037 A 
HETATM   25  C   UNL     1       9.255  31.402  62.072  1.00  0.00     0.004 A 
HETATM   26  C   UNL     1       9.295  30.666  60.889  1.00  0.00     0.015 A 
BRANCH  23  27
HETATM   27  O   UNL     1       6.118  33.192  61.798  1.00  0.00    -0.356 OA
HETATM   28  C   UNL     1       4.892  32.612  62.226  1.00  0.00     0.210 C 
ENDBRANCH  23  27
ENDBRANCH   5  21
TORSDOF 4
ENDMDL
MODEL 4
REMARK VINA RESULT:      -9.2      2.240      3.782
REMARK  4 active torsions:
REMARK  status: ('A' for Active; 'I' for Inactive)
REMARK    1  A    between atoms: C_5  and  C_6 
REMARK    2  A    between atoms: C_8  and  O_9 
REMARK    3  A    between atoms: C_15  and  C_16 
REMARK       I    between atoms: C_16  and  N_17 
REMARK    4  A    between atoms: N_17  and  C_18 
ROOT
HETATM    1  C   UNL     1      11.003  29.932  57.088  1.00  0.00     0.071 C 
HETATM    2  C   UNL     1       9.767  30.076  57.890  1.00  0.00     0.041 A 
HETATM    3  N   UNL     1       9.656  30.938  58.950  1.00  0.00    -0.342 N 
HETATM    4  H   UNL     1      10.375  31.566  59.278  1.00  0.00     0.167 HD
HETATM    5  C   UNL     1       8.395  30.822  59.490  1.00  0.00     0.139 A 
HETATM    6  N   UNL     1       7.684  29.960  58.784  1.00  0.00    -0.223 NA
HETATM    7  C   UNL     1       8.532  29.459  57.802  1.00  0.00     0.149 A 
ENDROOT
BRANCH   7   8
HETATM    8  C   UNL     1       8.113  28.422  56.849  1.00  0.00     0.276 C 
HETATM    9  N   UNL     1       8.384  27.161  57.341  1.00  0.00    -0.322 N 
HETATM   10  H   UNL     1       8.780  27.166  58.278  1.00  0.00     0.169 HD
HETATM   11  O   UNL     1       7.592  28.696  55.774  1.00  0.00    -0.266 OA
BRANCH   9  12
HETATM   12  C   UNL     1       8.189  25.919  56.713  1.00  0.00     0.035 A 
HETATM   13  C   UNL     1       7.546  25.771  55.481  1.00  0.00     0.039 A 
HETATM   14  C   UNL     1       7.432  24.499  54.938  1.00  0.00    -0.024 A 
HETATM   15  C   UNL     1       7.922  23.385  55.596  1.00  0.00    -0.026 A 
HETATM   16  C   UNL     1       6.802  24.080  53.661  1.00  0.00     0.207 C 
HETATM   17  C   UNL     1       7.630  22.172  54.792  1.00  0.00     0.207 C 
HETATM   18  C   UNL     1       8.553  23.502  56.821  1.00  0.00     0.012 A 
HETATM   19  O   UNL     1       7.133  22.677  53.531  1.00  0.00    -0.382 OA
HETATM   20  C   UNL     1       8.692  24.780  57.373  1.00  0.00     0.030 A 
ENDBRANCH   9  12
ENDBRANCH   7   8
BRANCH   5  21
HETATM   21  C   UNL     1       7.934  31.574  60.659  1.00  0.00     0.013 A 
HETATM   22  C   UNL     1       6.741  32.319  60.639  1.00  0.00     0.052 A 
HETATM   23  C   UNL     1       6.326  33.034  61.767  1.00  0.00     0.069 A 
HETATM   24  C   UNL     1       7.104  32.998  62.926  1.00  0.00     0.037 A 
HETATM   25  C   UNL     1       8.294  32.274  62.958  1.00  0.00     0.004 A 
HETATM   26  C   UNL     1       8.708  31.572  61.827  1.00  0.00     0.015 A 
BRANCH  23  27
HETATM   27  O   UNL     1       5.193  33.794  61.866  1.00  0.00    -0.356 OA
HETATM   28  C   UNL     1       4.512  33.784  63.114  1.00  0.00     0.210 C 
ENDBRANCH  23  27
ENDBRANCH   5  21
TORSDOF 4
ENDMDL
MODEL 5
REMARK VINA RESULT:      -9.1      1.946      2.454
REMARK  4 active torsions:
REMARK  status: ('A' for Active; 'I' for Inactive)
REMARK    1  A    between atoms: C_5  and  C_6 
REMARK    2  A    between atoms: C_8  and  O_9 
REMARK    3  A    between atoms: C_15  and  C_16 
REMARK       I    between atoms: C_16  and  N_17 
REMARK    4  A    between atoms: N_17  and  C_18 
ROOT
HETATM    1  C   UNL     1       6.858  28.176  53.616  1.00  0.00     0.071 C 
HETATM    2  C   UNL     1       6.799  28.292  55.091  1.00  0.00     0.041 A 
HETATM    3  N   UNL     1       6.935  29.482  55.757  1.00  0.00    -0.342 N 
HETATM    4  H   UNL     1       7.066  30.387  55.328  1.00  0.00     0.167 HD
HETATM    5  C   UNL     1       6.850  29.249  57.111  1.00  0.00     0.139 A 
HETATM    6  N   UNL     1       6.613  27.967  57.329  1.00  0.00    -0.223 NA
HETATM    7  C   UNL     1       6.610  27.348  56.084  1.00  0.00     0.149 A 
ENDROOT
BRANCH   7   8
HETATM    8  C   UNL     1       6.434  25.898  55.922  1.00  0.00     0.276 C 
HETATM    9  N   UNL     1       7.653  25.267  55.771  1.00  0.00    -0.322 N 
HETATM   10  H   UNL     1       8.448  25.897  55.840  1.00  0.00     0.169 HD
HETATM   11  O   UNL     1       5.328  25.370  55.931  1.00  0.00    -0.266 OA
BRANCH   9  12
HETATM   12  C   UNL     1       7.906  23.905  55.535  1.00  0.00     0.035 A 
HETATM   13  C   UNL     1       7.838  23.317  54.269  1.00  0.00     0.039 A 
HETATM   14  C   UNL     1       8.134  21.967  54.145  1.00  0.00    -0.024 A 
HETATM   15  C   UNL     1       8.476  21.197  55.244  1.00  0.00    -0.026 A 
HETATM   16  C   UNL     1       8.136  21.118  52.928  1.00  0.00     0.207 C 
HETATM   17  C   UNL     1       8.707  19.798  54.809  1.00  0.00     0.207 C 
HETATM   18  C   UNL     1       8.540  21.751  56.509  1.00  0.00     0.012 A 
HETATM   19  O   UNL     1       8.690  19.852  53.363  1.00  0.00    -0.382 OA
HETATM   20  C   UNL     1       8.261  23.115  56.647  1.00  0.00     0.030 A 
ENDBRANCH   9  12
ENDBRANCH   7   8
BRANCH   5  21
HETATM   21  C   UNL     1       6.983  30.292  58.130  1.00  0.00     0.013 A 
HETATM   22  C   UNL     1       6.023  31.309  58.281  1.00  0.00     0.052 A 
HETATM   23  C   UNL     1       6.177  32.297  59.259  1.00  0.00     0.069 A 
HETATM   24  C   UNL     1       7.293  32.265  60.097  1.00  0.00     0.037 A 
HETATM   25  C   UNL     1       8.258  31.271  59.952  1.00  0.00     0.004 A 
HETATM   26  C   UNL     1       8.105  30.294  58.970  1.00  0.00     0.015 A 
BRANCH  23  27
HETATM   27  O   UNL     1       5.316  33.334  59.496  1.00  0.00    -0.356 OA
HETATM   28  C   UNL     1       3.971  32.999  59.814  1.00  0.00     0.210 C 
ENDBRANCH  23  27
ENDBRANCH   5  21
TORSDOF 4
ENDMDL
MODEL 6
REMARK VINA RESULT:      -8.9      5.463      7.547
REMARK  4 active torsions:
REMARK  status: ('A' for Active; 'I' for Inactive)
REMARK    1  A    between atoms: C_5  and  C_6 
REMARK    2  A    between atoms: C_8  and  O_9 
REMARK    3  A    between atoms: C_15  and  C_16 
REMARK       I    between atoms: C_16  and  N_17 
REMARK    4  A    between atoms: N_17  and  C_18 
ROOT
HETATM    1  C   UNL     1       6.150  28.370  54.384  1.00  0.00     0.071 C 
HETATM    2  C   UNL     1       5.818  28.089  52.969  1.00  0.00     0.041 A 
HETATM    3  N   UNL     1       5.686  29.070  52.021  1.00  0.00    -0.342 N 
HETATM    4  H   UNL     1       5.817  30.060  52.171  1.00  0.00     0.167 HD
HETATM    5  C   UNL     1       5.359  28.485  50.818  1.00  0.00     0.139 A 
HETATM    6  N   UNL     1       5.329  27.171  50.952  1.00  0.00    -0.223 NA
HETATM    7  C   UNL     1       5.580  26.906  52.294  1.00  0.00     0.149 A 
ENDROOT
BRANCH   7   8
HETATM    8  C   UNL     1       5.571  25.544  52.846  1.00  0.00     0.276 C 
HETATM    9  N   UNL     1       6.842  25.152  53.214  1.00  0.00    -0.322 N 
HETATM   10  H   UNL     1       7.545  25.875  53.082  1.00  0.00     0.169 HD
HETATM   11  O   UNL     1       4.541  24.888  52.948  1.00  0.00    -0.266 OA
BRANCH   9  12
HETATM   12  C   UNL     1       7.259  23.910  53.723  1.00  0.00     0.035 A 
HETATM   13  C   UNL     1       7.611  22.825  52.915  1.00  0.00     0.039 A 
HETATM   14  C   UNL     1       8.035  21.652  53.524  1.00  0.00    -0.024 A 
HETATM   15  C   UNL     1       8.098  21.534  54.902  1.00  0.00    -0.026 A 
HETATM   16  C   UNL     1       8.459  20.375  52.899  1.00  0.00     0.207 C 
HETATM   17  C   UNL     1       8.555  20.167  55.256  1.00  0.00     0.207 C 
HETATM   18  C   UNL     1       7.746  22.588  55.723  1.00  0.00     0.012 A 
HETATM   19  O   UNL     1       8.958  19.575  53.999  1.00  0.00    -0.382 OA
HETATM   20  C   UNL     1       7.333  23.783  55.125  1.00  0.00     0.030 A 
ENDBRANCH   9  12
ENDBRANCH   7   8
BRANCH   5  21
HETATM   21  C   UNL     1       5.110  29.237  49.585  1.00  0.00     0.013 A 
HETATM   22  C   UNL     1       5.375  30.615  49.490  1.00  0.00     0.052 A 
HETATM   23  C   UNL     1       5.123  31.310  48.303  1.00  0.00     0.069 A 
HETATM   24  C   UNL     1       4.611  30.623  47.200  1.00  0.00     0.037 A 
HETATM   25  C   UNL     1       4.333  29.260  47.283  1.00  0.00     0.004 A 
HETATM   26  C   UNL     1       4.577  28.573  48.471  1.00  0.00     0.015 A 
BRANCH  23  27
HETATM   27  O   UNL     1       5.335  32.646  48.093  1.00  0.00    -0.356 OA
HETATM   28  C   UNL     1       4.991  33.530  49.152  1.00  0.00     0.210 C 
ENDBRANCH  23  27
ENDBRANCH   5  21
TORSDOF 4
ENDMDL
MODEL 7
REMARK VINA RESULT:      -8.8      2.073      2.694
REMARK  4 active torsions:
REMARK  status: ('A' for Active; 'I' for Inactive)
REMARK    1  A    between atoms: C_5  and  C_6 
REMARK    2  A    between atoms: C_8  and  O_9 
REMARK    3  A    between atoms: C_15  and  C_16 
REMARK       I    between atoms: C_16  and  N_17 
REMARK    4  A    between atoms: N_17  and  C_18 
ROOT
HETATM    1  C   UNL     1       5.216  30.518  55.725  1.00  0.00     0.071 C 
HETATM    2  C   UNL     1       6.266  30.361  56.756  1.00  0.00     0.041 A 
HETATM    3  N   UNL     1       6.281  31.074  57.927  1.00  0.00    -0.342 N 
HETATM    4  H   UNL     1       5.588  31.749  58.217  1.00  0.00     0.167 HD
HETATM    5  C   UNL     1       7.391  30.710  58.656  1.00  0.00     0.139 A 
HETATM    6  N   UNL     1       8.051  29.759  58.021  1.00  0.00    -0.223 NA
HETATM    7  C   UNL     1       7.384  29.550  56.818  1.00  0.00     0.149 A 
ENDROOT
BRANCH   7   8
HETATM    8  C   UNL     1       7.860  28.597  55.806  1.00  0.00     0.276 C 
HETATM    9  N   UNL     1       7.137  27.422  55.856  1.00  0.00    -0.322 N 
HETATM   10  H   UNL     1       6.387  27.435  56.543  1.00  0.00     0.169 HD
HETATM   11  O   UNL     1       8.779  28.863  55.039  1.00  0.00    -0.266 OA
BRANCH   9  12
HETATM   12  C   UNL     1       7.320  26.252  55.099  1.00  0.00     0.035 A 
HETATM   13  C   UNL     1       7.465  24.983  55.665  1.00  0.00     0.039 A 
HETATM   14  C   UNL     1       7.614  23.891  54.822  1.00  0.00    -0.024 A 
HETATM   15  C   UNL     1       7.637  24.037  53.445  1.00  0.00    -0.026 A 
HETATM   16  C   UNL     1       7.783  22.458  55.168  1.00  0.00     0.207 C 
HETATM   17  C   UNL     1       7.836  22.709  52.814  1.00  0.00     0.207 C 
HETATM   18  C   UNL     1       7.505  25.283  52.860  1.00  0.00     0.012 A 
HETATM   19  O   UNL     1       7.710  21.762  53.900  1.00  0.00    -0.382 OA
HETATM   20  C   UNL     1       7.338  26.391  53.696  1.00  0.00     0.030 A 
ENDBRANCH   9  12
ENDBRANCH   7   8
BRANCH   5  21
HETATM   21  C   UNL     1       7.744  31.294  59.953  1.00  0.00     0.013 A 
HETATM   22  C   UNL     1       6.812  32.015  60.720  1.00  0.00     0.052 A 
HETATM   23  C   UNL     1       7.177  32.568  61.952  1.00  0.00     0.069 A 
HETATM   24  C   UNL     1       8.479  32.393  62.424  1.00  0.00     0.037 A 
HETATM   25  C   UNL     1       9.417  31.691  61.670  1.00  0.00     0.004 A 
HETATM   26  C   UNL     1       9.051  31.150  60.438  1.00  0.00     0.015 A 
BRANCH  23  27
HETATM   27  O   UNL     1       6.363  33.290  62.782  1.00  0.00    -0.356 OA
HETATM   28  C   UNL     1       5.424  32.561  63.562  1.00  0.00     0.210 C 
ENDBRANCH  23  27
ENDBRANCH   5  21
TORSDOF 4
ENDMDL
MODEL 8
REMARK VINA RESULT:      -8.8      2.753     10.250
REMARK  4 active torsions:
REMARK  status: ('A' for Active; 'I' for Inactive)
REMARK    1  A    between atoms: C_5  and  C_6 
REMARK    2  A    between atoms: C_8  and  O_9 
REMARK    3  A    between atoms: C_15  and  C_16 
REMARK       I    between atoms: C_16  and  N_17 
REMARK    4  A    between atoms: N_17  and  C_18 
ROOT
HETATM    1  C   UNL     1       5.296  31.768  56.943  1.00  0.00     0.071 C 
HETATM    2  C   UNL     1       6.203  30.642  57.261  1.00  0.00     0.041 A 
HETATM    3  N   UNL     1       6.207  29.462  56.564  1.00  0.00    -0.342 N 
HETATM    4  H   UNL     1       5.626  29.244  55.768  1.00  0.00     0.167 HD
HETATM    5  C   UNL     1       7.147  28.621  57.117  1.00  0.00     0.139 A 
HETATM    6  N   UNL     1       7.775  29.238  58.102  1.00  0.00    -0.223 NA
HETATM    7  C   UNL     1       7.178  30.488  58.229  1.00  0.00     0.149 A 
ENDROOT
BRANCH   7   8
HETATM    8  C   UNL     1       7.572  31.450  59.268  1.00  0.00     0.276 C 
HETATM    9  N   UNL     1       6.832  31.264  60.419  1.00  0.00    -0.322 N 
HETATM   10  H   UNL     1       6.185  30.481  60.365  1.00  0.00     0.169 HD
HETATM   11  O   UNL     1       8.451  32.284  59.086  1.00  0.00    -0.266 OA
BRANCH   9  12
HETATM   12  C   UNL     1       6.866  32.012  61.608  1.00  0.00     0.035 A 
HETATM   13  C   UNL     1       5.853  32.895  61.992  1.00  0.00     0.039 A 
HETATM   14  C   UNL     1       5.977  33.564  63.202  1.00  0.00    -0.024 A 
HETATM   15  C   UNL     1       7.081  33.387  64.017  1.00  0.00    -0.026 A 
HETATM   16  C   UNL     1       5.052  34.540  63.829  1.00  0.00     0.207 C 
HETATM   17  C   UNL     1       6.947  34.248  65.218  1.00  0.00     0.207 C 
HETATM   18  C   UNL     1       8.102  32.527  63.656  1.00  0.00     0.012 A 
HETATM   19  O   UNL     1       5.599  34.768  65.151  1.00  0.00    -0.382 OA
HETATM   20  C   UNL     1       7.985  31.833  62.447  1.00  0.00     0.030 A 
ENDBRANCH   9  12
ENDBRANCH   7   8
BRANCH   5  21
HETATM   21  C   UNL     1       7.403  27.258  56.643  1.00  0.00     0.013 A 
HETATM   22  C   UNL     1       7.109  26.864  55.325  1.00  0.00     0.052 A 
HETATM   23  C   UNL     1       7.359  25.555  54.900  1.00  0.00     0.069 A 
HETATM   24  C   UNL     1       7.912  24.636  55.794  1.00  0.00     0.037 A 
HETATM   25  C   UNL     1       8.198  25.009  57.106  1.00  0.00     0.004 A 
HETATM   26  C   UNL     1       7.938  26.312  57.528  1.00  0.00     0.015 A 
BRANCH  23  27
HETATM   27  O   UNL     1       7.113  25.055  53.650  1.00  0.00    -0.356 OA
HETATM   28  C   UNL     1       5.777  24.663  53.361  1.00  0.00     0.210 C 
ENDBRANCH  23  27
ENDBRANCH   5  21
TORSDOF 4
ENDMDL
MODEL 9
REMARK VINA RESULT:      -8.8      2.244      2.900
REMARK  4 active torsions:
REMARK  status: ('A' for Active; 'I' for Inactive)
REMARK    1  A    between atoms: C_5  and  C_6 
REMARK    2  A    between atoms: C_8  and  O_9 
REMARK    3  A    between atoms: C_15  and  C_16 
REMARK       I    between atoms: C_16  and  N_17 
REMARK    4  A    between atoms: N_17  and  C_18 
ROOT
HETATM    1  C   UNL     1       4.883  28.057  52.567  1.00  0.00     0.071 C 
HETATM    2  C   UNL     1       5.556  28.323  53.858  1.00  0.00     0.041 A 
HETATM    3  N   UNL     1       5.280  29.417  54.637  1.00  0.00    -0.342 N 
HETATM    4  H   UNL     1       4.594  30.129  54.434  1.00  0.00     0.167 HD
HETATM    5  C   UNL     1       6.083  29.381  55.756  1.00  0.00     0.139 A 
HETATM    6  N   UNL     1       6.818  28.283  55.744  1.00  0.00    -0.223 NA
HETATM    7  C   UNL     1       6.528  27.627  54.552  1.00  0.00     0.149 A 
ENDROOT
BRANCH   7   8
HETATM    8  C   UNL     1       7.201  26.383  54.151  1.00  0.00     0.276 C 
HETATM    9  N   UNL     1       6.863  25.345  54.996  1.00  0.00    -0.322 N 
HETATM   10  H   UNL     1       6.187  25.605  55.710  1.00  0.00     0.169 HD
HETATM   11  O   UNL     1       7.951  26.330  53.183  1.00  0.00    -0.266 OA
BRANCH   9  12
HETATM   12  C   UNL     1       7.337  24.022  54.985  1.00  0.00     0.035 A 
HETATM   13  C   UNL     1       7.300  23.200  53.856  1.00  0.00     0.039 A 
HETATM   14  C   UNL     1       7.821  21.917  53.949  1.00  0.00    -0.024 A 
HETATM   15  C   UNL     1       8.355  21.437  55.133  1.00  0.00    -0.026 A 
HETATM   16  C   UNL     1       7.901  20.862  52.908  1.00  0.00     0.207 C 
HETATM   17  C   UNL     1       8.802  20.036  54.936  1.00  0.00     0.207 C 
HETATM   18  C   UNL     1       8.394  22.226  56.267  1.00  0.00     0.012 A 
HETATM   19  O   UNL     1       8.692  19.809  53.512  1.00  0.00    -0.382 OA
HETATM   20  C   UNL     1       7.889  23.528  56.184  1.00  0.00     0.030 A 
ENDBRANCH   9  12
ENDBRANCH   7   8
BRANCH   5  21
HETATM   21  C   UNL     1       6.079  30.412  56.797  1.00  0.00     0.013 A 
HETATM   22  C   UNL     1       6.867  30.297  57.956  1.00  0.00     0.052 A 
HETATM   23  C   UNL     1       6.841  31.293  58.938  1.00  0.00     0.069 A 
HETATM   24  C   UNL     1       6.028  32.414  58.757  1.00  0.00     0.037 A 
HETATM   25  C   UNL     1       5.233  32.536  57.620  1.00  0.00     0.004 A 
HETATM   26  C   UNL     1       5.256  31.536  56.648  1.00  0.00     0.015 A 
BRANCH  23  27
HETATM   27  O   UNL     1       7.556  31.291  60.105  1.00  0.00    -0.356 OA
HETATM   28  C   UNL     1       8.756  30.528  60.127  1.00  0.00     0.210 C 
ENDBRANCH  23  27
ENDBRANCH   5  21
TORSDOF 4
ENDMDL
MODEL 10
REMARK VINA RESULT:      -8.7      5.289      7.642
REMARK  4 active torsions:
REMARK  status: ('A' for Active; 'I' for Inactive)
REMARK    1  A    between atoms: C_5  and  C_6 
REMARK    2  A    between atoms: C_8  and  O_9 
REMARK    3  A    between atoms: C_15  and  C_16 
REMARK       I    between atoms: C_16  and  N_17 
REMARK    4  A    between atoms: N_17  and  C_18 
ROOT
HETATM    1  C   UNL     1       6.428  28.357  54.729  1.00  0.00     0.071 C 
HETATM    2  C   UNL     1       5.942  28.203  53.339  1.00  0.00     0.041 A 
HETATM    3  N   UNL     1       5.754  29.261  52.487  1.00  0.00    -0.342 N 
HETATM    4  H   UNL     1       5.940  30.231  52.699  1.00  0.00     0.167 HD
HETATM    5  C   UNL     1       5.282  28.787  51.284  1.00  0.00     0.139 A 
HETATM    6  N   UNL     1       5.212  27.468  51.320  1.00  0.00    -0.223 NA
HETATM    7  C   UNL     1       5.588  27.087  52.604  1.00  0.00     0.149 A 
ENDROOT
BRANCH   7   8
HETATM    8  C   UNL     1       5.579  25.686  53.047  1.00  0.00     0.276 C 
HETATM    9  N   UNL     1       6.841  25.284  53.436  1.00  0.00    -0.322 N 
HETATM   10  H   UNL     1       7.536  26.025  53.390  1.00  0.00     0.169 HD
HETATM   11  O   UNL     1       4.557  25.009  53.053  1.00  0.00    -0.266 OA
BRANCH   9  12
HETATM   12  C   UNL     1       7.258  24.012  53.863  1.00  0.00     0.035 A 
HETATM   13  C   UNL     1       7.547  22.961  52.989  1.00  0.00     0.039 A 
HETATM   14  C   UNL     1       7.977  21.752  53.519  1.00  0.00    -0.024 A 
HETATM   15  C   UNL     1       8.106  21.566  54.885  1.00  0.00    -0.026 A 
HETATM   16  C   UNL     1       8.344  20.500  52.814  1.00  0.00     0.207 C 
HETATM   17  C   UNL     1       8.553  20.177  55.150  1.00  0.00     0.207 C 
HETATM   18  C   UNL     1       7.816  22.586  55.772  1.00  0.00     0.012 A 
HETATM   19  O   UNL     1       8.881  19.639  53.848  1.00  0.00    -0.382 OA
HETATM   20  C   UNL     1       7.398  23.815  55.253  1.00  0.00     0.030 A 
ENDBRANCH   9  12
ENDBRANCH   7   8
BRANCH   5  21
HETATM   21  C   UNL     1       4.940  29.644  50.146  1.00  0.00     0.013 A 
HETATM   22  C   UNL     1       3.727  29.501  49.449  1.00  0.00     0.052 A 
HETATM   23  C   UNL     1       3.428  30.328  48.361  1.00  0.00     0.069 A 
HETATM   24  C   UNL     1       4.343  31.309  47.972  1.00  0.00     0.037 A 
HETATM   25  C   UNL     1       5.553  31.454  48.646  1.00  0.00     0.004 A 
HETATM   26  C   UNL     1       5.852  30.621  49.723  1.00  0.00     0.015 A 
BRANCH  23  27
HETATM   27  O   UNL     1       2.287  30.282  47.606  1.00  0.00    -0.356 OA
HETATM   28  C   UNL     1       2.056  29.098  46.853  1.00  0.00     0.210 C 
ENDBRANCH  23  27
ENDBRANCH   5  21
TORSDOF 4
ENDMDL
