MODEL 1
REMARK VINA RESULT:      -9.5      0.000      0.000
REMARK  2 active torsions:
REMARK  status: ('A' for Active; 'I' for Inactive)
REMARK    1  A    between atoms: C_9  and  O_10 
REMARK    2  A    between atoms: C_9  and  C_11 
ROOT
HETATM    1  C   UNL     1       8.039  28.760  58.014  1.00  0.00     0.048 C 
HETATM    2  C   UNL     1       7.136  28.077  57.028  1.00  0.00    -0.061 A 
HETATM    3  C   UNL     1       7.637  27.084  56.173  1.00  0.00     0.020 A 
HETATM    4  C   UNL     1       6.762  26.461  55.291  1.00  0.00     0.018 A 
HETATM    5  C   UNL     1       5.420  26.839  55.250  1.00  0.00     0.045 A 
HETATM    6  N   UNL     1       4.737  26.107  54.291  1.00  0.00    -0.323 N 
HETATM    7  C   UNL     1       5.580  25.201  53.644  1.00  0.00     0.266 A 
HETATM    8  O   UNL     1       5.221  24.456  52.744  1.00  0.00    -0.269 OA
HETATM    9  C   UNL     1       7.021  25.383  54.258  1.00  0.00     0.198 A 
HETATM   10  C   UNL     1       4.898  27.818  56.068  1.00  0.00     0.031 A 
HETATM   11  C   UNL     1       5.772  28.439  56.965  1.00  0.00     0.009 A 
HETATM   12  H   UNL     1       3.757  26.189  54.067  1.00  0.00     0.169 HD
ENDROOT
BRANCH   9  13
HETATM   13  O   UNL     1       7.946  25.853  53.289  1.00  0.00    -0.371 OA
HETATM   14  H   UNL     1       7.757  26.797  53.164  1.00  0.00     0.212 HD
ENDBRANCH   9  13
BRANCH   9  15
HETATM   15  C   UNL     1       7.490  24.170  55.024  1.00  0.00     0.018 A 
HETATM   16  C   UNL     1       7.806  22.869  54.486  1.00  0.00     0.002 A 
HETATM   17  C   UNL     1       8.216  22.057  55.546  1.00  0.00     0.043 A 
HETATM   18  C   UNL     1       7.786  22.304  53.192  1.00  0.00     0.014 A 
HETATM   19  C   UNL     1       8.601  20.721  55.377  1.00  0.00     0.030 A 
HETATM   20  N   UNL     1       8.151  22.818  56.686  1.00  0.00    -0.365 N 
HETATM   21  C   UNL     1       8.570  20.192  54.085  1.00  0.00     0.002 A 
HETATM   22  C   UNL     1       8.169  20.971  53.005  1.00  0.00     0.001 A 
HETATM   23  H   UNL     1       8.386  22.484  57.611  1.00  0.00     0.165 HD
HETATM   24  C   UNL     1       7.727  24.083  56.389  1.00  0.00     0.100 A 
ENDBRANCH   9  15
TORSDOF 2
ENDMDL
MODEL 2
REMARK VINA RESULT:      -9.4      2.274      3.550
REMARK  2 active torsions:
REMARK  status: ('A' for Active; 'I' for Inactive)
REMARK    1  A    between atoms: C_9  and  O_10 
REMARK    2  A    between atoms: C_9  and  C_11 
ROOT
HETATM    1  C   UNL     1      11.257  29.681  57.132  1.00  0.00     0.048 C 
HETATM    2  C   UNL     1       9.767  29.579  57.288  1.00  0.00    -0.061 A 
HETATM    3  C   UNL     1       8.997  28.888  56.340  1.00  0.00     0.020 A 
HETATM    4  C   UNL     1       7.625  28.798  56.534  1.00  0.00     0.018 A 
HETATM    5  C   UNL     1       7.031  29.405  57.642  1.00  0.00     0.045 A 
HETATM    6  N   UNL     1       5.659  29.208  57.629  1.00  0.00    -0.323 N 
HETATM    7  C   UNL     1       5.261  28.459  56.519  1.00  0.00     0.266 A 
HETATM    8  O   UNL     1       4.101  28.169  56.270  1.00  0.00    -0.269 OA
HETATM    9  C   UNL     1       6.559  28.139  55.682  1.00  0.00     0.198 A 
HETATM   10  C   UNL     1       7.757  30.099  58.586  1.00  0.00     0.031 A 
HETATM   11  C   UNL     1       9.139  30.182  58.401  1.00  0.00     0.009 A 
HETATM   12  H   UNL     1       5.004  29.543  58.318  1.00  0.00     0.169 HD
ENDROOT
BRANCH   9  13
HETATM   13  O   UNL     1       6.518  28.750  54.400  1.00  0.00    -0.371 OA
HETATM   14  H   UNL     1       5.787  29.387  54.423  1.00  0.00     0.212 HD
ENDBRANCH   9  13
BRANCH   9  15
HETATM   15  C   UNL     1       6.892  26.667  55.655  1.00  0.00     0.018 A 
HETATM   16  C   UNL     1       7.268  25.880  54.506  1.00  0.00     0.002 A 
HETATM   17  C   UNL     1       7.504  24.575  54.941  1.00  0.00     0.043 A 
HETATM   18  C   UNL     1       7.435  26.157  53.131  1.00  0.00     0.014 A 
HETATM   19  C   UNL     1       7.892  23.542  54.078  1.00  0.00     0.030 A 
HETATM   20  N   UNL     1       7.279  24.554  56.295  1.00  0.00    -0.365 N 
HETATM   21  C   UNL     1       8.048  23.848  52.724  1.00  0.00     0.002 A 
HETATM   22  C   UNL     1       7.823  25.138  52.254  1.00  0.00     0.001 A 
HETATM   23  H   UNL     1       7.368  23.732  56.876  1.00  0.00     0.165 HD
HETATM   24  C   UNL     1       6.921  25.797  56.736  1.00  0.00     0.100 A 
ENDBRANCH   9  15
TORSDOF 2
ENDMDL
MODEL 3
REMARK VINA RESULT:      -8.9      2.116      3.190
REMARK  2 active torsions:
REMARK  status: ('A' for Active; 'I' for Inactive)
REMARK    1  A    between atoms: C_9  and  O_10 
REMARK    2  A    between atoms: C_9  and  C_11 
ROOT
HETATM    1  C   UNL     1       4.041  28.585  53.841  1.00  0.00     0.048 C 
HETATM    2  C   UNL     1       5.185  28.165  54.719  1.00  0.00    -0.061 A 
HETATM    3  C   UNL     1       5.434  26.806  54.963  1.00  0.00     0.020 A 
HETATM    4  C   UNL     1       6.516  26.460  55.761  1.00  0.00     0.018 A 
HETATM    5  C   UNL     1       7.321  27.452  56.322  1.00  0.00     0.045 A 
HETATM    6  N   UNL     1       8.324  26.888  57.094  1.00  0.00    -0.323 N 
HETATM    7  C   UNL     1       8.250  25.494  57.089  1.00  0.00     0.266 A 
HETATM    8  O   UNL     1       9.009  24.766  57.711  1.00  0.00    -0.269 OA
HETATM    9  C   UNL     1       7.008  25.095  56.201  1.00  0.00     0.198 A 
HETATM   10  C   UNL     1       7.097  28.796  56.111  1.00  0.00     0.031 A 
HETATM   11  C   UNL     1       6.017  29.149  55.299  1.00  0.00     0.009 A 
HETATM   12  H   UNL     1       9.036  27.390  57.602  1.00  0.00     0.169 HD
ENDROOT
BRANCH   9  13
HETATM   13  O   UNL     1       6.006  24.443  56.967  1.00  0.00    -0.371 OA
HETATM   14  H   UNL     1       6.105  23.493  56.797  1.00  0.00     0.212 HD
ENDBRANCH   9  13
BRANCH   9  15
HETATM   15  C   UNL     1       7.399  24.362  54.941  1.00  0.00     0.018 A 
HETATM   16  C   UNL     1       7.645  22.949  54.796  1.00  0.00     0.002 A 
HETATM   17  C   UNL     1       7.959  22.704  53.458  1.00  0.00     0.043 A 
HETATM   18  C   UNL     1       7.626  21.848  55.681  1.00  0.00     0.014 A 
HETATM   19  C   UNL     1       8.254  21.427  52.965  1.00  0.00     0.030 A 
HETATM   20  N   UNL     1       7.915  23.911  52.806  1.00  0.00    -0.365 N 
HETATM   21  C   UNL     1       8.227  20.359  53.865  1.00  0.00     0.002 A 
HETATM   22  C   UNL     1       7.917  20.564  55.205  1.00  0.00     0.001 A 
HETATM   23  H   UNL     1       8.108  24.037  51.822  1.00  0.00     0.165 HD
HETATM   24  C   UNL     1       7.575  24.909  53.676  1.00  0.00     0.100 A 
ENDBRANCH   9  15
TORSDOF 2
ENDMDL
MODEL 4
REMARK VINA RESULT:      -8.9      2.146      5.868
REMARK  2 active torsions:
REMARK  status: ('A' for Active; 'I' for Inactive)
REMARK    1  A    between atoms: C_9  and  O_10 
REMARK    2  A    between atoms: C_9  and  C_11 
ROOT
HETATM    1  C   UNL     1       8.102  22.515  56.438  1.00  0.00     0.048 C 
HETATM    2  C   UNL     1       7.803  23.196  55.134  1.00  0.00    -0.061 A 
HETATM    3  C   UNL     1       7.043  24.375  55.103  1.00  0.00     0.020 A 
HETATM    4  C   UNL     1       6.809  24.985  53.877  1.00  0.00     0.018 A 
HETATM    5  C   UNL     1       7.305  24.416  52.704  1.00  0.00     0.045 A 
HETATM    6  N   UNL     1       6.939  25.174  51.603  1.00  0.00    -0.323 N 
HETATM    7  C   UNL     1       6.185  26.288  51.977  1.00  0.00     0.266 A 
HETATM    8  O   UNL     1       5.726  27.100  51.187  1.00  0.00    -0.269 OA
HETATM    9  C   UNL     1       6.022  26.237  53.544  1.00  0.00     0.198 A 
HETATM   10  C   UNL     1       8.045  23.254  52.698  1.00  0.00     0.031 A 
HETATM   11  C   UNL     1       8.294  22.643  53.929  1.00  0.00     0.009 A 
HETATM   12  H   UNL     1       7.175  24.978  50.642  1.00  0.00     0.169 HD
ENDROOT
BRANCH   9  13
HETATM   13  O   UNL     1       4.664  26.070  53.924  1.00  0.00    -0.371 OA
HETATM   14  H   UNL     1       4.279  25.438  53.296  1.00  0.00     0.212 HD
ENDBRANCH   9  13
BRANCH   9  15
HETATM   15  C   UNL     1       6.725  27.374  54.245  1.00  0.00     0.018 A 
HETATM   16  C   UNL     1       6.281  28.079  55.423  1.00  0.00     0.002 A 
HETATM   17  C   UNL     1       7.245  29.039  55.735  1.00  0.00     0.043 A 
HETATM   18  C   UNL     1       5.147  27.987  56.260  1.00  0.00     0.014 A 
HETATM   19  C   UNL     1       7.132  29.906  56.830  1.00  0.00     0.030 A 
HETATM   20  N   UNL     1       8.236  28.938  54.791  1.00  0.00    -0.365 N 
HETATM   21  C   UNL     1       5.998  29.790  57.638  1.00  0.00     0.002 A 
HETATM   22  C   UNL     1       5.018  28.844  57.359  1.00  0.00     0.001 A 
HETATM   23  H   UNL     1       9.063  29.519  54.765  1.00  0.00     0.165 HD
HETATM   24  C   UNL     1       7.944  27.943  53.900  1.00  0.00     0.100 A 
ENDBRANCH   9  15
TORSDOF 2
ENDMDL
MODEL 5
REMARK VINA RESULT:      -8.7      3.395      5.287
REMARK  2 active torsions:
REMARK  status: ('A' for Active; 'I' for Inactive)
REMARK    1  A    between atoms: C_9  and  O_10 
REMARK    2  A    between atoms: C_9  and  C_11 
ROOT
HETATM    1  C   UNL     1       4.169  25.997  47.761  1.00  0.00     0.048 C 
HETATM    2  C   UNL     1       4.615  26.849  48.914  1.00  0.00    -0.061 A 
HETATM    3  C   UNL     1       4.697  26.311  50.207  1.00  0.00     0.020 A 
HETATM    4  C   UNL     1       5.137  27.127  51.242  1.00  0.00     0.018 A 
HETATM    5  C   UNL     1       5.466  28.459  50.993  1.00  0.00     0.045 A 
HETATM    6  N   UNL     1       5.859  29.091  52.162  1.00  0.00    -0.323 N 
HETATM    7  C   UNL     1       5.817  28.219  53.253  1.00  0.00     0.266 A 
HETATM    8  O   UNL     1       6.097  28.542  54.398  1.00  0.00    -0.269 OA
HETATM    9  C   UNL     1       5.307  26.826  52.717  1.00  0.00     0.198 A 
HETATM   10  C   UNL     1       5.387  29.022  49.737  1.00  0.00     0.031 A 
HETATM   11  C   UNL     1       4.957  28.202  48.691  1.00  0.00     0.009 A 
HETATM   12  H   UNL     1       6.148  30.053  52.250  1.00  0.00     0.169 HD
ENDROOT
BRANCH   9  13
HETATM   13  O   UNL     1       4.055  26.474  53.287  1.00  0.00    -0.371 OA
HETATM   14  H   UNL     1       3.752  27.249  53.785  1.00  0.00     0.212 HD
ENDBRANCH   9  13
BRANCH   9  15
HETATM   15  C   UNL     1       6.355  25.743  52.807  1.00  0.00     0.018 A 
HETATM   16  C   UNL     1       6.722  24.982  53.976  1.00  0.00     0.002 A 
HETATM   17  C   UNL     1       7.718  24.078  53.601  1.00  0.00     0.043 A 
HETATM   18  C   UNL     1       6.296  24.973  55.323  1.00  0.00     0.014 A 
HETATM   19  C   UNL     1       8.306  23.176  54.498  1.00  0.00     0.030 A 
HETATM   20  N   UNL     1       7.960  24.275  52.265  1.00  0.00    -0.365 N 
HETATM   21  C   UNL     1       7.863  23.193  55.823  1.00  0.00     0.002 A 
HETATM   22  C   UNL     1       6.872  24.078  56.232  1.00  0.00     0.001 A 
HETATM   23  H   UNL     1       8.643  23.760  51.725  1.00  0.00     0.165 HD
HETATM   24  C   UNL     1       7.149  25.260  51.775  1.00  0.00     0.100 A 
ENDBRANCH   9  15
TORSDOF 2
ENDMDL
MODEL 6
REMARK VINA RESULT:      -8.6      2.231      5.615
REMARK  2 active torsions:
REMARK  status: ('A' for Active; 'I' for Inactive)
REMARK    1  A    between atoms: C_9  and  O_10 
REMARK    2  A    between atoms: C_9  and  C_11 
ROOT
HETATM    1  C   UNL     1       7.746  22.101  55.205  1.00  0.00     0.048 C 
HETATM    2  C   UNL     1       7.510  23.374  54.445  1.00  0.00    -0.061 A 
HETATM    3  C   UNL     1       6.832  24.446  55.044  1.00  0.00     0.020 A 
HETATM    4  C   UNL     1       6.655  25.614  54.313  1.00  0.00     0.018 A 
HETATM    5  C   UNL     1       7.127  25.701  53.004  1.00  0.00     0.045 A 
HETATM    6  N   UNL     1       6.828  26.940  52.459  1.00  0.00    -0.323 N 
HETATM    7  C   UNL     1       6.145  27.747  53.370  1.00  0.00     0.266 A 
HETATM    8  O   UNL     1       5.751  28.877  53.122  1.00  0.00    -0.269 OA
HETATM    9  C   UNL     1       5.958  26.906  54.691  1.00  0.00     0.198 A 
HETATM   10  C   UNL     1       7.788  24.663  52.382  1.00  0.00     0.031 A 
HETATM   11  C   UNL     1       7.979  23.491  53.117  1.00  0.00     0.009 A 
HETATM   12  H   UNL     1       7.062  27.252  51.529  1.00  0.00     0.169 HD
ENDROOT
BRANCH   9  13
HETATM   13  O   UNL     1       4.587  26.655  54.962  1.00  0.00    -0.371 OA
HETATM   14  H   UNL     1       4.544  26.310  55.867  1.00  0.00     0.212 HD
ENDBRANCH   9  13
BRANCH   9  15
HETATM   15  C   UNL     1       6.726  27.471  55.861  1.00  0.00     0.018 A 
HETATM   16  C   UNL     1       7.950  28.232  55.814  1.00  0.00     0.002 A 
HETATM   17  C   UNL     1       8.296  28.568  57.124  1.00  0.00     0.043 A 
HETATM   18  C   UNL     1       8.799  28.674  54.774  1.00  0.00     0.014 A 
HETATM   19  C   UNL     1       9.438  29.313  57.445  1.00  0.00     0.030 A 
HETATM   20  N   UNL     1       7.334  28.034  57.945  1.00  0.00    -0.365 N 
HETATM   21  C   UNL     1      10.257  29.734  56.394  1.00  0.00     0.002 A 
HETATM   22  C   UNL     1       9.944  29.420  55.076  1.00  0.00     0.001 A 
HETATM   23  H   UNL     1       7.333  28.115  58.952  1.00  0.00     0.165 HD
HETATM   24  C   UNL     1       6.386  27.384  57.205  1.00  0.00     0.100 A 
ENDBRANCH   9  15
TORSDOF 2
ENDMDL
MODEL 7
REMARK VINA RESULT:      -8.4     10.379     12.883
REMARK  2 active torsions:
REMARK  status: ('A' for Active; 'I' for Inactive)
REMARK    1  A    between atoms: C_9  and  O_10 
REMARK    2  A    between atoms: C_9  and  C_11 
ROOT
HETATM    1  C   UNL     1       6.914  38.730  61.526  1.00  0.00     0.048 C 
HETATM    2  C   UNL     1       5.987  37.867  62.333  1.00  0.00    -0.061 A 
HETATM    3  C   UNL     1       5.318  36.788  61.738  1.00  0.00     0.020 A 
HETATM    4  C   UNL     1       4.488  36.001  62.526  1.00  0.00     0.018 A 
HETATM    5  C   UNL     1       4.314  36.301  63.878  1.00  0.00     0.045 A 
HETATM    6  N   UNL     1       3.434  35.406  64.466  1.00  0.00    -0.323 N 
HETATM    7  C   UNL     1       2.977  34.460  63.546  1.00  0.00     0.266 A 
HETATM    8  O   UNL     1       2.177  33.576  63.814  1.00  0.00    -0.269 OA
HETATM    9  C   UNL     1       3.641  34.801  62.157  1.00  0.00     0.198 A 
HETATM   10  C   UNL     1       4.947  37.360  64.492  1.00  0.00     0.031 A 
HETATM   11  C   UNL     1       5.793  38.146  63.705  1.00  0.00     0.009 A 
HETATM   12  H   UNL     1       3.144  35.405  65.432  1.00  0.00     0.169 HD
ENDROOT
BRANCH   9  13
HETATM   13  O   UNL     1       2.669  35.173  61.191  1.00  0.00    -0.371 OA
HETATM   14  H   UNL     1       1.898  35.495  61.686  1.00  0.00     0.212 HD
ENDBRANCH   9  13
BRANCH   9  15
HETATM   15  C   UNL     1       4.602  33.735  61.688  1.00  0.00     0.018 A 
HETATM   16  C   UNL     1       5.810  33.302  62.345  1.00  0.00     0.002 A 
HETATM   17  C   UNL     1       6.376  32.286  61.572  1.00  0.00     0.043 A 
HETATM   18  C   UNL     1       6.477  33.677  63.533  1.00  0.00     0.014 A 
HETATM   19  C   UNL     1       7.565  31.634  61.923  1.00  0.00     0.030 A 
HETATM   20  N   UNL     1       5.559  32.104  60.485  1.00  0.00    -0.365 N 
HETATM   21  C   UNL     1       8.201  32.028  63.103  1.00  0.00     0.002 A 
HETATM   22  C   UNL     1       7.666  33.036  63.899  1.00  0.00     0.001 A 
HETATM   23  H   UNL     1       5.729  31.431  59.749  1.00  0.00     0.165 HD
HETATM   24  C   UNL     1       4.492  32.956  60.544  1.00  0.00     0.100 A 
ENDBRANCH   9  15
TORSDOF 2
ENDMDL
MODEL 8
REMARK VINA RESULT:      -8.4      9.162     11.338
REMARK  2 active torsions:
REMARK  status: ('A' for Active; 'I' for Inactive)
REMARK    1  A    between atoms: C_9  and  O_10 
REMARK    2  A    between atoms: C_9  and  C_11 
ROOT
HETATM    1  C   UNL     1       4.976  37.851  61.641  1.00  0.00     0.048 C 
HETATM    2  C   UNL     1       5.027  36.526  62.346  1.00  0.00    -0.061 A 
HETATM    3  C   UNL     1       4.729  35.341  61.658  1.00  0.00     0.020 A 
HETATM    4  C   UNL     1       4.811  34.134  62.342  1.00  0.00     0.018 A 
HETATM    5  C   UNL     1       5.163  34.115  63.692  1.00  0.00     0.045 A 
HETATM    6  N   UNL     1       5.164  32.817  64.177  1.00  0.00    -0.323 N 
HETATM    7  C   UNL     1       4.819  31.899  63.182  1.00  0.00     0.266 A 
HETATM    8  O   UNL     1       4.729  30.694  63.365  1.00  0.00    -0.269 OA
HETATM    9  C   UNL     1       4.535  32.722  61.867  1.00  0.00     0.198 A 
HETATM   10  C   UNL     1       5.452  35.262  64.400  1.00  0.00     0.031 A 
HETATM   11  C   UNL     1       5.382  36.476  63.713  1.00  0.00     0.009 A 
HETATM   12  H   UNL     1       5.386  32.535  65.119  1.00  0.00     0.169 HD
ENDROOT
BRANCH   9  13
HETATM   13  O   UNL     1       3.179  32.604  61.460  1.00  0.00    -0.371 OA
HETATM   14  H   UNL     1       3.110  31.768  60.973  1.00  0.00     0.212 HD
ENDBRANCH   9  13
BRANCH   9  15
HETATM   15  C   UNL     1       5.536  32.443  60.772  1.00  0.00     0.018 A 
HETATM   16  C   UNL     1       6.962  32.286  60.915  1.00  0.00     0.002 A 
HETATM   17  C   UNL     1       7.492  32.021  59.651  1.00  0.00     0.043 A 
HETATM   18  C   UNL     1       7.857  32.339  62.007  1.00  0.00     0.014 A 
HETATM   19  C   UNL     1       8.859  31.812  59.425  1.00  0.00     0.030 A 
HETATM   20  N   UNL     1       6.443  32.021  58.766  1.00  0.00    -0.365 N 
HETATM   21  C   UNL     1       9.717  31.872  60.526  1.00  0.00     0.002 A 
HETATM   22  C   UNL     1       9.225  32.132  61.801  1.00  0.00     0.001 A 
HETATM   23  H   UNL     1       6.534  31.862  57.771  1.00  0.00     0.165 HD
HETATM   24  C   UNL     1       5.268  32.263  59.421  1.00  0.00     0.100 A 
ENDBRANCH   9  15
TORSDOF 2
ENDMDL
MODEL 9
REMARK VINA RESULT:      -8.4      2.243      5.732
REMARK  2 active torsions:
REMARK  status: ('A' for Active; 'I' for Inactive)
REMARK    1  A    between atoms: C_9  and  O_10 
REMARK    2  A    between atoms: C_9  and  C_11 
ROOT
HETATM    1  C   UNL     1       8.334  20.295  52.733  1.00  0.00     0.048 C 
HETATM    2  C   UNL     1       8.353  20.912  54.102  1.00  0.00    -0.061 A 
HETATM    3  C   UNL     1       8.314  22.305  54.255  1.00  0.00     0.020 A 
HETATM    4  C   UNL     1       8.310  22.834  55.540  1.00  0.00     0.018 A 
HETATM    5  C   UNL     1       8.364  21.988  56.648  1.00  0.00     0.045 A 
HETATM    6  N   UNL     1       8.369  22.722  57.823  1.00  0.00    -0.323 N 
HETATM    7  C   UNL     1       8.314  24.094  57.568  1.00  0.00     0.266 A 
HETATM    8  O   UNL     1       8.328  24.953  58.438  1.00  0.00    -0.269 OA
HETATM    9  C   UNL     1       8.288  24.278  56.002  1.00  0.00     0.198 A 
HETATM   10  C   UNL     1       8.413  20.615  56.532  1.00  0.00     0.031 A 
HETATM   11  C   UNL     1       8.406  20.078  55.242  1.00  0.00     0.009 A 
HETATM   12  H   UNL     1       8.402  22.347  58.758  1.00  0.00     0.169 HD
ENDROOT
BRANCH   9  13
HETATM   13  O   UNL     1       9.448  24.952  55.535  1.00  0.00    -0.371 OA
HETATM   14  H   UNL     1      10.091  24.264  55.303  1.00  0.00     0.212 HD
ENDBRANCH   9  13
BRANCH   9  15
HETATM   15  C   UNL     1       6.990  24.861  55.500  1.00  0.00     0.018 A 
HETATM   16  C   UNL     1       6.664  25.223  54.143  1.00  0.00     0.002 A 
HETATM   17  C   UNL     1       5.353  25.704  54.131  1.00  0.00     0.043 A 
HETATM   18  C   UNL     1       7.363  25.182  52.915  1.00  0.00     0.014 A 
HETATM   19  C   UNL     1       4.713  26.145  52.966  1.00  0.00     0.030 A 
HETATM   20  N   UNL     1       4.892  25.648  55.422  1.00  0.00    -0.365 N 
HETATM   21  C   UNL     1       5.431  26.092  51.768  1.00  0.00     0.002 A 
HETATM   22  C   UNL     1       6.738  25.618  51.741  1.00  0.00     0.001 A 
HETATM   23  H   UNL     1       3.969  25.942  55.713  1.00  0.00     0.165 HD
HETATM   24  C   UNL     1       5.854  25.140  56.249  1.00  0.00     0.100 A 
ENDBRANCH   9  15
TORSDOF 2
ENDMDL
MODEL 10
REMARK VINA RESULT:      -8.3      2.385      5.976
REMARK  2 active torsions:
REMARK  status: ('A' for Active; 'I' for Inactive)
REMARK    1  A    between atoms: C_9  and  O_10 
REMARK    2  A    between atoms: C_9  and  C_11 
ROOT
HETATM    1  C   UNL     1       7.608  22.977  52.914  1.00  0.00     0.048 C 
HETATM    2  C   UNL     1       7.703  23.704  54.224  1.00  0.00    -0.061 A 
HETATM    3  C   UNL     1       7.532  25.095  54.281  1.00  0.00     0.020 A 
HETATM    4  C   UNL     1       7.605  25.725  55.517  1.00  0.00     0.018 A 
HETATM    5  C   UNL     1       7.865  24.983  56.669  1.00  0.00     0.045 A 
HETATM    6  N   UNL     1       7.914  25.809  57.781  1.00  0.00    -0.323 N 
HETATM    7  C   UNL     1       7.686  27.143  57.436  1.00  0.00     0.266 A 
HETATM    8  O   UNL     1       7.698  28.068  58.235  1.00  0.00    -0.269 OA
HETATM    9  C   UNL     1       7.477  27.192  55.874  1.00  0.00     0.198 A 
HETATM   10  C   UNL     1       8.049  23.617  56.647  1.00  0.00     0.031 A 
HETATM   11  C   UNL     1       7.964  22.977  55.408  1.00  0.00     0.009 A 
HETATM   12  H   UNL     1       8.084  25.518  58.731  1.00  0.00     0.169 HD
ENDROOT
BRANCH   9  13
HETATM   13  O   UNL     1       8.503  27.937  55.233  1.00  0.00    -0.371 OA
HETATM   14  H   UNL     1       8.407  27.774  54.281  1.00  0.00     0.212 HD
ENDBRANCH   9  13
BRANCH   9  15
HETATM   15  C   UNL     1       6.078  27.601  55.481  1.00  0.00     0.018 A 
HETATM   16  C   UNL     1       5.630  28.035  54.181  1.00  0.00     0.002 A 
HETATM   17  C   UNL     1       4.261  28.293  54.264  1.00  0.00     0.043 A 
HETATM   18  C   UNL     1       6.263  28.228  52.932  1.00  0.00     0.014 A 
HETATM   19  C   UNL     1       3.500  28.734  53.174  1.00  0.00     0.030 A 
HETATM   20  N   UNL     1       3.881  28.038  55.558  1.00  0.00    -0.365 N 
HETATM   21  C   UNL     1       4.155  28.916  51.954  1.00  0.00     0.002 A 
HETATM   22  C   UNL     1       5.518  28.667  51.832  1.00  0.00     0.001 A 
HETATM   23  H   UNL     1       2.939  28.147  55.909  1.00  0.00     0.165 HD
HETATM   24  C   UNL     1       4.952  27.616  56.294  1.00  0.00     0.100 A 
ENDBRANCH   9  15
TORSDOF 2
ENDMDL
