MODEL 1
REMARK VINA RESULT:     -11.2      0.000      0.000
REMARK  9 active torsions:
REMARK  status: ('A' for Active; 'I' for Inactive)
REMARK    1  A    between atoms: C_2  and  C_3 
REMARK    2  A    between atoms: C_6  and  N_7 
REMARK    3  A    between atoms: N_7  and  C_8 
REMARK    4  A    between atoms: C_12  and  C_13 
REMARK       I    between atoms: C_13  and  N_14 
REMARK    5  A    between atoms: N_14  and  C_15 
REMARK    6  A    between atoms: C_15  and  C_16 
REMARK    7  A    between atoms: C_16  and  C_17 
REMARK    8  A    between atoms: C_17  and  N_18 
REMARK    9  A    between atoms: N_22  and  C_23 
ROOT
HETATM    1  C   UNL     1       7.190  27.785  54.538  1.00  0.00     0.129 A 
HETATM    2  N   UNL     1       5.902  28.128  54.695  1.00  0.00    -0.231 NA
HETATM    3  C   UNL     1       5.534  28.991  55.652  1.00  0.00     0.070 A 
HETATM    4  C   UNL     1       6.443  29.577  56.554  1.00  0.00     0.009 A 
HETATM    5  C   UNL     1       7.808  29.257  56.336  1.00  0.00     0.048 A 
HETATM    6  C   UNL     1       8.171  28.358  55.325  1.00  0.00     0.068 A 
HETATM    7  C   UNL     1       4.181  29.279  55.758  1.00  0.00     0.032 A 
HETATM    8  C   UNL     1       3.678  30.114  56.754  1.00  0.00     0.002 A 
HETATM    9  C   UNL     1       4.544  30.659  57.686  1.00  0.00     0.001 A 
HETATM   10  C   UNL     1       5.909  30.386  57.598  1.00  0.00     0.015 A 
ENDROOT
BRANCH   5  11
HETATM   11  C   UNL     1       8.942  29.750  57.161  1.00  0.00     0.252 C 
HETATM   12  N   UNL     1       8.750  30.853  57.962  1.00  0.00    -0.357 N 
HETATM   13  H   UNL     1       7.934  31.432  57.778  1.00  0.00     0.162 HD
HETATM   14  O   UNL     1      10.035  29.186  57.107  1.00  0.00    -0.268 OA
BRANCH  12  15
HETATM   15  C   UNL     1       9.828  31.444  58.730  1.00  0.00     0.124 C 
BRANCH  15  16
HETATM   16  C   UNL     1       9.460  31.776  60.182  1.00  0.00     0.047 C 
BRANCH  16  17
HETATM   17  C   UNL     1       8.621  30.758  60.962  1.00  0.00     0.236 C 
BRANCH  17  18
HETATM   18  N   UNL     1       7.248  31.243  61.316  1.00  0.00    -0.068 N 
HETATM   19  H   UNL     1       6.582  30.563  60.891  1.00  0.00     0.280 HD
HETATM   20  C   UNL     1       6.955  31.363  62.804  1.00  0.00     0.254 C 
HETATM   21  C   UNL     1       5.483  31.767  63.041  1.00  0.00     0.150 C 
HETATM   22  N   UNL     1       5.091  32.959  62.265  1.00  0.00    -0.375 N 
HETATM   23  C   UNL     1       5.401  32.885  60.821  1.00  0.00     0.150 C 
HETATM   24  C   UNL     1       6.892  32.551  60.598  1.00  0.00     0.254 C 
BRANCH  22  25
HETATM   25  C   UNL     1       5.128  34.230  62.849  1.00  0.00     0.069 A 
HETATM   26  C   UNL     1       4.640  34.540  64.133  1.00  0.00     0.142 A 
HETATM   27  F   UNL     1       4.132  33.576  64.917  1.00  0.00    -0.204 F 
HETATM   28  C   UNL     1       4.699  35.829  64.664  1.00  0.00     0.044 A 
HETATM   29  C   UNL     1       5.240  36.865  63.910  1.00  0.00     0.003 A 
HETATM   30  C   UNL     1       5.713  36.604  62.629  1.00  0.00     0.002 A 
HETATM   31  C   UNL     1       5.654  35.306  62.109  1.00  0.00     0.032 A 
ENDBRANCH  22  25
ENDBRANCH  17  18
ENDBRANCH  16  17
ENDBRANCH  15  16
ENDBRANCH  12  15
ENDBRANCH   5  11
BRANCH   1  32
HETATM   32  N   UNL     1       7.582  26.793  53.617  1.00  0.00    -0.341 N 
HETATM   33  H   UNL     1       7.427  27.096  52.662  1.00  0.00     0.167 HD
BRANCH  32  34
HETATM   34  C   UNL     1       7.538  25.388  53.745  1.00  0.00     0.033 A 
HETATM   35  C   UNL     1       7.287  24.740  54.957  1.00  0.00     0.030 A 
HETATM   36  C   UNL     1       7.344  23.344  55.063  1.00  0.00     0.010 A 
HETATM   37  C   UNL     1       7.687  22.556  53.959  1.00  0.00    -0.055 A 
HETATM   38  C   UNL     1       7.972  23.200  52.749  1.00  0.00     0.010 A 
HETATM   39  C   UNL     1       7.908  24.595  52.649  1.00  0.00     0.030 A 
BRANCH  37  40
HETATM   40  C   UNL     1       7.755  21.041  54.049  1.00  0.00     0.010 C 
HETATM   41  C   UNL     1       8.414  20.596  55.357  1.00  0.00     0.015 C 
HETATM   42  C   UNL     1       8.470  20.428  52.843  1.00  0.00     0.015 C 
ENDBRANCH  37  40
ENDBRANCH  32  34
ENDBRANCH   1  32
TORSDOF 9
ENDMDL
MODEL 2
REMARK VINA RESULT:     -11.1      1.952      3.473
REMARK  9 active torsions:
REMARK  status: ('A' for Active; 'I' for Inactive)
REMARK    1  A    between atoms: C_2  and  C_3 
REMARK    2  A    between atoms: C_6  and  N_7 
REMARK    3  A    between atoms: N_7  and  C_8 
REMARK    4  A    between atoms: C_12  and  C_13 
REMARK       I    between atoms: C_13  and  N_14 
REMARK    5  A    between atoms: N_14  and  C_15 
REMARK    6  A    between atoms: C_15  and  C_16 
REMARK    7  A    between atoms: C_16  and  C_17 
REMARK    8  A    between atoms: C_17  and  N_18 
REMARK    9  A    between atoms: N_22  and  C_23 
ROOT
HETATM    1  C   UNL     1       6.765  27.694  55.543  1.00  0.00     0.129 A 
HETATM    2  N   UNL     1       7.995  27.919  56.032  1.00  0.00    -0.231 NA
HETATM    3  C   UNL     1       8.218  28.929  56.884  1.00  0.00     0.070 A 
HETATM    4  C   UNL     1       7.212  29.818  57.310  1.00  0.00     0.009 A 
HETATM    5  C   UNL     1       5.906  29.529  56.838  1.00  0.00     0.048 A 
HETATM    6  C   UNL     1       5.693  28.464  55.952  1.00  0.00     0.068 A 
HETATM    7  C   UNL     1       9.521  29.103  57.330  1.00  0.00     0.032 A 
HETATM    8  C   UNL     1       9.880  30.156  58.169  1.00  0.00     0.002 A 
HETATM    9  C   UNL     1       8.920  31.075  58.558  1.00  0.00     0.001 A 
HETATM   10  C   UNL     1       7.604  30.918  58.126  1.00  0.00     0.015 A 
ENDROOT
BRANCH   5  11
HETATM   11  C   UNL     1       4.691  30.327  57.147  1.00  0.00     0.252 C 
HETATM   12  N   UNL     1       4.491  31.516  56.484  1.00  0.00    -0.357 N 
HETATM   13  H   UNL     1       5.288  31.924  55.999  1.00  0.00     0.162 HD
HETATM   14  O   UNL     1       3.892  29.931  57.996  1.00  0.00    -0.268 OA
BRANCH  12  15
HETATM   15  C   UNL     1       3.376  32.392  56.790  1.00  0.00     0.124 C 
BRANCH  15  16
HETATM   16  C   UNL     1       3.778  33.838  57.104  1.00  0.00     0.047 C 
BRANCH  16  17
HETATM   17  C   UNL     1       4.757  34.079  58.259  1.00  0.00     0.236 C 
BRANCH  17  18
HETATM   18  N   UNL     1       4.213  33.714  59.606  1.00  0.00    -0.068 N 
HETATM   19  H   UNL     1       3.184  33.600  59.482  1.00  0.00     0.280 HD
HETATM   20  C   UNL     1       4.783  32.446  60.225  1.00  0.00     0.254 C 
HETATM   21  C   UNL     1       4.070  32.120  61.557  1.00  0.00     0.150 C 
HETATM   22  N   UNL     1       4.045  33.268  62.482  1.00  0.00    -0.375 N 
HETATM   23  C   UNL     1       3.532  34.524  61.894  1.00  0.00     0.150 C 
HETATM   24  C   UNL     1       4.301  34.877  60.602  1.00  0.00     0.254 C 
BRANCH  22  25
HETATM   25  C   UNL     1       5.015  33.396  63.482  1.00  0.00     0.069 A 
HETATM   26  C   UNL     1       4.757  33.792  64.808  1.00  0.00     0.142 A 
HETATM   27  F   UNL     1       3.500  34.035  65.212  1.00  0.00    -0.204 F 
HETATM   28  C   UNL     1       5.768  33.908  65.764  1.00  0.00     0.044 A 
HETATM   29  C   UNL     1       7.087  33.643  65.414  1.00  0.00     0.003 A 
HETATM   30  C   UNL     1       7.385  33.269  64.108  1.00  0.00     0.002 A 
HETATM   31  C   UNL     1       6.363  33.151  63.159  1.00  0.00     0.032 A 
ENDBRANCH  22  25
ENDBRANCH  17  18
ENDBRANCH  16  17
ENDBRANCH  15  16
ENDBRANCH  12  15
ENDBRANCH   5  11
BRANCH   1  32
HETATM   32  N   UNL     1       6.531  26.713  54.558  1.00  0.00    -0.341 N 
HETATM   33  H   UNL     1       5.589  26.777  54.191  1.00  0.00     0.167 HD
BRANCH  32  34
HETATM   34  C   UNL     1       7.055  25.406  54.458  1.00  0.00     0.033 A 
HETATM   35  C   UNL     1       7.617  24.897  53.283  1.00  0.00     0.030 A 
HETATM   36  C   UNL     1       8.040  23.564  53.196  1.00  0.00     0.010 A 
HETATM   37  C   UNL     1       7.883  22.691  54.278  1.00  0.00    -0.055 A 
HETATM   38  C   UNL     1       7.291  23.185  55.446  1.00  0.00     0.010 A 
HETATM   39  C   UNL     1       6.874  24.519  55.529  1.00  0.00     0.030 A 
BRANCH  37  40
HETATM   40  C   UNL     1       8.334  21.242  54.206  1.00  0.00     0.010 C 
HETATM   41  C   UNL     1       7.862  20.580  52.909  1.00  0.00     0.015 C 
HETATM   42  C   UNL     1       7.874  20.440  55.426  1.00  0.00     0.015 C 
ENDBRANCH  37  40
ENDBRANCH  32  34
ENDBRANCH   1  32
TORSDOF 9
ENDMDL
MODEL 3
REMARK VINA RESULT:     -11.0      5.004      9.554
REMARK  9 active torsions:
REMARK  status: ('A' for Active; 'I' for Inactive)
REMARK    1  A    between atoms: C_2  and  C_3 
REMARK    2  A    between atoms: C_6  and  N_7 
REMARK    3  A    between atoms: N_7  and  C_8 
REMARK    4  A    between atoms: C_12  and  C_13 
REMARK       I    between atoms: C_13  and  N_14 
REMARK    5  A    between atoms: N_14  and  C_15 
REMARK    6  A    between atoms: C_15  and  C_16 
REMARK    7  A    between atoms: C_16  and  C_17 
REMARK    8  A    between atoms: C_17  and  N_18 
REMARK    9  A    between atoms: N_22  and  C_23 
ROOT
HETATM    1  C   UNL     1       7.224  27.628  54.852  1.00  0.00     0.129 A 
HETATM    2  N   UNL     1       7.976  27.809  55.949  1.00  0.00    -0.231 NA
HETATM    3  C   UNL     1       7.691  28.786  56.821  1.00  0.00     0.070 A 
HETATM    4  C   UNL     1       6.619  29.684  56.652  1.00  0.00     0.009 A 
HETATM    5  C   UNL     1       5.794  29.441  55.524  1.00  0.00     0.048 A 
HETATM    6  C   UNL     1       6.107  28.410  54.628  1.00  0.00     0.068 A 
HETATM    7  C   UNL     1       8.528  28.917  57.920  1.00  0.00     0.032 A 
HETATM    8  C   UNL     1       8.363  29.934  58.858  1.00  0.00     0.002 A 
HETATM    9  C   UNL     1       7.350  30.862  58.685  1.00  0.00     0.001 A 
HETATM   10  C   UNL     1       6.494  30.749  57.590  1.00  0.00     0.015 A 
ENDROOT
BRANCH   5  11
HETATM   11  C   UNL     1       4.613  30.256  55.138  1.00  0.00     0.252 C 
HETATM   12  N   UNL     1       4.817  31.467  54.517  1.00  0.00    -0.357 N 
HETATM   13  H   UNL     1       5.750  31.871  54.566  1.00  0.00     0.162 HD
HETATM   14  O   UNL     1       3.477  29.855  55.392  1.00  0.00    -0.268 OA
BRANCH  12  15
HETATM   15  C   UNL     1       3.721  32.358  54.187  1.00  0.00     0.124 C 
BRANCH  15  16
HETATM   16  C   UNL     1       3.187  32.199  52.757  1.00  0.00     0.047 C 
BRANCH  16  17
HETATM   17  C   UNL     1       4.205  32.112  51.615  1.00  0.00     0.236 C 
BRANCH  17  18
HETATM   18  N   UNL     1       4.549  30.711  51.209  1.00  0.00    -0.068 N 
HETATM   19  H   UNL     1       5.493  30.518  51.606  1.00  0.00     0.280 HD
HETATM   20  C   UNL     1       3.582  29.634  51.678  1.00  0.00     0.254 C 
HETATM   21  C   UNL     1       4.098  28.230  51.292  1.00  0.00     0.150 C 
HETATM   22  N   UNL     1       4.446  28.128  49.862  1.00  0.00    -0.375 N 
HETATM   23  C   UNL     1       5.353  29.186  49.370  1.00  0.00     0.150 C 
HETATM   24  C   UNL     1       4.790  30.587  49.700  1.00  0.00     0.254 C 
BRANCH  22  25
HETATM   25  C   UNL     1       3.524  27.617  48.942  1.00  0.00     0.069 A 
HETATM   26  C   UNL     1       3.838  26.726  47.898  1.00  0.00     0.142 A 
HETATM   27  F   UNL     1       5.090  26.263  47.755  1.00  0.00    -0.204 F 
HETATM   28  C   UNL     1       2.877  26.252  47.004  1.00  0.00     0.044 A 
HETATM   29  C   UNL     1       1.557  26.673  47.119  1.00  0.00     0.003 A 
HETATM   30  C   UNL     1       1.210  27.570  48.123  1.00  0.00     0.002 A 
HETATM   31  C   UNL     1       2.182  28.035  49.017  1.00  0.00     0.032 A 
ENDBRANCH  22  25
ENDBRANCH  17  18
ENDBRANCH  16  17
ENDBRANCH  15  16
ENDBRANCH  12  15
ENDBRANCH   5  11
BRANCH   1  32
HETATM   32  N   UNL     1       7.574  26.685  53.865  1.00  0.00    -0.341 N 
HETATM   33  H   UNL     1       7.386  27.039  52.934  1.00  0.00     0.167 HD
BRANCH  32  34
HETATM   34  C   UNL     1       7.524  25.275  53.920  1.00  0.00     0.033 A 
HETATM   35  C   UNL     1       7.233  24.566  55.089  1.00  0.00     0.030 A 
HETATM   36  C   UNL     1       7.285  23.167  55.125  1.00  0.00     0.010 A 
HETATM   37  C   UNL     1       7.663  22.435  53.994  1.00  0.00    -0.055 A 
HETATM   38  C   UNL     1       7.988  23.139  52.829  1.00  0.00     0.010 A 
HETATM   39  C   UNL     1       7.930  24.538  52.798  1.00  0.00     0.030 A 
BRANCH  37  40
HETATM   40  C   UNL     1       7.727  20.918  54.010  1.00  0.00     0.010 C 
HETATM   41  C   UNL     1       8.289  20.402  55.337  1.00  0.00     0.015 C 
HETATM   42  C   UNL     1       8.528  20.367  52.828  1.00  0.00     0.015 C 
ENDBRANCH  37  40
ENDBRANCH  32  34
ENDBRANCH   1  32
TORSDOF 9
ENDMDL
MODEL 4
REMARK VINA RESULT:     -11.0      1.911      3.463
REMARK  9 active torsions:
REMARK  status: ('A' for Active; 'I' for Inactive)
REMARK    1  A    between atoms: C_2  and  C_3 
REMARK    2  A    between atoms: C_6  and  N_7 
REMARK    3  A    between atoms: N_7  and  C_8 
REMARK    4  A    between atoms: C_12  and  C_13 
REMARK       I    between atoms: C_13  and  N_14 
REMARK    5  A    between atoms: N_14  and  C_15 
REMARK    6  A    between atoms: C_15  and  C_16 
REMARK    7  A    between atoms: C_16  and  C_17 
REMARK    8  A    between atoms: C_17  and  N_18 
REMARK    9  A    between atoms: N_22  and  C_23 
ROOT
HETATM    1  C   UNL     1       6.980  27.671  55.469  1.00  0.00     0.129 A 
HETATM    2  N   UNL     1       8.237  27.856  55.902  1.00  0.00    -0.231 NA
HETATM    3  C   UNL     1       8.532  28.859  56.740  1.00  0.00     0.070 A 
HETATM    4  C   UNL     1       7.576  29.782  57.207  1.00  0.00     0.009 A 
HETATM    5  C   UNL     1       6.241  29.536  56.794  1.00  0.00     0.048 A 
HETATM    6  C   UNL     1       5.954  28.478  55.923  1.00  0.00     0.068 A 
HETATM    7  C   UNL     1       9.858  28.992  57.126  1.00  0.00     0.032 A 
HETATM    8  C   UNL     1      10.290  30.033  57.945  1.00  0.00     0.002 A 
HETATM    9  C   UNL     1       9.379  30.984  58.373  1.00  0.00     0.001 A 
HETATM   10  C   UNL     1       8.040  30.870  58.001  1.00  0.00     0.015 A 
ENDROOT
BRANCH   5  11
HETATM   11  C   UNL     1       5.068  30.375  57.155  1.00  0.00     0.252 C 
HETATM   12  N   UNL     1       4.390  30.101  58.322  1.00  0.00    -0.357 N 
HETATM   13  H   UNL     1       4.556  29.198  58.762  1.00  0.00     0.162 HD
HETATM   14  O   UNL     1       4.705  31.283  56.408  1.00  0.00    -0.268 OA
BRANCH  12  15
HETATM   15  C   UNL     1       3.188  30.817  58.701  1.00  0.00     0.124 C 
BRANCH  15  16
HETATM   16  C   UNL     1       3.229  31.415  60.113  1.00  0.00     0.047 C 
BRANCH  16  17
HETATM   17  C   UNL     1       3.571  32.902  60.255  1.00  0.00     0.236 C 
BRANCH  17  18
HETATM   18  N   UNL     1       4.747  33.175  61.143  1.00  0.00    -0.068 N 
HETATM   19  H   UNL     1       5.595  33.001  60.563  1.00  0.00     0.280 HD
HETATM   20  C   UNL     1       4.820  34.579  61.725  1.00  0.00     0.254 C 
HETATM   21  C   UNL     1       6.124  34.769  62.532  1.00  0.00     0.150 C 
HETATM   22  N   UNL     1       6.331  33.705  63.532  1.00  0.00    -0.375 N 
HETATM   23  C   UNL     1       6.225  32.329  63.001  1.00  0.00     0.150 C 
HETATM   24  C   UNL     1       4.885  32.131  62.258  1.00  0.00     0.254 C 
BRANCH  22  25
HETATM   25  C   UNL     1       5.938  33.894  64.862  1.00  0.00     0.069 A 
HETATM   26  C   UNL     1       4.609  34.070  65.291  1.00  0.00     0.142 A 
HETATM   27  F   UNL     1       3.598  34.017  64.409  1.00  0.00    -0.204 F 
HETATM   28  C   UNL     1       4.274  34.260  66.632  1.00  0.00     0.044 A 
HETATM   29  C   UNL     1       5.275  34.297  67.597  1.00  0.00     0.003 A 
HETATM   30  C   UNL     1       6.603  34.149  67.211  1.00  0.00     0.002 A 
HETATM   31  C   UNL     1       6.925  33.953  65.863  1.00  0.00     0.032 A 
ENDBRANCH  22  25
ENDBRANCH  17  18
ENDBRANCH  16  17
ENDBRANCH  15  16
ENDBRANCH  12  15
ENDBRANCH   5  11
BRANCH   1  32
HETATM   32  N   UNL     1       6.670  26.697  54.499  1.00  0.00    -0.341 N 
HETATM   33  H   UNL     1       5.766  26.873  54.076  1.00  0.00     0.167 HD
BRANCH  32  34
HETATM   34  C   UNL     1       7.017  25.329  54.465  1.00  0.00     0.033 A 
HETATM   35  C   UNL     1       7.025  24.515  55.601  1.00  0.00     0.030 A 
HETATM   36  C   UNL     1       7.465  23.187  55.543  1.00  0.00     0.010 A 
HETATM   37  C   UNL     1       7.942  22.642  54.345  1.00  0.00    -0.055 A 
HETATM   38  C   UNL     1       7.968  23.461  53.210  1.00  0.00     0.010 A 
HETATM   39  C   UNL     1       7.522  24.786  53.274  1.00  0.00     0.030 A 
BRANCH  37  40
HETATM   40  C   UNL     1       8.425  21.204  54.258  1.00  0.00     0.010 C 
HETATM   41  C   UNL     1       8.106  20.596  52.891  1.00  0.00     0.015 C 
HETATM   42  C   UNL     1       7.853  20.341  55.385  1.00  0.00     0.015 C 
ENDBRANCH  37  40
ENDBRANCH  32  34
ENDBRANCH   1  32
TORSDOF 9
ENDMDL
MODEL 5
REMARK VINA RESULT:     -10.8      3.979      6.576
REMARK  9 active torsions:
REMARK  status: ('A' for Active; 'I' for Inactive)
REMARK    1  A    between atoms: C_2  and  C_3 
REMARK    2  A    between atoms: C_6  and  N_7 
REMARK    3  A    between atoms: N_7  and  C_8 
REMARK    4  A    between atoms: C_12  and  C_13 
REMARK       I    between atoms: C_13  and  N_14 
REMARK    5  A    between atoms: N_14  and  C_15 
REMARK    6  A    between atoms: C_15  and  C_16 
REMARK    7  A    between atoms: C_16  and  C_17 
REMARK    8  A    between atoms: C_17  and  N_18 
REMARK    9  A    between atoms: N_22  and  C_23 
ROOT
HETATM    1  C   UNL     1       5.984  27.292  52.193  1.00  0.00     0.129 A 
HETATM    2  N   UNL     1       5.616  26.563  51.127  1.00  0.00    -0.231 NA
HETATM    3  C   UNL     1       4.657  26.997  50.298  1.00  0.00     0.070 A 
HETATM    4  C   UNL     1       3.968  28.212  50.483  1.00  0.00     0.009 A 
HETATM    5  C   UNL     1       4.412  29.002  51.574  1.00  0.00     0.048 A 
HETATM    6  C   UNL     1       5.420  28.531  52.425  1.00  0.00     0.068 A 
HETATM    7  C   UNL     1       4.324  26.177  49.230  1.00  0.00     0.032 A 
HETATM    8  C   UNL     1       3.301  26.499  48.340  1.00  0.00     0.002 A 
HETATM    9  C   UNL     1       2.573  27.660  48.532  1.00  0.00     0.001 A 
HETATM   10  C   UNL     1       2.891  28.503  49.597  1.00  0.00     0.015 A 
ENDROOT
BRANCH   5  11
HETATM   11  C   UNL     1       3.835  30.315  51.968  1.00  0.00     0.252 C 
HETATM   12  N   UNL     1       4.563  31.138  52.796  1.00  0.00    -0.357 N 
HETATM   13  H   UNL     1       5.344  30.726  53.302  1.00  0.00     0.162 HD
HETATM   14  O   UNL     1       2.716  30.642  51.570  1.00  0.00    -0.268 OA
BRANCH  12  15
HETATM   15  C   UNL     1       4.035  32.394  53.293  1.00  0.00     0.124 C 
BRANCH  15  16
HETATM   16  C   UNL     1       3.851  32.443  54.815  1.00  0.00     0.047 C 
BRANCH  16  17
HETATM   17  C   UNL     1       3.261  31.210  55.509  1.00  0.00     0.236 C 
BRANCH  17  18
HETATM   18  N   UNL     1       4.174  30.583  56.518  1.00  0.00    -0.068 N 
HETATM   19  H   UNL     1       3.598  30.424  57.371  1.00  0.00     0.280 HD
HETATM   20  C   UNL     1       4.815  29.268  56.098  1.00  0.00     0.254 C 
HETATM   21  C   UNL     1       5.645  28.670  57.256  1.00  0.00     0.150 C 
HETATM   22  N   UNL     1       6.602  29.637  57.826  1.00  0.00    -0.375 N 
HETATM   23  C   UNL     1       6.013  30.939  58.205  1.00  0.00     0.150 C 
HETATM   24  C   UNL     1       5.246  31.560  57.016  1.00  0.00     0.254 C 
BRANCH  22  25
HETATM   25  C   UNL     1       7.933  29.655  57.396  1.00  0.00     0.069 A 
HETATM   26  C   UNL     1       9.033  30.016  58.198  1.00  0.00     0.142 A 
HETATM   27  F   UNL     1       8.855  30.333  59.491  1.00  0.00    -0.204 F 
HETATM   28  C   UNL     1      10.342  30.021  57.715  1.00  0.00     0.044 A 
HETATM   29  C   UNL     1      10.593  29.674  56.392  1.00  0.00     0.003 A 
HETATM   30  C   UNL     1       9.532  29.332  55.561  1.00  0.00     0.002 A 
HETATM   31  C   UNL     1       8.224  29.326  56.059  1.00  0.00     0.032 A 
ENDBRANCH  22  25
ENDBRANCH  17  18
ENDBRANCH  16  17
ENDBRANCH  15  16
ENDBRANCH  12  15
ENDBRANCH   5  11
BRANCH   1  32
HETATM   32  N   UNL     1       6.905  26.800  53.139  1.00  0.00    -0.341 N 
HETATM   33  H   UNL     1       7.690  27.431  53.251  1.00  0.00     0.167 HD
BRANCH  32  34
HETATM   34  C   UNL     1       7.247  25.464  53.442  1.00  0.00     0.033 A 
HETATM   35  C   UNL     1       7.850  24.603  52.521  1.00  0.00     0.030 A 
HETATM   36  C   UNL     1       8.089  23.258  52.829  1.00  0.00     0.010 A 
HETATM   37  C   UNL     1       7.698  22.725  54.063  1.00  0.00    -0.055 A 
HETATM   38  C   UNL     1       7.063  23.573  54.978  1.00  0.00     0.010 A 
HETATM   39  C   UNL     1       6.832  24.918  54.666  1.00  0.00     0.030 A 
BRANCH  37  40
HETATM   40  C   UNL     1       7.946  21.269  54.418  1.00  0.00     0.010 C 
HETATM   41  C   UNL     1       9.040  21.138  55.480  1.00  0.00     0.015 C 
HETATM   42  C   UNL     1       8.281  20.429  53.184  1.00  0.00     0.015 C 
ENDBRANCH  37  40
ENDBRANCH  32  34
ENDBRANCH   1  32
TORSDOF 9
ENDMDL
MODEL 6
REMARK VINA RESULT:     -10.7      2.715     11.679
REMARK  9 active torsions:
REMARK  status: ('A' for Active; 'I' for Inactive)
REMARK    1  A    between atoms: C_2  and  C_3 
REMARK    2  A    between atoms: C_6  and  N_7 
REMARK    3  A    between atoms: N_7  and  C_8 
REMARK    4  A    between atoms: C_12  and  C_13 
REMARK       I    between atoms: C_13  and  N_14 
REMARK    5  A    between atoms: N_14  and  C_15 
REMARK    6  A    between atoms: C_15  and  C_16 
REMARK    7  A    between atoms: C_16  and  C_17 
REMARK    8  A    between atoms: C_17  and  N_18 
REMARK    9  A    between atoms: N_22  and  C_23 
ROOT
HETATM    1  C   UNL     1       8.066  30.961  60.226  1.00  0.00     0.129 A 
HETATM    2  N   UNL     1       9.287  30.815  59.687  1.00  0.00    -0.231 NA
HETATM    3  C   UNL     1       9.431  30.418  58.416  1.00  0.00     0.070 A 
HETATM    4  C   UNL     1       8.344  30.114  57.573  1.00  0.00     0.009 A 
HETATM    5  C   UNL     1       7.060  30.335  58.134  1.00  0.00     0.048 A 
HETATM    6  C   UNL     1       6.932  30.758  59.463  1.00  0.00     0.068 A 
HETATM    7  C   UNL     1      10.727  30.276  57.940  1.00  0.00     0.032 A 
HETATM    8  C   UNL     1      10.997  29.810  56.655  1.00  0.00     0.002 A 
HETATM    9  C   UNL     1       9.947  29.454  55.826  1.00  0.00     0.001 A 
HETATM   10  C   UNL     1       8.635  29.591  56.280  1.00  0.00     0.015 A 
ENDROOT
BRANCH   5  11
HETATM   11  C   UNL     1       5.770  30.082  57.439  1.00  0.00     0.252 C 
HETATM   12  N   UNL     1       5.489  28.806  57.007  1.00  0.00    -0.357 N 
HETATM   13  H   UNL     1       6.262  28.146  56.953  1.00  0.00     0.162 HD
HETATM   14  O   UNL     1       4.982  31.007  57.244  1.00  0.00    -0.268 OA
BRANCH  12  15
HETATM   15  C   UNL     1       4.293  28.495  56.248  1.00  0.00     0.124 C 
BRANCH  15  16
HETATM   16  C   UNL     1       4.540  28.246  54.755  1.00  0.00     0.047 C 
BRANCH  16  17
HETATM   17  C   UNL     1       5.991  28.157  54.270  1.00  0.00     0.236 C 
BRANCH  17  18
HETATM   18  N   UNL     1       6.288  26.935  53.455  1.00  0.00    -0.068 N 
HETATM   19  H   UNL     1       6.008  27.164  52.477  1.00  0.00     0.280 HD
HETATM   20  C   UNL     1       7.738  26.474  53.464  1.00  0.00     0.254 C 
HETATM   21  C   UNL     1       7.937  25.277  52.507  1.00  0.00     0.150 C 
HETATM   22  N   UNL     1       6.971  24.189  52.753  1.00  0.00    -0.375 N 
HETATM   23  C   UNL     1       5.556  24.616  52.790  1.00  0.00     0.150 C 
HETATM   24  C   UNL     1       5.358  25.766  53.803  1.00  0.00     0.254 C 
BRANCH  22  25
HETATM   25  C   UNL     1       7.317  23.102  53.563  1.00  0.00     0.069 A 
HETATM   26  C   UNL     1       7.352  23.126  54.971  1.00  0.00     0.142 A 
HETATM   27  F   UNL     1       6.993  24.233  55.640  1.00  0.00    -0.204 F 
HETATM   28  C   UNL     1       7.711  22.010  55.729  1.00  0.00     0.044 A 
HETATM   29  C   UNL     1       8.066  20.825  55.093  1.00  0.00     0.003 A 
HETATM   30  C   UNL     1       8.065  20.768  53.704  1.00  0.00     0.002 A 
HETATM   31  C   UNL     1       7.698  21.891  52.954  1.00  0.00     0.032 A 
ENDBRANCH  22  25
ENDBRANCH  17  18
ENDBRANCH  16  17
ENDBRANCH  15  16
ENDBRANCH  12  15
ENDBRANCH   5  11
BRANCH   1  32
HETATM   32  N   UNL     1       7.894  31.264  61.592  1.00  0.00    -0.341 N 
HETATM   33  H   UNL     1       7.821  30.421  62.149  1.00  0.00     0.167 HD
BRANCH  32  34
HETATM   34  C   UNL     1       7.226  32.357  62.187  1.00  0.00     0.033 A 
HETATM   35  C   UNL     1       6.342  33.183  61.488  1.00  0.00     0.030 A 
HETATM   36  C   UNL     1       5.772  34.313  62.089  1.00  0.00     0.010 A 
HETATM   37  C   UNL     1       6.097  34.667  63.403  1.00  0.00    -0.055 A 
HETATM   38  C   UNL     1       7.008  33.862  64.098  1.00  0.00     0.010 A 
HETATM   39  C   UNL     1       7.571  32.732  63.494  1.00  0.00     0.030 A 
BRANCH  37  40
HETATM   40  C   UNL     1       5.492  35.887  64.074  1.00  0.00     0.010 C 
HETATM   41  C   UNL     1       3.976  35.739  64.226  1.00  0.00     0.015 C 
HETATM   42  C   UNL     1       5.842  37.180  63.332  1.00  0.00     0.015 C 
ENDBRANCH  37  40
ENDBRANCH  32  34
ENDBRANCH   1  32
TORSDOF 9
ENDMDL
MODEL 7
REMARK VINA RESULT:     -10.7      3.105      9.715
REMARK  9 active torsions:
REMARK  status: ('A' for Active; 'I' for Inactive)
REMARK    1  A    between atoms: C_2  and  C_3 
REMARK    2  A    between atoms: C_6  and  N_7 
REMARK    3  A    between atoms: N_7  and  C_8 
REMARK    4  A    between atoms: C_12  and  C_13 
REMARK       I    between atoms: C_13  and  N_14 
REMARK    5  A    between atoms: N_14  and  C_15 
REMARK    6  A    between atoms: C_15  and  C_16 
REMARK    7  A    between atoms: C_16  and  C_17 
REMARK    8  A    between atoms: C_17  and  N_18 
REMARK    9  A    between atoms: N_22  and  C_23 
ROOT
HETATM    1  C   UNL     1       5.012  32.692  59.591  1.00  0.00     0.129 A 
HETATM    2  N   UNL     1       4.917  33.034  60.885  1.00  0.00    -0.231 NA
HETATM    3  C   UNL     1       5.977  32.933  61.699  1.00  0.00     0.070 A 
HETATM    4  C   UNL     1       7.234  32.459  61.276  1.00  0.00     0.009 A 
HETATM    5  C   UNL     1       7.338  32.164  59.893  1.00  0.00     0.048 A 
HETATM    6  C   UNL     1       6.219  32.282  59.058  1.00  0.00     0.068 A 
HETATM    7  C   UNL     1       5.791  33.290  63.027  1.00  0.00     0.032 A 
HETATM    8  C   UNL     1       6.805  33.168  63.976  1.00  0.00     0.002 A 
HETATM    9  C   UNL     1       8.033  32.653  63.596  1.00  0.00     0.001 A 
HETATM   10  C   UNL     1       8.244  32.290  62.266  1.00  0.00     0.015 A 
ENDROOT
BRANCH   5  11
HETATM   11  C   UNL     1       8.558  31.646  59.220  1.00  0.00     0.252 C 
HETATM   12  N   UNL     1       8.508  30.413  58.611  1.00  0.00    -0.357 N 
HETATM   13  H   UNL     1       7.731  29.800  58.852  1.00  0.00     0.162 HD
HETATM   14  O   UNL     1       9.596  32.309  59.228  1.00  0.00    -0.268 OA
BRANCH  12  15
HETATM   15  C   UNL     1       9.677  29.802  58.008  1.00  0.00     0.124 C 
BRANCH  15  16
HETATM   16  C   UNL     1       9.358  28.753  56.935  1.00  0.00     0.047 C 
BRANCH  16  17
HETATM   17  C   UNL     1       7.887  28.519  56.573  1.00  0.00     0.236 C 
BRANCH  17  18
HETATM   18  N   UNL     1       7.420  27.113  56.802  1.00  0.00    -0.068 N 
HETATM   19  H   UNL     1       7.076  27.079  57.785  1.00  0.00     0.280 HD
HETATM   20  C   UNL     1       6.318  26.627  55.872  1.00  0.00     0.254 C 
HETATM   21  C   UNL     1       5.850  25.210  56.274  1.00  0.00     0.150 C 
HETATM   22  N   UNL     1       6.970  24.260  56.409  1.00  0.00    -0.375 N 
HETATM   23  C   UNL     1       8.074  24.725  57.275  1.00  0.00     0.150 C 
HETATM   24  C   UNL     1       8.581  26.111  56.818  1.00  0.00     0.254 C 
BRANCH  22  25
HETATM   25  C   UNL     1       7.321  23.421  55.345  1.00  0.00     0.069 A 
HETATM   26  C   UNL     1       7.781  22.097  55.483  1.00  0.00     0.142 A 
HETATM   27  F   UNL     1       7.867  21.531  56.697  1.00  0.00    -0.204 F 
HETATM   28  C   UNL     1       8.122  21.306  54.385  1.00  0.00     0.044 A 
HETATM   29  C   UNL     1       8.028  21.827  53.099  1.00  0.00     0.003 A 
HETATM   30  C   UNL     1       7.597  23.138  52.923  1.00  0.00     0.002 A 
HETATM   31  C   UNL     1       7.253  23.920  54.031  1.00  0.00     0.032 A 
ENDBRANCH  22  25
ENDBRANCH  17  18
ENDBRANCH  16  17
ENDBRANCH  15  16
ENDBRANCH  12  15
ENDBRANCH   5  11
BRANCH   1  32
HETATM   32  N   UNL     1       3.883  32.679  58.747  1.00  0.00    -0.341 N 
HETATM   33  H   UNL     1       3.025  32.760  59.280  1.00  0.00     0.167 HD
BRANCH  32  34
HETATM   34  C   UNL     1       3.690  32.001  57.524  1.00  0.00     0.033 A 
HETATM   35  C   UNL     1       3.550  30.613  57.435  1.00  0.00     0.030 A 
HETATM   36  C   UNL     1       3.454  29.968  56.195  1.00  0.00     0.010 A 
HETATM   37  C   UNL     1       3.527  30.696  55.002  1.00  0.00    -0.055 A 
HETATM   38  C   UNL     1       3.700  32.082  55.083  1.00  0.00     0.010 A 
HETATM   39  C   UNL     1       3.790  32.721  56.325  1.00  0.00     0.030 A 
BRANCH  37  40
HETATM   40  C   UNL     1       3.426  30.018  53.647  1.00  0.00     0.010 C 
HETATM   41  C   UNL     1       4.592  29.053  53.423  1.00  0.00     0.015 C 
HETATM   42  C   UNL     1       3.333  31.034  52.506  1.00  0.00     0.015 C 
ENDBRANCH  37  40
ENDBRANCH  32  34
ENDBRANCH   1  32
TORSDOF 9
ENDMDL
MODEL 8
REMARK VINA RESULT:     -10.5      2.408      4.407
REMARK  9 active torsions:
REMARK  status: ('A' for Active; 'I' for Inactive)
REMARK    1  A    between atoms: C_2  and  C_3 
REMARK    2  A    between atoms: C_6  and  N_7 
REMARK    3  A    between atoms: N_7  and  C_8 
REMARK    4  A    between atoms: C_12  and  C_13 
REMARK       I    between atoms: C_13  and  N_14 
REMARK    5  A    between atoms: N_14  and  C_15 
REMARK    6  A    between atoms: C_15  and  C_16 
REMARK    7  A    between atoms: C_16  and  C_17 
REMARK    8  A    between atoms: C_17  and  N_18 
REMARK    9  A    between atoms: N_22  and  C_23 
ROOT
HETATM    1  C   UNL     1       6.804  29.682  56.356  1.00  0.00     0.129 A 
HETATM    2  N   UNL     1       7.912  29.701  57.113  1.00  0.00    -0.231 NA
HETATM    3  C   UNL     1       7.990  30.489  58.194  1.00  0.00     0.070 A 
HETATM    4  C   UNL     1       6.950  31.349  58.599  1.00  0.00     0.009 A 
HETATM    5  C   UNL     1       5.761  31.271  57.828  1.00  0.00     0.048 A 
HETATM    6  C   UNL     1       5.700  30.434  56.706  1.00  0.00     0.068 A 
HETATM    7  C   UNL     1       9.176  30.462  58.914  1.00  0.00     0.032 A 
HETATM    8  C   UNL     1       9.390  31.285  60.018  1.00  0.00     0.002 A 
HETATM    9  C   UNL     1       8.404  32.177  60.403  1.00  0.00     0.001 A 
HETATM   10  C   UNL     1       7.202  32.220  59.698  1.00  0.00     0.015 A 
ENDROOT
BRANCH   5  11
HETATM   11  C   UNL     1       4.538  32.082  58.062  1.00  0.00     0.252 C 
HETATM   12  N   UNL     1       4.426  33.306  57.442  1.00  0.00    -0.357 N 
HETATM   13  H   UNL     1       5.272  33.718  57.055  1.00  0.00     0.162 HD
HETATM   14  O   UNL     1       3.655  31.666  58.812  1.00  0.00    -0.268 OA
BRANCH  12  15
HETATM   15  C   UNL     1       3.304  34.193  57.685  1.00  0.00     0.124 C 
BRANCH  15  16
HETATM   16  C   UNL     1       3.559  35.250  58.767  1.00  0.00     0.047 C 
BRANCH  16  17
HETATM   17  C   UNL     1       2.355  35.775  59.558  1.00  0.00     0.236 C 
BRANCH  17  18
HETATM   18  N   UNL     1       2.467  35.578  61.039  1.00  0.00    -0.068 N 
HETATM   19  H   UNL     1       1.611  36.006  61.454  1.00  0.00     0.280 HD
HETATM   20  C   UNL     1       2.577  34.134  61.505  1.00  0.00     0.254 C 
HETATM   21  C   UNL     1       2.578  34.055  63.048  1.00  0.00     0.150 C 
HETATM   22  N   UNL     1       3.578  34.950  63.660  1.00  0.00    -0.375 N 
HETATM   23  C   UNL     1       3.520  36.353  63.195  1.00  0.00     0.150 C 
HETATM   24  C   UNL     1       3.591  36.421  61.653  1.00  0.00     0.254 C 
BRANCH  22  25
HETATM   25  C   UNL     1       4.839  34.463  64.021  1.00  0.00     0.069 A 
HETATM   26  C   UNL     1       5.808  33.989  63.116  1.00  0.00     0.142 A 
HETATM   27  F   UNL     1       5.577  34.023  61.794  1.00  0.00    -0.204 F 
HETATM   28  C   UNL     1       7.051  33.509  63.533  1.00  0.00     0.044 A 
HETATM   29  C   UNL     1       7.360  33.474  64.889  1.00  0.00     0.003 A 
HETATM   30  C   UNL     1       6.422  33.914  65.815  1.00  0.00     0.002 A 
HETATM   31  C   UNL     1       5.181  34.398  65.385  1.00  0.00     0.032 A 
ENDBRANCH  22  25
ENDBRANCH  17  18
ENDBRANCH  16  17
ENDBRANCH  15  16
ENDBRANCH  12  15
ENDBRANCH   5  11
BRANCH   1  32
HETATM   32  N   UNL     1       6.746  28.950  55.153  1.00  0.00    -0.341 N 
HETATM   33  H   UNL     1       5.946  29.223  54.594  1.00  0.00     0.167 HD
BRANCH  32  34
HETATM   34  C   UNL     1       7.147  27.621  54.896  1.00  0.00     0.033 A 
HETATM   35  C   UNL     1       7.351  27.120  53.607  1.00  0.00     0.030 A 
HETATM   36  C   UNL     1       7.657  25.771  53.390  1.00  0.00     0.010 A 
HETATM   37  C   UNL     1       7.735  24.872  54.460  1.00  0.00    -0.055 A 
HETATM   38  C   UNL     1       7.499  25.359  55.751  1.00  0.00     0.010 A 
HETATM   39  C   UNL     1       7.199  26.710  55.962  1.00  0.00     0.030 A 
BRANCH  37  40
HETATM   40  C   UNL     1       8.064  23.405  54.248  1.00  0.00     0.010 C 
HETATM   41  C   UNL     1       7.623  22.935  52.860  1.00  0.00     0.015 C 
HETATM   42  C   UNL     1       7.460  22.520  55.341  1.00  0.00     0.015 C 
ENDBRANCH  37  40
ENDBRANCH  32  34
ENDBRANCH   1  32
TORSDOF 9
ENDMDL
MODEL 9
REMARK VINA RESULT:     -10.4      4.389      8.886
REMARK  9 active torsions:
REMARK  status: ('A' for Active; 'I' for Inactive)
REMARK    1  A    between atoms: C_2  and  C_3 
REMARK    2  A    between atoms: C_6  and  N_7 
REMARK    3  A    between atoms: N_7  and  C_8 
REMARK    4  A    between atoms: C_12  and  C_13 
REMARK       I    between atoms: C_13  and  N_14 
REMARK    5  A    between atoms: N_14  and  C_15 
REMARK    6  A    between atoms: C_15  and  C_16 
REMARK    7  A    between atoms: C_16  and  C_17 
REMARK    8  A    between atoms: C_17  and  N_18 
REMARK    9  A    between atoms: N_22  and  C_23 
ROOT
HETATM    1  C   UNL     1       7.138  27.774  54.737  1.00  0.00     0.129 A 
HETATM    2  N   UNL     1       7.911  27.906  55.826  1.00  0.00    -0.231 NA
HETATM    3  C   UNL     1       7.646  28.846  56.744  1.00  0.00     0.070 A 
HETATM    4  C   UNL     1       6.574  29.753  56.634  1.00  0.00     0.009 A 
HETATM    5  C   UNL     1       5.727  29.559  55.513  1.00  0.00     0.048 A 
HETATM    6  C   UNL     1       6.019  28.567  54.568  1.00  0.00     0.068 A 
HETATM    7  C   UNL     1       8.504  28.928  57.832  1.00  0.00     0.032 A 
HETATM    8  C   UNL     1       8.360  29.904  58.815  1.00  0.00     0.002 A 
HETATM    9  C   UNL     1       7.347  30.841  58.701  1.00  0.00     0.001 A 
HETATM   10  C   UNL     1       6.470  30.777  57.619  1.00  0.00     0.015 A 
ENDROOT
BRANCH   5  11
HETATM   11  C   UNL     1       4.541  30.393  55.185  1.00  0.00     0.252 C 
HETATM   12  N   UNL     1       4.729  31.581  54.516  1.00  0.00    -0.357 N 
HETATM   13  H   UNL     1       5.673  31.962  54.489  1.00  0.00     0.162 HD
HETATM   14  O   UNL     1       3.416  30.028  55.527  1.00  0.00    -0.268 OA
BRANCH  12  15
HETATM   15  C   UNL     1       3.635  32.490  54.235  1.00  0.00     0.124 C 
BRANCH  15  16
HETATM   16  C   UNL     1       3.836  33.353  52.983  1.00  0.00     0.047 C 
BRANCH  16  17
HETATM   17  C   UNL     1       2.743  33.330  51.909  1.00  0.00     0.236 C 
BRANCH  17  18
HETATM   18  N   UNL     1       3.049  32.435  50.747  1.00  0.00    -0.068 N 
HETATM   19  H   UNL     1       2.746  32.953  49.895  1.00  0.00     0.280 HD
HETATM   20  C   UNL     1       4.508  32.033  50.592  1.00  0.00     0.254 C 
HETATM   21  C   UNL     1       4.712  31.203  49.305  1.00  0.00     0.150 C 
HETATM   22  N   UNL     1       3.774  30.069  49.207  1.00  0.00    -0.375 N 
HETATM   23  C   UNL     1       2.351  30.426  49.393  1.00  0.00     0.150 C 
HETATM   24  C   UNL     1       2.150  31.193  50.719  1.00  0.00     0.254 C 
BRANCH  22  25
HETATM   25  C   UNL     1       4.158  28.791  49.628  1.00  0.00     0.069 A 
HETATM   26  C   UNL     1       4.521  28.453  50.946  1.00  0.00     0.142 A 
HETATM   27  F   UNL     1       4.470  29.375  51.921  1.00  0.00    -0.204 F 
HETATM   28  C   UNL     1       4.902  27.161  51.309  1.00  0.00     0.044 A 
HETATM   29  C   UNL     1       4.948  26.156  50.349  1.00  0.00     0.003 A 
HETATM   30  C   UNL     1       4.617  26.454  49.031  1.00  0.00     0.002 A 
HETATM   31  C   UNL     1       4.232  27.753  48.680  1.00  0.00     0.032 A 
ENDBRANCH  22  25
ENDBRANCH  17  18
ENDBRANCH  16  17
ENDBRANCH  15  16
ENDBRANCH  12  15
ENDBRANCH   5  11
BRANCH   1  32
HETATM   32  N   UNL     1       7.467  26.872  53.704  1.00  0.00    -0.341 N 
HETATM   33  H   UNL     1       7.114  27.193  52.810  1.00  0.00     0.167 HD
BRANCH  32  34
HETATM   34  C   UNL     1       7.598  25.468  53.754  1.00  0.00     0.033 A 
HETATM   35  C   UNL     1       7.948  24.694  52.643  1.00  0.00     0.030 A 
HETATM   36  C   UNL     1       7.976  23.295  52.709  1.00  0.00     0.010 A 
HETATM   37  C   UNL     1       7.623  22.626  53.887  1.00  0.00    -0.055 A 
HETATM   38  C   UNL     1       7.240  23.393  54.993  1.00  0.00     0.010 A 
HETATM   39  C   UNL     1       7.218  24.791  54.922  1.00  0.00     0.030 A 
BRANCH  37  40
HETATM   40  C   UNL     1       7.647  21.111  53.982  1.00  0.00     0.010 C 
HETATM   41  C   UNL     1       7.941  20.651  55.411  1.00  0.00     0.015 C 
HETATM   42  C   UNL     1       8.639  20.492  52.995  1.00  0.00     0.015 C 
ENDBRANCH  37  40
ENDBRANCH  32  34
ENDBRANCH   1  32
TORSDOF 9
ENDMDL
MODEL 10
REMARK VINA RESULT:     -10.2      2.012      2.698
REMARK  9 active torsions:
REMARK  status: ('A' for Active; 'I' for Inactive)
REMARK    1  A    between atoms: C_2  and  C_3 
REMARK    2  A    between atoms: C_6  and  N_7 
REMARK    3  A    between atoms: N_7  and  C_8 
REMARK    4  A    between atoms: C_12  and  C_13 
REMARK       I    between atoms: C_13  and  N_14 
REMARK    5  A    between atoms: N_14  and  C_15 
REMARK    6  A    between atoms: C_15  and  C_16 
REMARK    7  A    between atoms: C_16  and  C_17 
REMARK    8  A    between atoms: C_17  and  N_18 
REMARK    9  A    between atoms: N_22  and  C_23 
ROOT
HETATM    1  C   UNL     1       4.762  27.343  53.944  1.00  0.00     0.129 A 
HETATM    2  N   UNL     1       4.250  28.242  53.088  1.00  0.00    -0.231 NA
HETATM    3  C   UNL     1       4.151  29.534  53.431  1.00  0.00     0.070 A 
HETATM    4  C   UNL     1       4.551  30.033  54.686  1.00  0.00     0.009 A 
HETATM    5  C   UNL     1       5.150  29.085  55.554  1.00  0.00     0.048 A 
HETATM    6  C   UNL     1       5.249  27.741  55.174  1.00  0.00     0.068 A 
HETATM    7  C   UNL     1       3.595  30.396  52.496  1.00  0.00     0.032 A 
HETATM    8  C   UNL     1       3.388  31.747  52.766  1.00  0.00     0.002 A 
HETATM    9  C   UNL     1       3.723  32.250  54.012  1.00  0.00     0.001 A 
HETATM   10  C   UNL     1       4.286  31.404  54.967  1.00  0.00     0.015 A 
ENDROOT
BRANCH   5  11
HETATM   11  C   UNL     1       5.644  29.376  56.926  1.00  0.00     0.252 C 
HETATM   12  N   UNL     1       6.982  29.644  57.107  1.00  0.00    -0.357 N 
HETATM   13  H   UNL     1       7.618  29.393  56.354  1.00  0.00     0.162 HD
HETATM   14  O   UNL     1       4.864  29.358  57.879  1.00  0.00    -0.268 OA
BRANCH  12  15
HETATM   15  C   UNL     1       7.554  29.854  58.423  1.00  0.00     0.124 C 
BRANCH  15  16
HETATM   16  C   UNL     1       7.703  31.329  58.818  1.00  0.00     0.047 C 
BRANCH  16  17
HETATM   17  C   UNL     1       6.426  32.144  59.050  1.00  0.00     0.236 C 
BRANCH  17  18
HETATM   18  N   UNL     1       5.870  32.024  60.436  1.00  0.00    -0.068 N 
HETATM   19  H   UNL     1       5.520  31.046  60.525  1.00  0.00     0.280 HD
HETATM   20  C   UNL     1       6.850  32.307  61.565  1.00  0.00     0.254 C 
HETATM   21  C   UNL     1       6.191  32.048  62.939  1.00  0.00     0.150 C 
HETATM   22  N   UNL     1       4.900  32.747  63.089  1.00  0.00    -0.375 N 
HETATM   23  C   UNL     1       3.943  32.521  61.985  1.00  0.00     0.150 C 
HETATM   24  C   UNL     1       4.592  32.852  60.622  1.00  0.00     0.254 C 
BRANCH  22  25
HETATM   25  C   UNL     1       4.837  33.990  63.727  1.00  0.00     0.069 A 
HETATM   26  C   UNL     1       5.468  35.163  63.270  1.00  0.00     0.142 A 
HETATM   27  F   UNL     1       6.160  35.157  62.119  1.00  0.00    -0.204 F 
HETATM   28  C   UNL     1       5.375  36.377  63.952  1.00  0.00     0.044 A 
HETATM   29  C   UNL     1       4.650  36.453  65.136  1.00  0.00     0.003 A 
HETATM   30  C   UNL     1       4.029  35.312  65.631  1.00  0.00     0.002 A 
HETATM   31  C   UNL     1       4.125  34.101  64.937  1.00  0.00     0.032 A 
ENDBRANCH  22  25
ENDBRANCH  17  18
ENDBRANCH  16  17
ENDBRANCH  15  16
ENDBRANCH  12  15
ENDBRANCH   5  11
BRANCH   1  32
HETATM   32  N   UNL     1       4.766  25.965  53.649  1.00  0.00    -0.341 N 
HETATM   33  H   UNL     1       3.886  25.531  53.903  1.00  0.00     0.167 HD
BRANCH  32  34
HETATM   34  C   UNL     1       5.840  25.048  53.680  1.00  0.00     0.033 A 
HETATM   35  C   UNL     1       6.518  24.628  52.532  1.00  0.00     0.030 A 
HETATM   36  C   UNL     1       7.516  23.648  52.593  1.00  0.00     0.010 A 
HETATM   37  C   UNL     1       7.843  23.033  53.807  1.00  0.00    -0.055 A 
HETATM   38  C   UNL     1       7.145  23.425  54.955  1.00  0.00     0.010 A 
HETATM   39  C   UNL     1       6.152  24.409  54.888  1.00  0.00     0.030 A 
BRANCH  37  40
HETATM   40  C   UNL     1       8.921  21.967  53.897  1.00  0.00     0.010 C 
HETATM   41  C   UNL     1       8.545  20.731  53.076  1.00  0.00     0.015 C 
HETATM   42  C   UNL     1       9.226  21.585  55.347  1.00  0.00     0.015 C 
ENDBRANCH  37  40
ENDBRANCH  32  34
ENDBRANCH   1  32
TORSDOF 9
ENDMDL
