MODEL 1
REMARK VINA RESULT:     -10.4      0.000      0.000
REMARK  3 active torsions:
REMARK  status: ('A' for Active; 'I' for Inactive)
REMARK    1  A    between atoms: C_6  and  N_7 
REMARK       I    between atoms: N_7  and  C_8 
REMARK    2  A    between atoms: C_8  and  C_9 
REMARK    3  A    between atoms: C_20  and  O_21 
ROOT
HETATM    1  C   UNL     1       5.807  27.452  55.601  1.00  0.00     0.153 A 
HETATM    2  N   UNL     1       4.693  28.221  55.650  1.00  0.00    -0.168 NA
HETATM    3  N   UNL     1       5.038  29.258  56.443  1.00  0.00    -0.276 N 
HETATM    4  H   UNL     1       4.349  29.979  56.621  1.00  0.00     0.189 HD
HETATM    5  C   UNL     1       6.318  29.190  56.899  1.00  0.00     0.069 A 
HETATM    6  C   UNL     1       6.848  28.038  56.363  1.00  0.00     0.007 A 
HETATM    7  C   UNL     1       8.242  27.611  56.658  1.00  0.00     0.048 C 
HETATM    8  C   UNL     1       9.129  28.829  57.010  1.00  0.00     0.044 C 
HETATM    9  C   UNL     1       8.444  29.892  57.862  1.00  0.00    -0.043 A 
HETATM   10  C   UNL     1       7.049  30.103  57.762  1.00  0.00    -0.001 A 
HETATM   11  C   UNL     1       9.207  30.729  58.686  1.00  0.00     0.044 A 
HETATM   12  C   UNL     1       8.601  31.745  59.429  1.00  0.00     0.068 A 
HETATM   13  C   UNL     1       7.222  31.942  59.329  1.00  0.00     0.037 A 
HETATM   14  C   UNL     1       6.446  31.125  58.496  1.00  0.00     0.017 A 
ENDROOT
BRANCH   1  15
HETATM   15  C   UNL     1       5.844  26.188  54.839  1.00  0.00     0.277 C 
HETATM   16  N   UNL     1       6.930  25.408  55.191  1.00  0.00    -0.322 N 
HETATM   17  H   UNL     1       7.512  25.837  55.908  1.00  0.00     0.169 HD
HETATM   18  O   UNL     1       4.989  25.910  54.005  1.00  0.00    -0.266 OA
BRANCH  16  19
HETATM   19  C   UNL     1       7.294  24.145  54.697  1.00  0.00     0.037 A 
HETATM   20  C   UNL     1       7.286  22.979  55.461  1.00  0.00     0.072 A 
HETATM   21  C   UNL     1       7.670  21.768  54.885  1.00  0.00     0.124 A 
HETATM   22  C   UNL     1       8.078  21.687  53.553  1.00  0.00    -0.023 A 
HETATM   23  F   UNL     1       7.645  20.660  55.640  1.00  0.00    -0.205 F 
HETATM   24  C   UNL     1       8.458  20.366  52.958  1.00  0.00     0.051 C 
HETATM   25  C   UNL     1       8.071  22.853  52.783  1.00  0.00     0.012 A 
HETATM   26  C   UNL     1       7.687  24.071  53.353  1.00  0.00     0.030 A 
ENDBRANCH  16  19
ENDBRANCH   1  15
BRANCH  12  27
HETATM   27  O   UNL     1       9.463  32.474  60.202  1.00  0.00    -0.356 OA
HETATM   28  C   UNL     1       9.753  31.966  61.499  1.00  0.00     0.210 C 
ENDBRANCH  12  27
TORSDOF 3
ENDMDL
MODEL 2
REMARK VINA RESULT:     -10.1      5.754      8.824
REMARK  3 active torsions:
REMARK  status: ('A' for Active; 'I' for Inactive)
REMARK    1  A    between atoms: C_6  and  N_7 
REMARK       I    between atoms: N_7  and  C_8 
REMARK    2  A    between atoms: C_8  and  C_9 
REMARK    3  A    between atoms: C_20  and  O_21 
ROOT
HETATM    1  C   UNL     1       5.377  32.775  61.710  1.00  0.00     0.153 A 
HETATM    2  N   UNL     1       4.048  33.015  61.815  1.00  0.00    -0.168 NA
HETATM    3  N   UNL     1       3.875  33.375  63.105  1.00  0.00    -0.276 N 
HETATM    4  H   UNL     1       2.941  33.612  63.419  1.00  0.00     0.189 HD
HETATM    5  C   UNL     1       5.029  33.380  63.828  1.00  0.00     0.069 A 
HETATM    6  C   UNL     1       6.022  33.006  62.950  1.00  0.00     0.007 A 
HETATM    7  C   UNL     1       7.438  32.878  63.387  1.00  0.00     0.048 C 
HETATM    8  C   UNL     1       7.725  33.789  64.604  1.00  0.00     0.044 C 
HETATM    9  C   UNL     1       6.598  33.858  65.629  1.00  0.00    -0.043 A 
HETATM   10  C   UNL     1       5.251  33.706  65.225  1.00  0.00    -0.001 A 
HETATM   11  C   UNL     1       6.884  34.161  66.966  1.00  0.00     0.044 A 
HETATM   12  C   UNL     1       5.857  34.285  67.906  1.00  0.00     0.068 A 
HETATM   13  C   UNL     1       4.530  34.127  67.499  1.00  0.00     0.037 A 
HETATM   14  C   UNL     1       4.226  33.841  66.163  1.00  0.00     0.017 A 
ENDROOT
BRANCH   1  15
HETATM   15  C   UNL     1       5.987  32.330  60.441  1.00  0.00     0.277 C 
HETATM   16  N   UNL     1       7.216  31.731  60.645  1.00  0.00    -0.322 N 
HETATM   17  H   UNL     1       7.486  31.701  61.626  1.00  0.00     0.169 HD
HETATM   18  O   UNL     1       5.428  32.496  59.362  1.00  0.00    -0.266 OA
BRANCH  16  19
HETATM   19  C   UNL     1       8.085  31.177  59.692  1.00  0.00     0.037 A 
HETATM   20  C   UNL     1       7.853  29.969  59.035  1.00  0.00     0.072 A 
HETATM   21  C   UNL     1       8.778  29.494  58.106  1.00  0.00     0.124 A 
HETATM   22  C   UNL     1       9.950  30.194  57.814  1.00  0.00    -0.023 A 
HETATM   23  F   UNL     1       8.526  28.334  57.482  1.00  0.00    -0.205 F 
HETATM   24  C   UNL     1      10.908  29.670  56.790  1.00  0.00     0.051 C 
HETATM   25  C   UNL     1      10.174  31.413  58.460  1.00  0.00     0.012 A 
HETATM   26  C   UNL     1       9.251  31.896  59.394  1.00  0.00     0.030 A 
ENDBRANCH  16  19
ENDBRANCH   1  15
BRANCH  12  27
HETATM   27  O   UNL     1       6.280  34.567  69.175  1.00  0.00    -0.356 OA
HETATM   28  C   UNL     1       7.369  35.473  69.306  1.00  0.00     0.210 C 
ENDBRANCH  12  27
TORSDOF 3
ENDMDL
MODEL 3
REMARK VINA RESULT:      -9.9      4.023      9.639
REMARK  3 active torsions:
REMARK  status: ('A' for Active; 'I' for Inactive)
REMARK    1  A    between atoms: C_6  and  N_7 
REMARK       I    between atoms: N_7  and  C_8 
REMARK    2  A    between atoms: C_8  and  C_9 
REMARK    3  A    between atoms: C_20  and  O_21 
ROOT
HETATM    1  C   UNL     1       8.201  30.291  58.474  1.00  0.00     0.153 A 
HETATM    2  N   UNL     1       9.347  29.610  58.235  1.00  0.00    -0.168 NA
HETATM    3  N   UNL     1       9.011  28.720  57.276  1.00  0.00    -0.276 N 
HETATM    4  H   UNL     1       9.727  28.093  56.927  1.00  0.00     0.189 HD
HETATM    5  C   UNL     1       7.709  28.803  56.889  1.00  0.00     0.069 A 
HETATM    6  C   UNL     1       7.159  29.819  57.638  1.00  0.00     0.007 A 
HETATM    7  C   UNL     1       5.726  30.196  57.505  1.00  0.00     0.048 C 
HETATM    8  C   UNL     1       5.188  29.835  56.100  1.00  0.00     0.044 C 
HETATM    9  C   UNL     1       5.700  28.512  55.541  1.00  0.00    -0.043 A 
HETATM   10  C   UNL     1       6.981  28.030  55.898  1.00  0.00    -0.001 A 
HETATM   11  C   UNL     1       4.939  27.808  54.599  1.00  0.00     0.044 A 
HETATM   12  C   UNL     1       5.420  26.623  54.034  1.00  0.00     0.068 A 
HETATM   13  C   UNL     1       6.683  26.152  54.397  1.00  0.00     0.037 A 
HETATM   14  C   UNL     1       7.464  26.853  55.324  1.00  0.00     0.017 A 
ENDROOT
BRANCH   1  15
HETATM   15  C   UNL     1       8.133  31.362  59.489  1.00  0.00     0.277 C 
HETATM   16  N   UNL     1       7.467  30.948  60.627  1.00  0.00    -0.322 N 
HETATM   17  H   UNL     1       7.140  29.985  60.569  1.00  0.00     0.169 HD
HETATM   18  O   UNL     1       8.625  32.468  59.296  1.00  0.00    -0.266 OA
BRANCH  16  19
HETATM   19  C   UNL     1       7.212  31.674  61.802  1.00  0.00     0.037 A 
HETATM   20  C   UNL     1       5.935  32.027  62.236  1.00  0.00     0.072 A 
HETATM   21  C   UNL     1       5.778  32.755  63.414  1.00  0.00     0.124 A 
HETATM   22  C   UNL     1       6.874  33.156  64.180  1.00  0.00    -0.023 A 
HETATM   23  F   UNL     1       4.538  33.074  63.814  1.00  0.00    -0.205 F 
HETATM   24  C   UNL     1       6.669  33.913  65.455  1.00  0.00     0.051 C 
HETATM   25  C   UNL     1       8.153  32.788  63.753  1.00  0.00     0.012 A 
HETATM   26  C   UNL     1       8.318  32.057  62.572  1.00  0.00     0.030 A 
ENDBRANCH  16  19
ENDBRANCH   1  15
BRANCH  12  27
HETATM   27  O   UNL     1       4.566  26.033  53.143  1.00  0.00    -0.356 OA
HETATM   28  C   UNL     1       5.131  25.098  52.233  1.00  0.00     0.210 C 
ENDBRANCH  12  27
TORSDOF 3
ENDMDL
MODEL 4
REMARK VINA RESULT:      -9.9      3.202      5.026
REMARK  3 active torsions:
REMARK  status: ('A' for Active; 'I' for Inactive)
REMARK    1  A    between atoms: C_6  and  N_7 
REMARK       I    between atoms: N_7  and  C_8 
REMARK    2  A    between atoms: C_8  and  C_9 
REMARK    3  A    between atoms: C_20  and  O_21 
ROOT
HETATM    1  C   UNL     1       7.485  30.833  58.595  1.00  0.00     0.153 A 
HETATM    2  N   UNL     1       6.557  31.709  58.140  1.00  0.00    -0.168 NA
HETATM    3  N   UNL     1       6.266  32.473  59.215  1.00  0.00    -0.276 N 
HETATM    4  H   UNL     1       5.585  33.216  59.109  1.00  0.00     0.189 HD
HETATM    5  C   UNL     1       6.966  32.132  60.331  1.00  0.00     0.069 A 
HETATM    6  C   UNL     1       7.774  31.079  59.960  1.00  0.00     0.007 A 
HETATM    7  C   UNL     1       8.683  30.415  60.932  1.00  0.00     0.048 C 
HETATM    8  C   UNL     1       9.080  31.387  62.068  1.00  0.00     0.044 C 
HETATM    9  C   UNL     1       7.956  32.299  62.551  1.00  0.00    -0.043 A 
HETATM   10  C   UNL     1       6.935  32.709  61.663  1.00  0.00    -0.001 A 
HETATM   11  C   UNL     1       7.979  32.808  63.855  1.00  0.00     0.044 A 
HETATM   12  C   UNL     1       6.988  33.690  64.294  1.00  0.00     0.068 A 
HETATM   13  C   UNL     1       5.979  34.085  63.413  1.00  0.00     0.037 A 
HETATM   14  C   UNL     1       5.952  33.599  62.100  1.00  0.00     0.017 A 
ENDROOT
BRANCH   1  15
HETATM   15  C   UNL     1       8.062  29.792  57.721  1.00  0.00     0.277 C 
HETATM   16  N   UNL     1       7.217  28.707  57.589  1.00  0.00    -0.322 N 
HETATM   17  H   UNL     1       6.351  28.811  58.114  1.00  0.00     0.169 HD
HETATM   18  O   UNL     1       9.164  29.924  57.198  1.00  0.00    -0.266 OA
BRANCH  16  19
HETATM   19  C   UNL     1       7.411  27.535  56.839  1.00  0.00     0.037 A 
HETATM   20  C   UNL     1       7.283  27.470  55.452  1.00  0.00     0.072 A 
HETATM   21  C   UNL     1       7.489  26.260  54.791  1.00  0.00     0.124 A 
HETATM   22  C   UNL     1       7.815  25.092  55.485  1.00  0.00    -0.023 A 
HETATM   23  F   UNL     1       7.369  26.226  53.456  1.00  0.00    -0.205 F 
HETATM   24  C   UNL     1       8.057  23.815  54.741  1.00  0.00     0.051 C 
HETATM   25  C   UNL     1       7.959  25.162  56.873  1.00  0.00     0.012 A 
HETATM   26  C   UNL     1       7.754  26.373  57.543  1.00  0.00     0.030 A 
ENDBRANCH  16  19
ENDBRANCH   1  15
BRANCH  12  27
HETATM   27  O   UNL     1       7.123  34.095  65.594  1.00  0.00    -0.356 OA
HETATM   28  C   UNL     1       5.934  34.188  66.368  1.00  0.00     0.210 C 
ENDBRANCH  12  27
TORSDOF 3
ENDMDL
MODEL 5
REMARK VINA RESULT:      -9.8      4.045      6.317
REMARK  3 active torsions:
REMARK  status: ('A' for Active; 'I' for Inactive)
REMARK    1  A    between atoms: C_6  and  N_7 
REMARK       I    between atoms: N_7  and  C_8 
REMARK    2  A    between atoms: C_8  and  C_9 
REMARK    3  A    between atoms: C_20  and  O_21 
ROOT
HETATM    1  C   UNL     1       8.471  30.618  60.189  1.00  0.00     0.153 A 
HETATM    2  N   UNL     1       9.261  30.141  61.181  1.00  0.00    -0.168 NA
HETATM    3  N   UNL     1       8.905  30.862  62.266  1.00  0.00    -0.276 N 
HETATM    4  H   UNL     1       9.369  30.671  63.147  1.00  0.00     0.189 HD
HETATM    5  C   UNL     1       7.924  31.772  62.017  1.00  0.00     0.069 A 
HETATM    6  C   UNL     1       7.612  31.632  60.683  1.00  0.00     0.007 A 
HETATM    7  C   UNL     1       6.582  32.484  60.030  1.00  0.00     0.048 C 
HETATM    8  C   UNL     1       5.542  32.980  61.063  1.00  0.00     0.044 C 
HETATM    9  C   UNL     1       6.123  33.363  62.420  1.00  0.00    -0.043 A 
HETATM   10  C   UNL     1       7.281  32.718  62.912  1.00  0.00    -0.001 A 
HETATM   11  C   UNL     1       5.461  34.296  63.227  1.00  0.00     0.044 A 
HETATM   12  C   UNL     1       5.949  34.615  64.498  1.00  0.00     0.068 A 
HETATM   13  C   UNL     1       7.096  33.978  64.973  1.00  0.00     0.037 A 
HETATM   14  C   UNL     1       7.761  33.029  64.186  1.00  0.00     0.017 A 
ENDROOT
BRANCH   1  15
HETATM   15  C   UNL     1       8.561  30.100  58.810  1.00  0.00     0.277 C 
HETATM   16  N   UNL     1       7.682  29.054  58.596  1.00  0.00    -0.322 N 
HETATM   17  H   UNL     1       7.131  28.823  59.420  1.00  0.00     0.169 HD
HETATM   18  O   UNL     1       9.338  30.576  57.989  1.00  0.00    -0.266 OA
BRANCH  16  19
HETATM   19  C   UNL     1       7.472  28.317  57.420  1.00  0.00     0.037 A 
HETATM   20  C   UNL     1       6.924  28.852  56.254  1.00  0.00     0.072 A 
HETATM   21  C   UNL     1       6.747  28.041  55.134  1.00  0.00     0.124 A 
HETATM   22  C   UNL     1       7.097  26.689  55.145  1.00  0.00    -0.023 A 
HETATM   23  F   UNL     1       6.225  28.582  54.023  1.00  0.00    -0.205 F 
HETATM   24  C   UNL     1       6.920  25.854  53.915  1.00  0.00     0.051 C 
HETATM   25  C   UNL     1       7.662  26.158  56.307  1.00  0.00     0.012 A 
HETATM   26  C   UNL     1       7.842  26.965  57.435  1.00  0.00     0.030 A 
ENDBRANCH  16  19
ENDBRANCH   1  15
BRANCH  12  27
HETATM   27  O   UNL     1       5.213  35.552  65.169  1.00  0.00    -0.356 OA
HETATM   28  C   UNL     1       4.542  36.530  64.383  1.00  0.00     0.210 C 
ENDBRANCH  12  27
TORSDOF 3
ENDMDL
MODEL 6
REMARK VINA RESULT:      -9.7      5.521      7.644
REMARK  3 active torsions:
REMARK  status: ('A' for Active; 'I' for Inactive)
REMARK    1  A    between atoms: C_6  and  N_7 
REMARK       I    between atoms: N_7  and  C_8 
REMARK    2  A    between atoms: C_8  and  C_9 
REMARK    3  A    between atoms: C_20  and  O_21 
ROOT
HETATM    1  C   UNL     1       5.599  26.772  52.283  1.00  0.00     0.153 A 
HETATM    2  N   UNL     1       5.996  27.844  53.010  1.00  0.00    -0.168 NA
HETATM    3  N   UNL     1       5.873  28.887  52.160  1.00  0.00    -0.276 N 
HETATM    4  H   UNL     1       6.114  29.813  52.494  1.00  0.00     0.189 HD
HETATM    5  C   UNL     1       5.413  28.533  50.929  1.00  0.00     0.069 A 
HETATM    6  C   UNL     1       5.215  27.171  50.979  1.00  0.00     0.007 A 
HETATM    7  C   UNL     1       4.728  26.411  49.797  1.00  0.00     0.048 C 
HETATM    8  C   UNL     1       3.901  27.321  48.858  1.00  0.00     0.044 C 
HETATM    9  C   UNL     1       4.444  28.738  48.703  1.00  0.00    -0.043 A 
HETATM   10  C   UNL     1       5.151  29.355  49.761  1.00  0.00    -0.001 A 
HETATM   11  C   UNL     1       4.167  29.471  47.542  1.00  0.00     0.044 A 
HETATM   12  C   UNL     1       4.607  30.791  47.409  1.00  0.00     0.068 A 
HETATM   13  C   UNL     1       5.310  31.390  48.456  1.00  0.00     0.037 A 
HETATM   14  C   UNL     1       5.580  30.677  49.631  1.00  0.00     0.017 A 
ENDROOT
BRANCH   1  15
HETATM   15  C   UNL     1       5.602  25.408  52.849  1.00  0.00     0.277 C 
HETATM   16  N   UNL     1       6.884  24.969  53.121  1.00  0.00    -0.322 N 
HETATM   17  H   UNL     1       7.599  25.655  52.886  1.00  0.00     0.169 HD
HETATM   18  O   UNL     1       4.564  24.783  53.036  1.00  0.00    -0.266 OA
BRANCH  16  19
HETATM   19  C   UNL     1       7.288  23.741  53.669  1.00  0.00     0.037 A 
HETATM   20  C   UNL     1       7.696  22.646  52.908  1.00  0.00     0.072 A 
HETATM   21  C   UNL     1       8.074  21.462  53.540  1.00  0.00     0.124 A 
HETATM   22  C   UNL     1       8.048  21.332  54.930  1.00  0.00    -0.023 A 
HETATM   23  F   UNL     1       8.472  20.427  52.786  1.00  0.00    -0.205 F 
HETATM   24  C   UNL     1       8.488  20.056  55.578  1.00  0.00     0.051 C 
HETATM   25  C   UNL     1       7.654  22.435  55.693  1.00  0.00     0.012 A 
HETATM   26  C   UNL     1       7.273  23.626  55.066  1.00  0.00     0.030 A 
ENDBRANCH  16  19
ENDBRANCH   1  15
BRANCH  12  27
HETATM   27  O   UNL     1       4.281  31.380  46.218  1.00  0.00    -0.356 OA
HETATM   28  C   UNL     1       2.949  31.200  45.753  1.00  0.00     0.210 C 
ENDBRANCH  12  27
TORSDOF 3
ENDMDL
MODEL 7
REMARK VINA RESULT:      -9.7      5.574      7.829
REMARK  3 active torsions:
REMARK  status: ('A' for Active; 'I' for Inactive)
REMARK    1  A    between atoms: C_6  and  N_7 
REMARK       I    between atoms: N_7  and  C_8 
REMARK    2  A    between atoms: C_8  and  C_9 
REMARK    3  A    between atoms: C_20  and  O_21 
ROOT
HETATM    1  C   UNL     1       5.855  27.823  51.638  1.00  0.00     0.153 A 
HETATM    2  N   UNL     1       6.124  28.896  52.422  1.00  0.00    -0.168 NA
HETATM    3  N   UNL     1       6.657  28.363  53.543  1.00  0.00    -0.276 N 
HETATM    4  H   UNL     1       6.945  28.990  54.285  1.00  0.00     0.189 HD
HETATM    5  C   UNL     1       6.744  27.006  53.512  1.00  0.00     0.069 A 
HETATM    6  C   UNL     1       6.244  26.625  52.287  1.00  0.00     0.007 A 
HETATM    7  C   UNL     1       6.158  25.193  51.892  1.00  0.00     0.048 C 
HETATM    8  C   UNL     1       7.221  24.351  52.635  1.00  0.00     0.044 C 
HETATM    9  C   UNL     1       7.442  24.744  54.092  1.00  0.00    -0.043 A 
HETATM   10  C   UNL     1       7.253  26.082  54.511  1.00  0.00    -0.001 A 
HETATM   11  C   UNL     1       7.919  23.799  55.009  1.00  0.00     0.044 A 
HETATM   12  C   UNL     1       8.182  24.158  56.334  1.00  0.00     0.068 A 
HETATM   13  C   UNL     1       7.987  25.479  56.740  1.00  0.00     0.037 A 
HETATM   14  C   UNL     1       7.527  26.441  55.831  1.00  0.00     0.017 A 
ENDROOT
BRANCH   1  15
HETATM   15  C   UNL     1       5.236  27.972  50.306  1.00  0.00     0.277 C 
HETATM   16  N   UNL     1       3.982  27.391  50.256  1.00  0.00    -0.322 N 
HETATM   17  H   UNL     1       3.706  26.963  51.137  1.00  0.00     0.169 HD
HETATM   18  O   UNL     1       5.806  28.552  49.389  1.00  0.00    -0.266 OA
BRANCH  16  19
HETATM   19  C   UNL     1       3.089  27.337  49.174  1.00  0.00     0.037 A 
HETATM   20  C   UNL     1       3.133  26.364  48.176  1.00  0.00     0.072 A 
HETATM   21  C   UNL     1       2.206  26.393  47.135  1.00  0.00     0.124 A 
HETATM   22  C   UNL     1       1.227  27.385  47.053  1.00  0.00    -0.023 A 
HETATM   23  F   UNL     1       2.265  25.440  46.193  1.00  0.00    -0.205 F 
HETATM   24  C   UNL     1       0.230  27.370  45.936  1.00  0.00     0.051 C 
HETATM   25  C   UNL     1       1.173  28.350  48.061  1.00  0.00     0.012 A 
HETATM   26  C   UNL     1       2.099  28.328  49.109  1.00  0.00     0.030 A 
ENDBRANCH  16  19
ENDBRANCH   1  15
BRANCH  12  27
HETATM   27  O   UNL     1       8.627  23.132  57.122  1.00  0.00    -0.356 OA
HETATM   28  C   UNL     1       8.413  21.810  56.642  1.00  0.00     0.210 C 
ENDBRANCH  12  27
TORSDOF 3
ENDMDL
MODEL 8
REMARK VINA RESULT:      -9.7      4.130      6.644
REMARK  3 active torsions:
REMARK  status: ('A' for Active; 'I' for Inactive)
REMARK    1  A    between atoms: C_6  and  N_7 
REMARK       I    between atoms: N_7  and  C_8 
REMARK    2  A    between atoms: C_8  and  C_9 
REMARK    3  A    between atoms: C_20  and  O_21 
ROOT
HETATM    1  C   UNL     1       6.535  32.097  59.873  1.00  0.00     0.153 A 
HETATM    2  N   UNL     1       5.439  32.836  59.578  1.00  0.00    -0.168 NA
HETATM    3  N   UNL     1       5.094  33.405  60.754  1.00  0.00    -0.276 N 
HETATM    4  H   UNL     1       4.288  34.019  60.775  1.00  0.00     0.189 HD
HETATM    5  C   UNL     1       5.918  33.067  61.783  1.00  0.00     0.069 A 
HETATM    6  C   UNL     1       6.870  32.230  61.244  1.00  0.00     0.007 A 
HETATM    7  C   UNL     1       7.945  31.633  62.080  1.00  0.00     0.048 C 
HETATM    8  C   UNL     1       8.244  32.521  63.311  1.00  0.00     0.044 C 
HETATM    9  C   UNL     1       7.014  33.150  63.958  1.00  0.00    -0.043 A 
HETATM   10  C   UNL     1       5.878  33.469  63.178  1.00  0.00    -0.001 A 
HETATM   11  C   UNL     1       7.037  33.499  65.314  1.00  0.00     0.044 A 
HETATM   12  C   UNL     1       5.940  34.129  65.908  1.00  0.00     0.068 A 
HETATM   13  C   UNL     1       4.819  34.434  65.132  1.00  0.00     0.037 A 
HETATM   14  C   UNL     1       4.787  34.108  63.770  1.00  0.00     0.017 A 
ENDROOT
BRANCH   1  15
HETATM   15  C   UNL     1       7.224  31.288  58.848  1.00  0.00     0.277 C 
HETATM   16  N   UNL     1       6.420  30.268  58.375  1.00  0.00    -0.322 N 
HETATM   17  H   UNL     1       5.501  30.250  58.812  1.00  0.00     0.169 HD
HETATM   18  O   UNL     1       8.372  31.534  58.493  1.00  0.00    -0.266 OA
BRANCH  16  19
HETATM   19  C   UNL     1       6.717  29.305  57.397  1.00  0.00     0.037 A 
HETATM   20  C   UNL     1       7.476  28.160  57.638  1.00  0.00     0.072 A 
HETATM   21  C   UNL     1       7.726  27.261  56.602  1.00  0.00     0.124 A 
HETATM   22  C   UNL     1       7.241  27.477  55.311  1.00  0.00    -0.023 A 
HETATM   23  F   UNL     1       8.451  26.163  56.863  1.00  0.00    -0.205 F 
HETATM   24  C   UNL     1       7.504  26.476  54.228  1.00  0.00     0.051 C 
HETATM   25  C   UNL     1       6.467  28.616  55.074  1.00  0.00     0.012 A 
HETATM   26  C   UNL     1       6.212  29.523  56.108  1.00  0.00     0.030 A 
ENDBRANCH  16  19
ENDBRANCH   1  15
BRANCH  12  27
HETATM   27  O   UNL     1       6.092  34.396  67.240  1.00  0.00    -0.356 OA
HETATM   28  C   UNL     1       4.957  34.192  68.073  1.00  0.00     0.210 C 
ENDBRANCH  12  27
TORSDOF 3
ENDMDL
MODEL 9
REMARK VINA RESULT:      -9.6      3.397      8.859
REMARK  3 active torsions:
REMARK  status: ('A' for Active; 'I' for Inactive)
REMARK    1  A    between atoms: C_6  and  N_7 
REMARK       I    between atoms: N_7  and  C_8 
REMARK    2  A    between atoms: C_8  and  C_9 
REMARK    3  A    between atoms: C_20  and  O_21 
ROOT
HETATM    1  C   UNL     1       6.469  28.443  56.103  1.00  0.00     0.153 A 
HETATM    2  N   UNL     1       6.403  28.993  54.867  1.00  0.00    -0.168 NA
HETATM    3  N   UNL     1       6.693  27.971  54.033  1.00  0.00    -0.276 N 
HETATM    4  H   UNL     1       6.698  28.149  53.035  1.00  0.00     0.189 HD
HETATM    5  C   UNL     1       6.937  26.797  54.675  1.00  0.00     0.069 A 
HETATM    6  C   UNL     1       6.788  27.065  56.018  1.00  0.00     0.007 A 
HETATM    7  C   UNL     1       6.998  26.015  57.050  1.00  0.00     0.048 C 
HETATM    8  C   UNL     1       6.733  24.607  56.466  1.00  0.00     0.044 C 
HETATM    9  C   UNL     1       7.228  24.405  55.037  1.00  0.00    -0.043 A 
HETATM   10  C   UNL     1       7.276  25.492  54.134  1.00  0.00    -0.001 A 
HETATM   11  C   UNL     1       7.555  23.121  54.584  1.00  0.00     0.044 A 
HETATM   12  C   UNL     1       7.955  22.910  53.262  1.00  0.00     0.068 A 
HETATM   13  C   UNL     1       8.006  23.991  52.379  1.00  0.00     0.037 A 
HETATM   14  C   UNL     1       7.665  25.279  52.811  1.00  0.00     0.017 A 
ENDROOT
BRANCH   1  15
HETATM   15  C   UNL     1       6.232  29.243  57.321  1.00  0.00     0.277 C 
HETATM   16  N   UNL     1       7.415  29.682  57.885  1.00  0.00    -0.322 N 
HETATM   17  H   UNL     1       8.239  29.380  57.369  1.00  0.00     0.169 HD
HETATM   18  O   UNL     1       5.101  29.464  57.741  1.00  0.00    -0.266 OA
BRANCH  16  19
HETATM   19  C   UNL     1       7.595  30.470  59.034  1.00  0.00     0.037 A 
HETATM   20  C   UNL     1       6.782  31.552  59.370  1.00  0.00     0.072 A 
HETATM   21  C   UNL     1       7.041  32.282  60.530  1.00  0.00     0.124 A 
HETATM   22  C   UNL     1       8.108  31.965  61.373  1.00  0.00    -0.023 A 
HETATM   23  F   UNL     1       6.239  33.312  60.835  1.00  0.00    -0.205 F 
HETATM   24  C   UNL     1       8.340  32.752  62.625  1.00  0.00     0.051 C 
HETATM   25  C   UNL     1       8.912  30.870  61.044  1.00  0.00     0.012 A 
HETATM   26  C   UNL     1       8.659  30.133  59.882  1.00  0.00     0.030 A 
ENDBRANCH  16  19
ENDBRANCH   1  15
BRANCH  12  27
HETATM   27  O   UNL     1       8.260  21.611  52.961  1.00  0.00    -0.356 OA
HETATM   28  C   UNL     1       7.913  20.627  53.927  1.00  0.00     0.210 C 
ENDBRANCH  12  27
TORSDOF 3
ENDMDL
MODEL 10
REMARK VINA RESULT:      -9.4      5.409      8.332
REMARK  3 active torsions:
REMARK  status: ('A' for Active; 'I' for Inactive)
REMARK    1  A    between atoms: C_6  and  N_7 
REMARK       I    between atoms: N_7  and  C_8 
REMARK    2  A    between atoms: C_8  and  C_9 
REMARK    3  A    between atoms: C_20  and  O_21 
ROOT
HETATM    1  C   UNL     1       5.902  27.577  52.895  1.00  0.00     0.153 A 
HETATM    2  N   UNL     1       5.849  28.093  54.146  1.00  0.00    -0.168 NA
HETATM    3  N   UNL     1       6.398  27.135  54.924  1.00  0.00    -0.276 N 
HETATM    4  H   UNL     1       6.471  27.306  55.921  1.00  0.00     0.189 HD
HETATM    5  C   UNL     1       6.802  26.036  54.231  1.00  0.00     0.069 A 
HETATM    6  C   UNL     1       6.506  26.295  52.911  1.00  0.00     0.007 A 
HETATM    7  C   UNL     1       6.789  25.302  51.841  1.00  0.00     0.048 C 
HETATM    8  C   UNL     1       7.955  24.370  52.247  1.00  0.00     0.044 C 
HETATM    9  C   UNL     1       7.958  23.955  53.714  1.00  0.00    -0.043 A 
HETATM   10  C   UNL     1       7.429  24.815  54.705  1.00  0.00    -0.001 A 
HETATM   11  C   UNL     1       8.567  22.754  54.101  1.00  0.00     0.044 A 
HETATM   12  C   UNL     1       8.629  22.387  55.448  1.00  0.00     0.068 A 
HETATM   13  C   UNL     1       8.099  23.239  56.418  1.00  0.00     0.037 A 
HETATM   14  C   UNL     1       7.503  24.452  56.050  1.00  0.00     0.017 A 
ENDROOT
BRANCH   1  15
HETATM   15  C   UNL     1       5.376  28.315  51.729  1.00  0.00     0.277 C 
HETATM   16  N   UNL     1       4.246  27.713  51.208  1.00  0.00    -0.322 N 
HETATM   17  H   UNL     1       3.975  26.871  51.713  1.00  0.00     0.169 HD
HETATM   18  O   UNL     1       5.913  29.336  51.313  1.00  0.00    -0.266 OA
BRANCH  16  19
HETATM   19  C   UNL     1       3.464  28.121  50.116  1.00  0.00     0.037 A 
HETATM   20  C   UNL     1       2.448  29.072  50.199  1.00  0.00     0.072 A 
HETATM   21  C   UNL     1       1.719  29.411  49.060  1.00  0.00     0.124 A 
HETATM   22  C   UNL     1       1.970  28.814  47.823  1.00  0.00    -0.023 A 
HETATM   23  F   UNL     1       0.752  30.335  49.165  1.00  0.00    -0.205 F 
HETATM   24  C   UNL     1       1.187  29.223  46.614  1.00  0.00     0.051 C 
HETATM   25  C   UNL     1       3.000  27.874  47.737  1.00  0.00     0.012 A 
HETATM   26  C   UNL     1       3.736  27.528  48.875  1.00  0.00     0.030 A 
ENDBRANCH  16  19
ENDBRANCH   1  15
BRANCH  12  27
HETATM   27  O   UNL     1       9.236  21.183  55.680  1.00  0.00    -0.356 OA
HETATM   28  C   UNL     1       8.725  20.057  54.978  1.00  0.00     0.210 C 
ENDBRANCH  12  27
TORSDOF 3
ENDMDL
