MODEL 1
REMARK VINA RESULT:     -10.2      0.000      0.000
REMARK  2 active torsions:
REMARK  status: ('A' for Active; 'I' for Inactive)
REMARK    1  A    between atoms: C_15  and  C_16 
REMARK    2  A    between atoms: C_19  and  O_20 
ROOT
HETATM    1  C   UNL     1       8.991  31.773  60.957  1.00  0.00     0.048 C 
HETATM    2  C   UNL     1       9.117  31.158  59.593  1.00  0.00    -0.061 A 
HETATM    3  C   UNL     1       8.092  30.331  59.101  1.00  0.00     0.021 A 
HETATM    4  C   UNL     1       8.224  29.730  57.835  1.00  0.00    -0.000 A 
HETATM    5  C   UNL     1       9.378  29.987  57.086  1.00  0.00     0.043 A 
HETATM    6  N   UNL     1       9.253  29.319  55.886  1.00  0.00    -0.353 N 
HETATM    7  H   UNL     1       9.937  29.316  55.141  1.00  0.00     0.166 HD
HETATM    8  C   UNL     1       8.116  28.574  55.905  1.00  0.00     0.066 A 
HETATM    9  C   UNL     1       7.425  28.832  57.074  1.00  0.00    -0.017 A 
HETATM   10  C   UNL     1       6.111  28.168  57.387  1.00  0.00     0.043 C 
HETATM   11  C   UNL     1       5.574  27.330  56.184  1.00  0.00     0.018 C 
HETATM   12  C   UNL     1       6.724  26.579  55.483  1.00  0.00     0.065 A 
HETATM   13  C   UNL     1       7.635  27.640  54.947  1.00  0.00     0.082 A 
HETATM   14  N   UNL     1       7.790  27.704  53.668  1.00  0.00    -0.203 NA
HETATM   15  C   UNL     1       6.416  25.823  54.186  1.00  0.00     0.121 A 
HETATM   16  N   UNL     1       7.057  26.678  53.163  1.00  0.00    -0.207 NA
HETATM   17  C   UNL     1      10.422  30.784  57.565  1.00  0.00     0.031 A 
HETATM   18  C   UNL     1      10.275  31.354  58.833  1.00  0.00     0.009 A 
HETATM   19  H   UNL     1       6.393  26.993  52.454  1.00  0.00     0.149 HD
ENDROOT
BRANCH  15  20
HETATM   20  C   UNL     1       7.002  24.409  54.178  1.00  0.00    -0.038 A 
HETATM   21  C   UNL     1       7.431  23.807  52.982  1.00  0.00     0.011 A 
HETATM   22  C   UNL     1       7.865  22.475  52.956  1.00  0.00     0.037 A 
HETATM   23  C   UNL     1       7.905  21.734  54.133  1.00  0.00     0.068 A 
HETATM   24  C   UNL     1       7.587  22.343  55.342  1.00  0.00     0.037 A 
HETATM   25  C   UNL     1       7.137  23.666  55.365  1.00  0.00     0.011 A 
BRANCH  23  26
HETATM   26  O   UNL     1       8.286  20.421  54.199  1.00  0.00    -0.356 OA
HETATM   27  C   UNL     1       8.611  19.992  55.520  1.00  0.00     0.210 C 
ENDBRANCH  23  26
ENDBRANCH  15  20
TORSDOF 2
ENDMDL
MODEL 2
REMARK VINA RESULT:      -9.9      3.026      8.114
REMARK  2 active torsions:
REMARK  status: ('A' for Active; 'I' for Inactive)
REMARK    1  A    between atoms: C_15  and  C_16 
REMARK    2  A    between atoms: C_19  and  O_20 
ROOT
HETATM    1  C   UNL     1       8.854  20.351  52.535  1.00  0.00     0.048 C 
HETATM    2  C   UNL     1       8.273  21.248  53.589  1.00  0.00    -0.061 A 
HETATM    3  C   UNL     1       8.001  22.594  53.289  1.00  0.00     0.021 A 
HETATM    4  C   UNL     1       7.484  23.444  54.286  1.00  0.00    -0.000 A 
HETATM    5  C   UNL     1       7.240  22.915  55.558  1.00  0.00     0.043 A 
HETATM    6  N   UNL     1       6.710  23.924  56.335  1.00  0.00    -0.353 N 
HETATM    7  H   UNL     1       6.438  23.839  57.305  1.00  0.00     0.166 HD
HETATM    8  C   UNL     1       6.716  25.084  55.624  1.00  0.00     0.066 A 
HETATM    9  C   UNL     1       7.145  24.824  54.336  1.00  0.00    -0.017 A 
HETATM   10  C   UNL     1       7.247  25.907  53.296  1.00  0.00     0.043 C 
HETATM   11  C   UNL     1       6.655  27.262  53.798  1.00  0.00     0.018 C 
HETATM   12  C   UNL     1       7.025  27.508  55.275  1.00  0.00     0.065 A 
HETATM   13  C   UNL     1       6.378  26.399  56.045  1.00  0.00     0.082 A 
HETATM   14  N   UNL     1       5.478  26.720  56.912  1.00  0.00    -0.203 NA
HETATM   15  C   UNL     1       6.407  28.715  55.989  1.00  0.00     0.121 A 
HETATM   16  N   UNL     1       5.422  28.077  56.891  1.00  0.00    -0.207 NA
HETATM   17  C   UNL     1       7.528  21.587  55.888  1.00  0.00     0.031 A 
HETATM   18  C   UNL     1       8.057  20.769  54.885  1.00  0.00     0.009 A 
HETATM   19  H   UNL     1       4.474  28.420  56.729  1.00  0.00     0.149 HD
ENDROOT
BRANCH  15  20
HETATM   20  C   UNL     1       7.441  29.525  56.774  1.00  0.00    -0.038 A 
HETATM   21  C   UNL     1       8.819  29.355  56.550  1.00  0.00     0.011 A 
HETATM   22  C   UNL     1       9.768  30.014  57.343  1.00  0.00     0.037 A 
HETATM   23  C   UNL     1       9.352  30.877  58.353  1.00  0.00     0.068 A 
HETATM   24  C   UNL     1       7.997  31.140  58.520  1.00  0.00     0.037 A 
HETATM   25  C   UNL     1       7.050  30.469  57.741  1.00  0.00     0.011 A 
BRANCH  23  26
HETATM   26  O   UNL     1      10.205  31.539  59.193  1.00  0.00    -0.356 OA
HETATM   27  C   UNL     1       9.581  31.981  60.398  1.00  0.00     0.210 C 
ENDBRANCH  23  26
ENDBRANCH  15  20
TORSDOF 2
ENDMDL
MODEL 3
REMARK VINA RESULT:      -9.5      4.140      9.193
REMARK  2 active torsions:
REMARK  status: ('A' for Active; 'I' for Inactive)
REMARK    1  A    between atoms: C_15  and  C_16 
REMARK    2  A    between atoms: C_19  and  O_20 
ROOT
HETATM    1  C   UNL     1       8.208  23.392  55.838  1.00  0.00     0.048 C 
HETATM    2  C   UNL     1       7.475  24.646  56.220  1.00  0.00    -0.061 A 
HETATM    3  C   UNL     1       8.198  25.810  56.532  1.00  0.00     0.021 A 
HETATM    4  C   UNL     1       7.513  26.978  56.919  1.00  0.00    -0.000 A 
HETATM    5  C   UNL     1       6.115  26.949  56.971  1.00  0.00     0.043 A 
HETATM    6  N   UNL     1       5.686  28.208  57.339  1.00  0.00    -0.353 N 
HETATM    7  H   UNL     1       4.722  28.488  57.462  1.00  0.00     0.166 HD
HETATM    8  C   UNL     1       6.767  28.984  57.620  1.00  0.00     0.066 A 
HETATM    9  C   UNL     1       7.919  28.277  57.331  1.00  0.00    -0.017 A 
HETATM   10  C   UNL     1       9.288  28.872  57.523  1.00  0.00     0.043 C 
HETATM   11  C   UNL     1       9.224  30.386  57.899  1.00  0.00     0.018 C 
HETATM   12  C   UNL     1       8.069  30.657  58.884  1.00  0.00     0.065 A 
HETATM   13  C   UNL     1       6.815  30.304  58.146  1.00  0.00     0.082 A 
HETATM   14  N   UNL     1       5.964  31.248  57.929  1.00  0.00    -0.203 NA
HETATM   15  C   UNL     1       7.752  32.111  59.252  1.00  0.00     0.121 A 
HETATM   16  N   UNL     1       6.486  32.351  58.525  1.00  0.00    -0.207 NA
HETATM   17  C   UNL     1       5.375  25.796  56.693  1.00  0.00     0.031 A 
HETATM   18  C   UNL     1       6.081  24.645  56.328  1.00  0.00     0.009 A 
HETATM   19  H   UNL     1       6.557  33.139  57.879  1.00  0.00     0.149 HD
ENDROOT
BRANCH  15  20
HETATM   20  C   UNL     1       7.576  32.309  60.760  1.00  0.00    -0.038 A 
HETATM   21  C   UNL     1       6.508  33.066  61.272  1.00  0.00     0.011 A 
HETATM   22  C   UNL     1       6.407  33.340  62.642  1.00  0.00     0.037 A 
HETATM   23  C   UNL     1       7.358  32.836  63.525  1.00  0.00     0.068 A 
HETATM   24  C   UNL     1       8.361  31.998  63.051  1.00  0.00     0.037 A 
HETATM   25  C   UNL     1       8.472  31.739  61.682  1.00  0.00     0.011 A 
BRANCH  23  26
HETATM   26  O   UNL     1       7.356  33.076  64.872  1.00  0.00    -0.356 OA
HETATM   27  C   UNL     1       6.224  33.825  65.311  1.00  0.00     0.210 C 
ENDBRANCH  23  26
ENDBRANCH  15  20
TORSDOF 2
ENDMDL
MODEL 4
REMARK VINA RESULT:      -8.8      1.977      2.680
REMARK  2 active torsions:
REMARK  status: ('A' for Active; 'I' for Inactive)
REMARK    1  A    between atoms: C_15  and  C_16 
REMARK    2  A    between atoms: C_19  and  O_20 
ROOT
HETATM    1  C   UNL     1       3.485  32.300  59.728  1.00  0.00     0.048 C 
HETATM    2  C   UNL     1       4.562  31.653  58.904  1.00  0.00    -0.061 A 
HETATM    3  C   UNL     1       4.212  30.801  57.842  1.00  0.00     0.021 A 
HETATM    4  C   UNL     1       5.221  30.170  57.089  1.00  0.00    -0.000 A 
HETATM    5  C   UNL     1       6.558  30.423  57.414  1.00  0.00     0.043 A 
HETATM    6  N   UNL     1       7.344  29.724  56.521  1.00  0.00    -0.353 N 
HETATM    7  H   UNL     1       8.354  29.711  56.511  1.00  0.00     0.166 HD
HETATM    8  C   UNL     1       6.545  28.965  55.723  1.00  0.00     0.066 A 
HETATM    9  C   UNL     1       5.222  29.244  56.010  1.00  0.00    -0.017 A 
HETATM   10  C   UNL     1       4.089  28.571  55.282  1.00  0.00     0.043 C 
HETATM   11  C   UNL     1       4.593  27.697  54.090  1.00  0.00     0.018 C 
HETATM   12  C   UNL     1       5.883  26.943  54.471  1.00  0.00     0.065 A 
HETATM   13  C   UNL     1       6.907  28.001  54.742  1.00  0.00     0.082 A 
HETATM   14  N   UNL     1       7.947  28.035  53.981  1.00  0.00    -0.203 NA
HETATM   15  C   UNL     1       6.612  26.151  53.381  1.00  0.00     0.121 A 
HETATM   16  N   UNL     1       7.806  26.988  53.127  1.00  0.00    -0.207 NA
HETATM   17  C   UNL     1       6.931  31.244  58.482  1.00  0.00     0.031 A 
HETATM   18  C   UNL     1       5.909  31.845  59.226  1.00  0.00     0.009 A 
HETATM   19  H   UNL     1       7.872  27.277  52.150  1.00  0.00     0.149 HD
ENDROOT
BRANCH  15  20
HETATM   20  C   UNL     1       7.005  24.744  53.840  1.00  0.00    -0.038 A 
HETATM   21  C   UNL     1       6.837  24.344  55.178  1.00  0.00     0.011 A 
HETATM   22  C   UNL     1       7.296  23.098  55.624  1.00  0.00     0.037 A 
HETATM   23  C   UNL     1       7.903  22.220  54.731  1.00  0.00     0.068 A 
HETATM   24  C   UNL     1       7.982  22.553  53.383  1.00  0.00     0.037 A 
HETATM   25  C   UNL     1       7.541  23.804  52.942  1.00  0.00     0.011 A 
BRANCH  23  26
HETATM   26  O   UNL     1       8.406  20.997  55.082  1.00  0.00    -0.356 OA
HETATM   27  C   UNL     1       8.373  20.755  56.488  1.00  0.00     0.210 C 
ENDBRANCH  23  26
ENDBRANCH  15  20
TORSDOF 2
ENDMDL
MODEL 5
REMARK VINA RESULT:      -8.6      8.986     11.553
REMARK  2 active torsions:
REMARK  status: ('A' for Active; 'I' for Inactive)
REMARK    1  A    between atoms: C_15  and  C_16 
REMARK    2  A    between atoms: C_19  and  O_20 
ROOT
HETATM    1  C   UNL     1       7.800  35.080  69.306  1.00  0.00     0.048 C 
HETATM    2  C   UNL     1       6.799  34.641  68.276  1.00  0.00    -0.061 A 
HETATM    3  C   UNL     1       7.240  34.186  67.021  1.00  0.00     0.021 A 
HETATM    4  C   UNL     1       6.300  33.804  66.045  1.00  0.00    -0.000 A 
HETATM    5  C   UNL     1       4.939  33.876  66.359  1.00  0.00     0.043 A 
HETATM    6  N   UNL     1       4.233  33.421  65.264  1.00  0.00    -0.353 N 
HETATM    7  H   UNL     1       3.226  33.362  65.197  1.00  0.00     0.166 HD
HETATM    8  C   UNL     1       5.101  33.171  64.247  1.00  0.00     0.066 A 
HETATM    9  C   UNL     1       6.394  33.352  64.700  1.00  0.00    -0.017 A 
HETATM   10  C   UNL     1       7.588  33.137  63.809  1.00  0.00     0.043 C 
HETATM   11  C   UNL     1       7.189  32.532  62.426  1.00  0.00     0.018 C 
HETATM   12  C   UNL     1       5.884  33.169  61.906  1.00  0.00     0.065 A 
HETATM   13  C   UNL     1       4.828  32.802  62.901  1.00  0.00     0.082 A 
HETATM   14  N   UNL     1       3.848  32.071  62.490  1.00  0.00    -0.203 NA
HETATM   15  C   UNL     1       5.251  32.596  60.633  1.00  0.00     0.121 A 
HETATM   16  N   UNL     1       4.068  31.882  61.163  1.00  0.00    -0.207 NA
HETATM   17  C   UNL     1       4.475  34.351  67.590  1.00  0.00     0.031 A 
HETATM   18  C   UNL     1       5.429  34.741  68.536  1.00  0.00     0.009 A 
HETATM   19  H   UNL     1       4.072  30.893  60.911  1.00  0.00     0.149 HD
ENDROOT
BRANCH  15  20
HETATM   20  C   UNL     1       4.845  33.687  59.638  1.00  0.00    -0.038 A 
HETATM   21  C   UNL     1       4.300  34.906  60.079  1.00  0.00     0.011 A 
HETATM   22  C   UNL     1       3.827  35.859  59.168  1.00  0.00     0.037 A 
HETATM   23  C   UNL     1       3.919  35.620  57.800  1.00  0.00     0.068 A 
HETATM   24  C   UNL     1       4.550  34.468  57.343  1.00  0.00     0.037 A 
HETATM   25  C   UNL     1       5.006  33.509  58.252  1.00  0.00     0.011 A 
BRANCH  23  26
HETATM   26  O   UNL     1       3.458  36.478  56.839  1.00  0.00    -0.356 OA
HETATM   27  C   UNL     1       2.837  37.645  57.376  1.00  0.00     0.210 C 
ENDBRANCH  23  26
ENDBRANCH  15  20
TORSDOF 2
ENDMDL
MODEL 6
REMARK VINA RESULT:      -8.5      5.522      8.791
REMARK  2 active torsions:
REMARK  status: ('A' for Active; 'I' for Inactive)
REMARK    1  A    between atoms: C_15  and  C_16 
REMARK    2  A    between atoms: C_19  and  O_20 
ROOT
HETATM    1  C   UNL     1       8.557  21.805  53.701  1.00  0.00     0.048 C 
HETATM    2  C   UNL     1       7.643  22.964  53.980  1.00  0.00    -0.061 A 
HETATM    3  C   UNL     1       7.084  23.687  52.912  1.00  0.00     0.021 A 
HETATM    4  C   UNL     1       6.251  24.792  53.174  1.00  0.00    -0.000 A 
HETATM    5  C   UNL     1       5.990  25.135  54.504  1.00  0.00     0.043 A 
HETATM    6  N   UNL     1       5.133  26.216  54.496  1.00  0.00    -0.353 N 
HETATM    7  H   UNL     1       4.772  26.687  55.314  1.00  0.00     0.166 HD
HETATM    8  C   UNL     1       4.938  26.621  53.212  1.00  0.00     0.066 A 
HETATM    9  C   UNL     1       5.576  25.741  52.358  1.00  0.00    -0.017 A 
HETATM   10  C   UNL     1       5.534  25.910  50.863  1.00  0.00     0.043 C 
HETATM   11  C   UNL     1       4.566  27.054  50.427  1.00  0.00     0.018 C 
HETATM   12  C   UNL     1       4.675  28.259  51.384  1.00  0.00     0.065 A 
HETATM   13  C   UNL     1       4.234  27.755  52.723  1.00  0.00     0.082 A 
HETATM   14  N   UNL     1       3.181  28.288  53.244  1.00  0.00    -0.203 NA
HETATM   15  C   UNL     1       3.691  29.420  51.207  1.00  0.00     0.121 A 
HETATM   16  N   UNL     1       2.792  29.252  52.371  1.00  0.00    -0.207 NA
HETATM   17  C   UNL     1       6.556  24.449  55.583  1.00  0.00     0.031 A 
HETATM   18  C   UNL     1       7.394  23.366  55.296  1.00  0.00     0.009 A 
HETATM   19  H   UNL     1       1.817  29.145  52.090  1.00  0.00     0.149 HD
ENDROOT
BRANCH  15  20
HETATM   20  C   UNL     1       4.385  30.785  51.231  1.00  0.00    -0.038 A 
HETATM   21  C   UNL     1       4.082  31.736  52.222  1.00  0.00     0.011 A 
HETATM   22  C   UNL     1       4.633  33.023  52.182  1.00  0.00     0.037 A 
HETATM   23  C   UNL     1       5.520  33.370  51.166  1.00  0.00     0.068 A 
HETATM   24  C   UNL     1       5.913  32.411  50.238  1.00  0.00     0.037 A 
HETATM   25  C   UNL     1       5.349  31.132  50.268  1.00  0.00     0.011 A 
BRANCH  23  26
HETATM   26  O   UNL     1       6.083  34.609  51.030  1.00  0.00    -0.356 OA
HETATM   27  C   UNL     1       6.715  35.076  52.221  1.00  0.00     0.210 C 
ENDBRANCH  23  26
ENDBRANCH  15  20
TORSDOF 2
ENDMDL
MODEL 7
REMARK VINA RESULT:      -8.3      4.895      5.855
REMARK  2 active torsions:
REMARK  status: ('A' for Active; 'I' for Inactive)
REMARK    1  A    between atoms: C_15  and  C_16 
REMARK    2  A    between atoms: C_19  and  O_20 
ROOT
HETATM    1  C   UNL     1       5.192  34.695  50.960  1.00  0.00     0.048 C 
HETATM    2  C   UNL     1       5.351  33.246  50.600  1.00  0.00    -0.061 A 
HETATM    3  C   UNL     1       4.836  32.253  51.452  1.00  0.00     0.021 A 
HETATM    4  C   UNL     1       5.011  30.893  51.130  1.00  0.00    -0.000 A 
HETATM    5  C   UNL     1       5.689  30.565  49.951  1.00  0.00     0.043 A 
HETATM    6  N   UNL     1       5.699  29.189  49.845  1.00  0.00    -0.353 N 
HETATM    7  H   UNL     1       6.123  28.660  49.095  1.00  0.00     0.166 HD
HETATM    8  C   UNL     1       5.148  28.651  50.966  1.00  0.00     0.066 A 
HETATM    9  C   UNL     1       4.668  29.670  51.769  1.00  0.00    -0.017 A 
HETATM   10  C   UNL     1       3.986  29.396  53.082  1.00  0.00     0.043 C 
HETATM   11  C   UNL     1       3.742  27.870  53.311  1.00  0.00     0.018 C 
HETATM   12  C   UNL     1       4.952  27.044  52.829  1.00  0.00     0.065 A 
HETATM   13  C   UNL     1       5.049  27.288  51.356  1.00  0.00     0.082 A 
HETATM   14  N   UNL     1       4.895  26.275  50.572  1.00  0.00    -0.203 NA
HETATM   15  C   UNL     1       4.838  25.516  52.833  1.00  0.00     0.121 A 
HETATM   16  N   UNL     1       4.723  25.205  51.391  1.00  0.00    -0.207 NA
HETATM   17  C   UNL     1       6.234  31.533  49.102  1.00  0.00     0.031 A 
HETATM   18  C   UNL     1       6.061  32.876  49.454  1.00  0.00     0.009 A 
HETATM   19  H   UNL     1       3.869  24.690  51.175  1.00  0.00     0.149 HD
ENDROOT
BRANCH  15  20
HETATM   20  C   UNL     1       6.061  24.837  53.454  1.00  0.00    -0.038 A 
HETATM   21  C   UNL     1       7.010  24.177  52.654  1.00  0.00     0.011 A 
HETATM   22  C   UNL     1       8.070  23.463  53.228  1.00  0.00     0.037 A 
HETATM   23  C   UNL     1       8.214  23.424  54.612  1.00  0.00     0.068 A 
HETATM   24  C   UNL     1       7.349  24.158  55.416  1.00  0.00     0.037 A 
HETATM   25  C   UNL     1       6.280  24.855  54.844  1.00  0.00     0.011 A 
BRANCH  23  26
HETATM   26  O   UNL     1       9.199  22.730  55.260  1.00  0.00    -0.356 OA
HETATM   27  C   UNL     1       8.709  21.615  56.004  1.00  0.00     0.210 C 
ENDBRANCH  23  26
ENDBRANCH  15  20
TORSDOF 2
ENDMDL
MODEL 8
REMARK VINA RESULT:      -8.2      4.592      8.287
REMARK  2 active torsions:
REMARK  status: ('A' for Active; 'I' for Inactive)
REMARK    1  A    between atoms: C_15  and  C_16 
REMARK    2  A    between atoms: C_19  and  O_20 
ROOT
HETATM    1  C   UNL     1       2.314  29.403  46.926  1.00  0.00     0.048 C 
HETATM    2  C   UNL     1       3.171  28.572  47.837  1.00  0.00    -0.061 A 
HETATM    3  C   UNL     1       3.095  28.757  49.229  1.00  0.00     0.021 A 
HETATM    4  C   UNL     1       3.920  27.999  50.082  1.00  0.00    -0.000 A 
HETATM    5  C   UNL     1       4.793  27.064  49.516  1.00  0.00     0.043 A 
HETATM    6  N   UNL     1       5.458  26.436  50.548  1.00  0.00    -0.353 N 
HETATM    7  H   UNL     1       6.157  25.713  50.443  1.00  0.00     0.166 HD
HETATM    8  C   UNL     1       5.108  27.020  51.726  1.00  0.00     0.066 A 
HETATM    9  C   UNL     1       4.125  27.963  51.489  1.00  0.00    -0.017 A 
HETATM   10  C   UNL     1       3.516  28.775  52.600  1.00  0.00     0.043 C 
HETATM   11  C   UNL     1       3.993  28.297  54.008  1.00  0.00     0.018 C 
HETATM   12  C   UNL     1       5.493  27.937  53.985  1.00  0.00     0.065 A 
HETATM   13  C   UNL     1       5.620  26.790  53.032  1.00  0.00     0.082 A 
HETATM   14  N   UNL     1       6.042  25.666  53.503  1.00  0.00    -0.203 NA
HETATM   15  C   UNL     1       6.109  27.303  55.237  1.00  0.00     0.121 A 
HETATM   16  N   UNL     1       6.307  25.899  54.815  1.00  0.00    -0.207 NA
HETATM   17  C   UNL     1       4.906  26.882  48.134  1.00  0.00     0.031 A 
HETATM   18  C   UNL     1       4.088  27.660  47.308  1.00  0.00     0.009 A 
HETATM   19  H   UNL     1       5.822  25.242  55.427  1.00  0.00     0.149 HD
ENDROOT
BRANCH  15  20
HETATM   20  C   UNL     1       7.434  27.958  55.635  1.00  0.00    -0.038 A 
HETATM   21  C   UNL     1       7.850  27.998  56.977  1.00  0.00     0.011 A 
HETATM   22  C   UNL     1       9.006  28.692  57.356  1.00  0.00     0.037 A 
HETATM   23  C   UNL     1       9.781  29.332  56.393  1.00  0.00     0.068 A 
HETATM   24  C   UNL     1       9.445  29.214  55.049  1.00  0.00     0.037 A 
HETATM   25  C   UNL     1       8.281  28.537  54.673  1.00  0.00     0.011 A 
BRANCH  23  26
HETATM   26  O   UNL     1      10.908  30.056  56.674  1.00  0.00    -0.356 OA
HETATM   27  C   UNL     1      10.725  31.001  57.727  1.00  0.00     0.210 C 
ENDBRANCH  23  26
ENDBRANCH  15  20
TORSDOF 2
ENDMDL
MODEL 9
REMARK VINA RESULT:      -7.9      7.714     13.055
REMARK  2 active torsions:
REMARK  status: ('A' for Active; 'I' for Inactive)
REMARK    1  A    between atoms: C_15  and  C_16 
REMARK    2  A    between atoms: C_19  and  O_20 
ROOT
HETATM    1  C   UNL     1       7.383  29.717  57.195  1.00  0.00     0.048 C 
HETATM    2  C   UNL     1       7.536  30.446  58.499  1.00  0.00    -0.061 A 
HETATM    3  C   UNL     1       6.562  31.378  58.897  1.00  0.00     0.021 A 
HETATM    4  C   UNL     1       6.721  32.084  60.105  1.00  0.00    -0.000 A 
HETATM    5  C   UNL     1       7.850  31.826  60.890  1.00  0.00     0.043 A 
HETATM    6  N   UNL     1       7.758  32.609  62.022  1.00  0.00    -0.353 N 
HETATM    7  H   UNL     1       8.435  32.639  62.773  1.00  0.00     0.166 HD
HETATM    8  C   UNL     1       6.670  33.419  61.919  1.00  0.00     0.066 A 
HETATM    9  C   UNL     1       5.974  33.096  60.769  1.00  0.00    -0.017 A 
HETATM   10  C   UNL     1       4.707  33.809  60.378  1.00  0.00     0.043 C 
HETATM   11  C   UNL     1       4.214  34.786  61.491  1.00  0.00     0.018 C 
HETATM   12  C   UNL     1       5.404  35.526  62.136  1.00  0.00     0.065 A 
HETATM   13  C   UNL     1       6.241  34.466  62.780  1.00  0.00     0.082 A 
HETATM   14  N   UNL     1       6.382  34.511  64.061  1.00  0.00    -0.203 NA
HETATM   15  C   UNL     1       5.134  36.417  63.353  1.00  0.00     0.121 A 
HETATM   16  N   UNL     1       5.711  35.623  64.460  1.00  0.00    -0.207 NA
HETATM   17  C   UNL     1       8.846  30.926  60.501  1.00  0.00     0.031 A 
HETATM   18  C   UNL     1       8.673  30.250  59.289  1.00  0.00     0.009 A 
HETATM   19  H   UNL     1       5.023  35.417  65.185  1.00  0.00     0.149 HD
ENDROOT
BRANCH  15  20
HETATM   20  C   UNL     1       5.808  37.787  63.239  1.00  0.00    -0.038 A 
HETATM   21  C   UNL     1       6.394  38.209  62.033  1.00  0.00     0.011 A 
HETATM   22  C   UNL     1       7.106  39.413  61.956  1.00  0.00     0.037 A 
HETATM   23  C   UNL     1       7.217  40.229  63.079  1.00  0.00     0.068 A 
HETATM   24  C   UNL     1       6.554  39.881  64.251  1.00  0.00     0.037 A 
HETATM   25  C   UNL     1       5.859  38.670  64.332  1.00  0.00     0.011 A 
BRANCH  23  26
HETATM   26  O   UNL     1       7.915  41.405  63.105  1.00  0.00    -0.356 OA
HETATM   27  C   UNL     1       7.341  42.422  62.285  1.00  0.00     0.210 C 
ENDBRANCH  23  26
ENDBRANCH  15  20
TORSDOF 2
ENDMDL
MODEL 10
REMARK VINA RESULT:      -7.3     15.700     17.871
REMARK  2 active torsions:
REMARK  status: ('A' for Active; 'I' for Inactive)
REMARK    1  A    between atoms: C_15  and  C_16 
REMARK    2  A    between atoms: C_19  and  O_20 
ROOT
HETATM    1  C   UNL     1      18.637  10.477  58.894  1.00  0.00     0.048 C 
HETATM    2  C   UNL     1      17.721  10.034  57.790  1.00  0.00    -0.061 A 
HETATM    3  C   UNL     1      16.820  10.950  57.219  1.00  0.00     0.021 A 
HETATM    4  C   UNL     1      15.939  10.527  56.205  1.00  0.00    -0.000 A 
HETATM    5  C   UNL     1      15.996   9.196  55.779  1.00  0.00     0.043 A 
HETATM    6  N   UNL     1      15.070   9.041  54.768  1.00  0.00    -0.353 N 
HETATM    7  H   UNL     1      14.882   8.183  54.269  1.00  0.00     0.166 HD
HETATM    8  C   UNL     1      14.369  10.198  54.624  1.00  0.00     0.066 A 
HETATM    9  C   UNL     1      14.904  11.159  55.462  1.00  0.00    -0.017 A 
HETATM   10  C   UNL     1      14.353  12.558  55.524  1.00  0.00     0.043 C 
HETATM   11  C   UNL     1      13.269  12.813  54.430  1.00  0.00     0.018 C 
HETATM   12  C   UNL     1      12.356  11.581  54.267  1.00  0.00     0.065 A 
HETATM   13  C   UNL     1      13.247  10.474  53.796  1.00  0.00     0.082 A 
HETATM   14  N   UNL     1      13.010   9.970  52.633  1.00  0.00    -0.203 NA
HETATM   15  C   UNL     1      11.325  11.583  53.133  1.00  0.00     0.121 A 
HETATM   16  N   UNL     1      11.908  10.619  52.175  1.00  0.00    -0.207 NA
HETATM   17  C   UNL     1      16.863   8.259  56.351  1.00  0.00     0.031 A 
HETATM   18  C   UNL     1      17.715   8.701  57.369  1.00  0.00     0.009 A 
HETATM   19  H   UNL     1      12.062  11.036  51.256  1.00  0.00     0.149 HD
ENDROOT
BRANCH  15  20
HETATM   20  C   UNL     1       9.937  11.136  53.601  1.00  0.00    -0.038 A 
HETATM   21  C   UNL     1       8.966  12.075  53.993  1.00  0.00     0.011 A 
HETATM   22  C   UNL     1       7.736  11.665  54.524  1.00  0.00     0.037 A 
HETATM   23  C   UNL     1       7.447  10.308  54.643  1.00  0.00     0.068 A 
HETATM   24  C   UNL     1       8.351   9.367  54.162  1.00  0.00     0.037 A 
HETATM   25  C   UNL     1       9.585   9.775  53.649  1.00  0.00     0.011 A 
BRANCH  23  26
HETATM   26  O   UNL     1       6.287   9.816  55.176  1.00  0.00    -0.356 OA
HETATM   27  C   UNL     1       5.737   8.733  54.428  1.00  0.00     0.210 C 
ENDBRANCH  23  26
ENDBRANCH  15  20
TORSDOF 2
ENDMDL
