MODEL 1
REMARK VINA RESULT:     -10.8      0.000      0.000
REMARK  7 active torsions:
REMARK  status: ('A' for Active; 'I' for Inactive)
REMARK    1  A    between atoms: C_3  and  C_4 
REMARK    2  A    between atoms: C_4  and  N_5 
REMARK    3  A    between atoms: C_9  and  C_28 
REMARK    4  A    between atoms: C_9  and  C_10 
REMARK    5  A    between atoms: N_13  and  C_15 
REMARK    6  A    between atoms: C_15  and  C_16 
REMARK    7  A    between atoms: C_28  and  C_29 
ROOT
HETATM    1  C   UNL     1       3.748  30.453  54.945  1.00  0.00     0.112 C 
HETATM    2  C   UNL     1       4.318  29.414  53.993  1.00  0.00    -0.109 C 
HETATM    3  C   UNL     1       4.807  28.523  53.178  1.00  0.00    -0.087 C 
ENDROOT
BRANCH   3   4
HETATM    4  C   UNL     1       5.377  27.483  52.227  1.00  0.00     0.230 C 
BRANCH   4   5
HETATM    5  N   UNL     1       5.880  26.344  52.950  1.00  0.00    -0.257 N 
HETATM    6  C   UNL     1       5.257  25.143  52.987  1.00  0.00     0.327 A 
HETATM    7  O   UNL     1       4.204  24.813  52.473  1.00  0.00    -0.247 OA
HETATM    8  N   UNL     1       5.949  24.322  53.837  1.00  0.00    -0.324 N 
HETATM    9  C   UNL     1       7.081  24.971  54.487  1.00  0.00     0.123 A 
HETATM   10  H   UNL     1       5.793  23.321  53.771  1.00  0.00     0.165 HD
HETATM   11  C   UNL     1       6.938  26.366  53.813  1.00  0.00     0.257 A 
HETATM   12  O   UNL     1       7.602  27.352  54.091  1.00  0.00    -0.270 OA
BRANCH   9  13
HETATM   13  C   UNL     1       8.370  24.253  54.011  1.00  0.00     0.080 C 
BRANCH  13  14
HETATM   14  C   UNL     1       8.441  22.753  54.170  1.00  0.00    -0.052 A 
HETATM   15  C   UNL     1       8.921  22.180  55.355  1.00  0.00     0.049 A 
HETATM   16  C   UNL     1       9.011  20.796  55.479  1.00  0.00     0.116 A 
HETATM   17  F   UNL     1       9.474  20.267  56.617  1.00  0.00    -0.206 F 
HETATM   18  C   UNL     1       8.634  19.958  54.437  1.00  0.00     0.042 A 
HETATM   19  C   UNL     1       8.164  20.513  53.250  1.00  0.00     0.003 A 
HETATM   20  C   UNL     1       8.072  21.903  53.115  1.00  0.00     0.007 A 
ENDBRANCH  13  14
ENDBRANCH   9  13
BRANCH   9  21
HETATM   21  C   UNL     1       6.876  25.003  56.052  1.00  0.00     0.027 C 
HETATM   22  C   UNL     1       5.559  25.671  56.504  1.00  0.00     0.035 C 
HETATM   23  C   UNL     1       5.562  27.204  56.479  1.00  0.00     0.235 C 
HETATM   24  N   UNL     1       6.778  27.790  57.156  1.00  0.00    -0.067 N 
HETATM   25  H   UNL     1       6.637  27.680  58.168  1.00  0.00     0.280 HD
HETATM   26  C   UNL     1       8.089  27.130  56.808  1.00  0.00     0.235 C 
HETATM   27  C   UNL     1       7.994  25.623  56.912  1.00  0.00     0.035 C 
BRANCH  24  28
HETATM   28  C   UNL     1       6.922  29.291  56.898  1.00  0.00     0.273 C 
BRANCH  28  29
HETATM   29  C   UNL     1       7.050  30.179  58.104  1.00  0.00    -0.030 A 
HETATM   30  C   UNL     1       8.085  30.022  59.036  1.00  0.00     0.048 A 
HETATM   31  C   UNL     1       8.191  30.891  60.123  1.00  0.00     0.102 A 
HETATM   32  C   UNL     1       7.269  31.927  60.292  1.00  0.00     0.102 A 
HETATM   33  O   UNL     1       9.227  30.660  60.990  1.00  0.00    -0.346 OA
HETATM   34  O   UNL     1       7.307  32.806  61.340  1.00  0.00    -0.346 OA
HETATM   35  C   UNL     1       6.259  32.114  59.357  1.00  0.00     0.040 A 
HETATM   36  C   UNL     1       8.152  32.335  62.395  1.00  0.00     0.202 C 
HETATM   37  C   UNL     1       9.460  31.793  61.840  1.00  0.00     0.202 C 
HETATM   38  C   UNL     1       6.145  31.243  58.271  1.00  0.00     0.012 A 
ENDBRANCH  28  29
ENDBRANCH  24  28
ENDBRANCH   9  21
ENDBRANCH   4   5
ENDBRANCH   3   4
TORSDOF 7
ENDMDL
MODEL 2
REMARK VINA RESULT:     -10.6      1.593      2.398
REMARK  7 active torsions:
REMARK  status: ('A' for Active; 'I' for Inactive)
REMARK    1  A    between atoms: C_3  and  C_4 
REMARK    2  A    between atoms: C_4  and  N_5 
REMARK    3  A    between atoms: C_9  and  C_28 
REMARK    4  A    between atoms: C_9  and  C_10 
REMARK    5  A    between atoms: N_13  and  C_15 
REMARK    6  A    between atoms: C_15  and  C_16 
REMARK    7  A    between atoms: C_28  and  C_29 
ROOT
HETATM    1  C   UNL     1       3.482  30.576  54.492  1.00  0.00     0.112 C 
HETATM    2  C   UNL     1       4.247  29.482  53.765  1.00  0.00    -0.109 C 
HETATM    3  C   UNL     1       4.904  28.544  53.141  1.00  0.00    -0.087 C 
ENDROOT
BRANCH   3   4
HETATM    4  C   UNL     1       5.669  27.451  52.414  1.00  0.00     0.230 C 
BRANCH   4   5
HETATM    5  N   UNL     1       6.054  26.401  53.319  1.00  0.00    -0.257 N 
HETATM    6  C   UNL     1       5.416  25.211  53.405  1.00  0.00     0.327 A 
HETATM    7  O   UNL     1       4.437  24.825  52.793  1.00  0.00    -0.247 OA
HETATM    8  N   UNL     1       5.975  24.491  54.427  1.00  0.00    -0.324 N 
HETATM    9  C   UNL     1       7.019  25.210  55.147  1.00  0.00     0.123 A 
HETATM   10  H   UNL     1       5.817  23.489  54.451  1.00  0.00     0.165 HD
HETATM   11  C   UNL     1       6.987  26.520  54.310  1.00  0.00     0.257 A 
HETATM   12  O   UNL     1       7.622  27.532  54.565  1.00  0.00    -0.270 OA
BRANCH   9  13
HETATM   13  C   UNL     1       8.350  24.445  54.932  1.00  0.00     0.080 C 
BRANCH  13  14
HETATM   14  C   UNL     1       8.290  22.940  54.828  1.00  0.00    -0.052 A 
HETATM   15  C   UNL     1       8.371  22.304  53.582  1.00  0.00     0.049 A 
HETATM   16  C   UNL     1       8.284  20.917  53.495  1.00  0.00     0.116 A 
HETATM   17  F   UNL     1       8.361  20.327  52.296  1.00  0.00    -0.206 F 
HETATM   18  C   UNL     1       8.110  20.138  54.631  1.00  0.00     0.042 A 
HETATM   19  C   UNL     1       8.018  20.756  55.876  1.00  0.00     0.003 A 
HETATM   20  C   UNL     1       8.103  22.149  55.974  1.00  0.00     0.007 A 
ENDBRANCH  13  14
ENDBRANCH   9  13
BRANCH   9  21
HETATM   21  C   UNL     1       6.606  25.416  56.657  1.00  0.00     0.027 C 
HETATM   22  C   UNL     1       5.243  26.118  56.850  1.00  0.00     0.035 C 
HETATM   23  C   UNL     1       5.259  27.639  56.653  1.00  0.00     0.235 C 
HETATM   24  N   UNL     1       6.376  28.308  57.417  1.00  0.00    -0.067 N 
HETATM   25  H   UNL     1       6.100  28.311  58.406  1.00  0.00     0.280 HD
HETATM   26  C   UNL     1       7.719  27.626  57.324  1.00  0.00     0.235 C 
HETATM   27  C   UNL     1       7.602  26.139  57.584  1.00  0.00     0.035 C 
BRANCH  24  28
HETATM   28  C   UNL     1       6.563  29.772  57.013  1.00  0.00     0.273 C 
BRANCH  28  29
HETATM   29  C   UNL     1       6.167  30.812  58.023  1.00  0.00    -0.030 A 
HETATM   30  C   UNL     1       4.846  31.264  58.145  1.00  0.00     0.048 A 
HETATM   31  C   UNL     1       4.512  32.205  59.121  1.00  0.00     0.102 A 
HETATM   32  C   UNL     1       5.489  32.703  59.986  1.00  0.00     0.102 A 
HETATM   33  O   UNL     1       3.200  32.598  59.165  1.00  0.00    -0.346 OA
HETATM   34  O   UNL     1       5.233  33.634  60.956  1.00  0.00    -0.346 OA
HETATM   35  C   UNL     1       6.795  32.237  59.897  1.00  0.00     0.040 A 
HETATM   36  C   UNL     1       3.972  34.280  60.749  1.00  0.00     0.202 C 
HETATM   37  C   UNL     1       2.895  33.265  60.399  1.00  0.00     0.202 C 
HETATM   38  C   UNL     1       7.135  31.301  58.919  1.00  0.00     0.012 A 
ENDBRANCH  28  29
ENDBRANCH  24  28
ENDBRANCH   9  21
ENDBRANCH   4   5
ENDBRANCH   3   4
TORSDOF 7
ENDMDL
MODEL 3
REMARK VINA RESULT:     -10.0      1.752      2.306
REMARK  7 active torsions:
REMARK  status: ('A' for Active; 'I' for Inactive)
REMARK    1  A    between atoms: C_3  and  C_4 
REMARK    2  A    between atoms: C_4  and  N_5 
REMARK    3  A    between atoms: C_9  and  C_28 
REMARK    4  A    between atoms: C_9  and  C_10 
REMARK    5  A    between atoms: N_13  and  C_15 
REMARK    6  A    between atoms: C_15  and  C_16 
REMARK    7  A    between atoms: C_28  and  C_29 
ROOT
HETATM    1  C   UNL     1       5.761  31.418  50.224  1.00  0.00     0.112 C 
HETATM    2  C   UNL     1       5.382  29.961  50.435  1.00  0.00    -0.109 C 
HETATM    3  C   UNL     1       5.058  28.711  50.617  1.00  0.00    -0.087 C 
ENDROOT
BRANCH   3   4
HETATM    4  C   UNL     1       4.679  27.255  50.829  1.00  0.00     0.230 C 
BRANCH   4   5
HETATM    5  N   UNL     1       5.026  26.820  52.156  1.00  0.00    -0.257 N 
HETATM    6  C   UNL     1       4.430  27.284  53.279  1.00  0.00     0.327 A 
HETATM    7  O   UNL     1       3.557  28.126  53.387  1.00  0.00    -0.247 OA
HETATM    8  N   UNL     1       5.063  26.738  54.364  1.00  0.00    -0.324 N 
HETATM    9  C   UNL     1       6.198  25.893  54.015  1.00  0.00     0.123 A 
HETATM   10  H   UNL     1       4.581  26.751  55.257  1.00  0.00     0.165 HD
HETATM   11  C   UNL     1       6.092  26.026  52.470  1.00  0.00     0.257 A 
HETATM   12  O   UNL     1       6.897  25.576  51.669  1.00  0.00    -0.270 OA
BRANCH   9  13
HETATM   13  C   UNL     1       5.867  24.449  54.474  1.00  0.00     0.080 C 
BRANCH  13  14
HETATM   14  C   UNL     1       6.992  23.442  54.500  1.00  0.00    -0.052 A 
HETATM   15  C   UNL     1       7.315  22.697  53.358  1.00  0.00     0.049 A 
HETATM   16  C   UNL     1       8.334  21.750  53.403  1.00  0.00     0.116 A 
HETATM   17  F   UNL     1       8.626  21.046  52.303  1.00  0.00    -0.206 F 
HETATM   18  C   UNL     1       9.046  21.519  54.572  1.00  0.00     0.042 A 
HETATM   19  C   UNL     1       8.731  22.245  55.719  1.00  0.00     0.003 A 
HETATM   20  C   UNL     1       7.707  23.198  55.684  1.00  0.00     0.007 A 
ENDBRANCH  13  14
ENDBRANCH   9  13
BRANCH   9  21
HETATM   21  C   UNL     1       7.533  26.490  54.609  1.00  0.00     0.027 C 
HETATM   22  C   UNL     1       7.609  26.461  56.152  1.00  0.00     0.035 C 
HETATM   23  C   UNL     1       6.808  27.557  56.866  1.00  0.00     0.235 C 
HETATM   24  N   UNL     1       7.069  28.929  56.293  1.00  0.00    -0.067 N 
HETATM   25  H   UNL     1       7.999  29.216  56.622  1.00  0.00     0.280 HD
HETATM   26  C   UNL     1       7.079  29.006  54.786  1.00  0.00     0.235 C 
HETATM   27  C   UNL     1       7.937  27.915  54.182  1.00  0.00     0.035 C 
BRANCH  24  28
HETATM   28  C   UNL     1       6.081  29.975  56.812  1.00  0.00     0.273 C 
BRANCH  28  29
HETATM   29  C   UNL     1       6.439  30.671  58.095  1.00  0.00    -0.030 A 
HETATM   30  C   UNL     1       7.628  30.396  58.782  1.00  0.00     0.048 A 
HETATM   31  C   UNL     1       7.942  31.091  59.952  1.00  0.00     0.102 A 
HETATM   32  C   UNL     1       7.076  32.068  60.447  1.00  0.00     0.102 A 
HETATM   33  O   UNL     1       9.120  30.752  60.565  1.00  0.00    -0.346 OA
HETATM   34  O   UNL     1       7.315  32.777  61.593  1.00  0.00    -0.346 OA
HETATM   35  C   UNL     1       5.910  32.374  59.756  1.00  0.00     0.040 A 
HETATM   36  C   UNL     1       8.339  32.169  62.387  1.00  0.00     0.202 C 
HETATM   37  C   UNL     1       9.516  31.747  61.521  1.00  0.00     0.202 C 
HETATM   38  C   UNL     1       5.589  31.677  58.590  1.00  0.00     0.012 A 
ENDBRANCH  28  29
ENDBRANCH  24  28
ENDBRANCH   9  21
ENDBRANCH   4   5
ENDBRANCH   3   4
TORSDOF 7
ENDMDL
MODEL 4
REMARK VINA RESULT:      -9.9      1.886      3.000
REMARK  7 active torsions:
REMARK  status: ('A' for Active; 'I' for Inactive)
REMARK    1  A    between atoms: C_3  and  C_4 
REMARK    2  A    between atoms: C_4  and  N_5 
REMARK    3  A    between atoms: C_9  and  C_28 
REMARK    4  A    between atoms: C_9  and  C_10 
REMARK    5  A    between atoms: N_13  and  C_15 
REMARK    6  A    between atoms: C_15  and  C_16 
REMARK    7  A    between atoms: C_28  and  C_29 
ROOT
HETATM    1  C   UNL     1       4.135  32.799  53.560  1.00  0.00     0.112 C 
HETATM    2  C   UNL     1       3.982  31.288  53.491  1.00  0.00    -0.109 C 
HETATM    3  C   UNL     1       3.851  29.993  53.432  1.00  0.00    -0.087 C 
ENDROOT
BRANCH   3   4
HETATM    4  C   UNL     1       3.698  28.482  53.363  1.00  0.00     0.230 C 
BRANCH   4   5
HETATM    5  N   UNL     1       4.431  27.840  54.423  1.00  0.00    -0.257 N 
HETATM    6  C   UNL     1       4.251  28.117  55.735  1.00  0.00     0.327 A 
HETATM    7  O   UNL     1       3.503  28.929  56.248  1.00  0.00    -0.247 OA
HETATM    8  N   UNL     1       5.171  27.405  56.458  1.00  0.00    -0.324 N 
HETATM    9  C   UNL     1       6.090  26.629  55.634  1.00  0.00     0.123 A 
HETATM   10  H   UNL     1       5.004  27.273  57.450  1.00  0.00     0.165 HD
HETATM   11  C   UNL     1       5.499  27.008  54.247  1.00  0.00     0.257 A 
HETATM   12  O   UNL     1       5.981  26.694  53.169  1.00  0.00    -0.270 OA
BRANCH   9  13
HETATM   13  C   UNL     1       5.852  25.130  55.950  1.00  0.00     0.080 C 
BRANCH  13  14
HETATM   14  C   UNL     1       6.891  24.138  55.487  1.00  0.00    -0.052 A 
HETATM   15  C   UNL     1       6.955  23.740  54.144  1.00  0.00     0.049 A 
HETATM   16  C   UNL     1       7.899  22.802  53.735  1.00  0.00     0.116 A 
HETATM   17  F   UNL     1       7.943  22.432  52.449  1.00  0.00    -0.206 F 
HETATM   18  C   UNL     1       8.788  22.239  54.640  1.00  0.00     0.042 A 
HETATM   19  C   UNL     1       8.731  22.616  55.979  1.00  0.00     0.003 A 
HETATM   20  C   UNL     1       7.786  23.557  56.401  1.00  0.00     0.007 A 
ENDBRANCH  13  14
ENDBRANCH   9  13
BRANCH   9  21
HETATM   21  C   UNL     1       7.574  27.126  55.845  1.00  0.00     0.027 C 
HETATM   22  C   UNL     1       8.008  27.212  57.325  1.00  0.00     0.035 C 
HETATM   23  C   UNL     1       7.494  28.441  58.086  1.00  0.00     0.235 C 
HETATM   24  N   UNL     1       7.729  29.727  57.331  1.00  0.00    -0.067 N 
HETATM   25  H   UNL     1       8.732  29.939  57.409  1.00  0.00     0.280 HD
HETATM   26  C   UNL     1       7.390  29.682  55.861  1.00  0.00     0.235 C 
HETATM   27  C   UNL     1       7.985  28.460  55.194  1.00  0.00     0.035 C 
BRANCH  24  28
HETATM   28  C   UNL     1       6.985  30.911  57.950  1.00  0.00     0.273 C 
BRANCH  28  29
HETATM   29  C   UNL     1       7.334  31.268  59.368  1.00  0.00    -0.030 A 
HETATM   30  C   UNL     1       6.437  31.944  60.206  1.00  0.00     0.048 A 
HETATM   31  C   UNL     1       6.786  32.225  61.528  1.00  0.00     0.102 A 
HETATM   32  C   UNL     1       8.030  31.835  62.029  1.00  0.00     0.102 A 
HETATM   33  O   UNL     1       5.854  32.896  62.275  1.00  0.00    -0.346 OA
HETATM   34  O   UNL     1       8.440  32.089  63.310  1.00  0.00    -0.346 OA
HETATM   35  C   UNL     1       8.914  31.134  61.218  1.00  0.00     0.040 A 
HETATM   36  C   UNL     1       7.623  33.080  63.940  1.00  0.00     0.202 C 
HETATM   37  C   UNL     1       6.148  32.813  63.677  1.00  0.00     0.202 C 
HETATM   38  C   UNL     1       8.572  30.856  59.893  1.00  0.00     0.012 A 
ENDBRANCH  28  29
ENDBRANCH  24  28
ENDBRANCH   9  21
ENDBRANCH   4   5
ENDBRANCH   3   4
TORSDOF 7
ENDMDL
MODEL 5
REMARK VINA RESULT:      -9.8      3.345      7.758
REMARK  7 active torsions:
REMARK  status: ('A' for Active; 'I' for Inactive)
REMARK    1  A    between atoms: C_3  and  C_4 
REMARK    2  A    between atoms: C_4  and  N_5 
REMARK    3  A    between atoms: C_9  and  C_28 
REMARK    4  A    between atoms: C_9  and  C_10 
REMARK    5  A    between atoms: N_13  and  C_15 
REMARK    6  A    between atoms: C_15  and  C_16 
REMARK    7  A    between atoms: C_28  and  C_29 
ROOT
HETATM    1  C   UNL     1       3.106  30.976  54.819  1.00  0.00     0.112 C 
HETATM    2  C   UNL     1       3.957  29.930  55.520  1.00  0.00    -0.109 C 
HETATM    3  C   UNL     1       4.687  29.032  56.121  1.00  0.00    -0.087 C 
ENDROOT
BRANCH   3   4
HETATM    4  C   UNL     1       5.538  27.986  56.822  1.00  0.00     0.230 C 
BRANCH   4   5
HETATM    5  N   UNL     1       6.287  27.208  55.870  1.00  0.00    -0.257 N 
HETATM    6  C   UNL     1       7.111  27.747  54.943  1.00  0.00     0.327 A 
HETATM    7  O   UNL     1       7.350  28.921  54.724  1.00  0.00    -0.247 OA
HETATM    8  N   UNL     1       7.583  26.740  54.144  1.00  0.00    -0.324 N 
HETATM    9  C   UNL     1       7.033  25.429  54.467  1.00  0.00     0.123 A 
HETATM   10  H   UNL     1       8.414  26.917  53.588  1.00  0.00     0.165 HD
HETATM   11  C   UNL     1       6.142  25.865  55.665  1.00  0.00     0.257 A 
HETATM   12  O   UNL     1       5.360  25.140  56.259  1.00  0.00    -0.270 OA
BRANCH   9  13
HETATM   13  C   UNL     1       8.205  24.533  54.943  1.00  0.00     0.080 C 
BRANCH  13  14
HETATM   14  C   UNL     1       8.122  23.052  54.657  1.00  0.00    -0.052 A 
HETATM   15  C   UNL     1       7.682  22.156  55.640  1.00  0.00     0.049 A 
HETATM   16  C   UNL     1       7.638  20.790  55.374  1.00  0.00     0.116 A 
HETATM   17  F   UNL     1       7.218  19.948  56.326  1.00  0.00    -0.206 F 
HETATM   18  C   UNL     1       8.031  20.287  54.141  1.00  0.00     0.042 A 
HETATM   19  C   UNL     1       8.479  21.164  53.157  1.00  0.00     0.003 A 
HETATM   20  C   UNL     1       8.528  22.539  53.414  1.00  0.00     0.007 A 
ENDBRANCH  13  14
ENDBRANCH   9  13
BRANCH   9  21
HETATM   21  C   UNL     1       6.212  24.859  53.245  1.00  0.00     0.027 C 
HETATM   22  C   UNL     1       6.665  25.398  51.871  1.00  0.00     0.035 C 
HETATM   23  C   UNL     1       6.178  26.812  51.531  1.00  0.00     0.235 C 
HETATM   24  N   UNL     1       4.697  26.984  51.768  1.00  0.00    -0.067 N 
HETATM   25  H   UNL     1       4.215  26.496  51.003  1.00  0.00     0.280 HD
HETATM   26  C   UNL     1       4.182  26.411  53.066  1.00  0.00     0.235 C 
HETATM   27  C   UNL     1       4.678  24.998  53.281  1.00  0.00     0.035 C 
BRANCH  24  28
HETATM   28  C   UNL     1       4.261  28.448  51.693  1.00  0.00     0.273 C 
BRANCH  28  29
HETATM   29  C   UNL     1       3.290  28.815  50.605  1.00  0.00    -0.030 A 
HETATM   30  C   UNL     1       3.152  28.044  49.443  1.00  0.00     0.048 A 
HETATM   31  C   UNL     1       2.213  28.397  48.472  1.00  0.00     0.102 A 
HETATM   32  C   UNL     1       1.401  29.519  48.650  1.00  0.00     0.102 A 
HETATM   33  O   UNL     1       2.150  27.593  47.364  1.00  0.00    -0.346 OA
HETATM   34  O   UNL     1       0.470  29.929  47.734  1.00  0.00    -0.346 OA
HETATM   35  C   UNL     1       1.505  30.272  49.814  1.00  0.00     0.040 A 
HETATM   36  C   UNL     1       0.671  29.306  46.461  1.00  0.00     0.202 C 
HETATM   37  C   UNL     1       0.941  27.818  46.623  1.00  0.00     0.202 C 
HETATM   38  C   UNL     1       2.447  29.926  50.784  1.00  0.00     0.012 A 
ENDBRANCH  28  29
ENDBRANCH  24  28
ENDBRANCH   9  21
ENDBRANCH   4   5
ENDBRANCH   3   4
TORSDOF 7
ENDMDL
MODEL 6
REMARK VINA RESULT:      -9.3      1.839      2.485
REMARK  7 active torsions:
REMARK  status: ('A' for Active; 'I' for Inactive)
REMARK    1  A    between atoms: C_3  and  C_4 
REMARK    2  A    between atoms: C_4  and  N_5 
REMARK    3  A    between atoms: C_9  and  C_28 
REMARK    4  A    between atoms: C_9  and  C_10 
REMARK    5  A    between atoms: N_13  and  C_15 
REMARK    6  A    between atoms: C_15  and  C_16 
REMARK    7  A    between atoms: C_28  and  C_29 
ROOT
HETATM    1  C   UNL     1       1.270  27.475  48.271  1.00  0.00     0.112 C 
HETATM    2  C   UNL     1       2.680  27.625  48.817  1.00  0.00    -0.109 C 
HETATM    3  C   UNL     1       3.890  27.755  49.286  1.00  0.00    -0.087 C 
ENDROOT
BRANCH   3   4
HETATM    4  C   UNL     1       5.300  27.906  49.833  1.00  0.00     0.230 C 
BRANCH   4   5
HETATM    5  N   UNL     1       5.493  27.081  50.996  1.00  0.00    -0.257 N 
HETATM    6  C   UNL     1       5.040  25.810  51.099  1.00  0.00     0.327 A 
HETATM    7  O   UNL     1       4.399  25.161  50.294  1.00  0.00    -0.247 OA
HETATM    8  N   UNL     1       5.308  25.355  52.363  1.00  0.00    -0.324 N 
HETATM    9  C   UNL     1       5.925  26.355  53.227  1.00  0.00     0.123 A 
HETATM   10  H   UNL     1       5.295  24.353  52.525  1.00  0.00     0.165 HD
HETATM   11  C   UNL     1       5.998  27.511  52.190  1.00  0.00     0.257 A 
HETATM   12  O   UNL     1       6.355  28.653  52.436  1.00  0.00    -0.270 OA
BRANCH   9  13
HETATM   13  C   UNL     1       7.343  25.847  53.595  1.00  0.00     0.080 C 
BRANCH  13  14
HETATM   14  C   UNL     1       7.538  24.358  53.757  1.00  0.00    -0.052 A 
HETATM   15  C   UNL     1       7.480  23.762  55.024  1.00  0.00     0.049 A 
HETATM   16  C   UNL     1       7.692  22.393  55.165  1.00  0.00     0.116 A 
HETATM   17  F   UNL     1       7.635  21.841  56.383  1.00  0.00    -0.206 F 
HETATM   18  C   UNL     1       7.968  21.594  54.064  1.00  0.00     0.042 A 
HETATM   19  C   UNL     1       8.039  22.173  52.800  1.00  0.00     0.003 A 
HETATM   20  C   UNL     1       7.829  23.548  52.647  1.00  0.00     0.007 A 
ENDBRANCH  13  14
ENDBRANCH   9  13
BRANCH   9  21
HETATM   21  C   UNL     1       4.990  26.671  54.459  1.00  0.00     0.027 C 
HETATM   22  C   UNL     1       4.376  28.088  54.441  1.00  0.00     0.035 C 
HETATM   23  C   UNL     1       5.322  29.215  54.877  1.00  0.00     0.235 C 
HETATM   24  N   UNL     1       6.035  28.902  56.170  1.00  0.00    -0.067 N 
HETATM   25  H   UNL     1       5.346  29.015  56.924  1.00  0.00     0.280 HD
HETATM   26  C   UNL     1       6.594  27.505  56.275  1.00  0.00     0.235 C 
HETATM   27  C   UNL     1       5.569  26.467  55.873  1.00  0.00     0.035 C 
BRANCH  24  28
HETATM   28  C   UNL     1       7.168  29.887  56.464  1.00  0.00     0.273 C 
BRANCH  28  29
HETATM   29  C   UNL     1       7.222  30.468  57.850  1.00  0.00    -0.030 A 
HETATM   30  C   UNL     1       8.165  30.044  58.795  1.00  0.00     0.048 A 
HETATM   31  C   UNL     1       8.207  30.634  60.060  1.00  0.00     0.102 A 
HETATM   32  C   UNL     1       7.313  31.654  60.394  1.00  0.00     0.102 A 
HETATM   33  O   UNL     1       9.154  30.154  60.926  1.00  0.00    -0.346 OA
HETATM   34  O   UNL     1       7.290  32.267  61.617  1.00  0.00    -0.346 OA
HETATM   35  C   UNL     1       6.395  32.106  59.452  1.00  0.00     0.040 A 
HETATM   36  C   UNL     1       8.022  31.521  62.596  1.00  0.00     0.202 C 
HETATM   37  C   UNL     1       9.353  31.048  62.032  1.00  0.00     0.202 C 
HETATM   38  C   UNL     1       6.346  31.514  58.189  1.00  0.00     0.012 A 
ENDBRANCH  28  29
ENDBRANCH  24  28
ENDBRANCH   9  21
ENDBRANCH   4   5
ENDBRANCH   3   4
TORSDOF 7
ENDMDL
MODEL 7
REMARK VINA RESULT:      -9.0      3.773      6.123
REMARK  7 active torsions:
REMARK  status: ('A' for Active; 'I' for Inactive)
REMARK    1  A    between atoms: C_3  and  C_4 
REMARK    2  A    between atoms: C_4  and  N_5 
REMARK    3  A    between atoms: C_9  and  C_28 
REMARK    4  A    between atoms: C_9  and  C_10 
REMARK    5  A    between atoms: N_13  and  C_15 
REMARK    6  A    between atoms: C_15  and  C_16 
REMARK    7  A    between atoms: C_28  and  C_29 
ROOT
HETATM    1  C   UNL     1       4.523  26.938  48.222  1.00  0.00     0.112 C 
HETATM    2  C   UNL     1       4.960  26.667  49.652  1.00  0.00    -0.109 C 
HETATM    3  C   UNL     1       5.335  26.435  50.879  1.00  0.00    -0.087 C 
ENDROOT
BRANCH   3   4
HETATM    4  C   UNL     1       5.772  26.164  52.309  1.00  0.00     0.230 C 
BRANCH   4   5
HETATM    5  N   UNL     1       5.665  27.353  53.114  1.00  0.00    -0.257 N 
HETATM    6  C   UNL     1       6.724  27.965  53.692  1.00  0.00     0.327 A 
HETATM    7  O   UNL     1       7.898  27.643  53.671  1.00  0.00    -0.247 OA
HETATM    8  N   UNL     1       6.260  29.000  54.460  1.00  0.00    -0.324 N 
HETATM    9  C   UNL     1       4.806  29.104  54.488  1.00  0.00     0.123 A 
HETATM   10  H   UNL     1       6.915  29.727  54.733  1.00  0.00     0.165 HD
HETATM   11  C   UNL     1       4.494  27.914  53.536  1.00  0.00     0.257 A 
HETATM   12  O   UNL     1       3.376  27.487  53.289  1.00  0.00    -0.270 OA
BRANCH   9  13
HETATM   13  C   UNL     1       4.419  30.455  53.834  1.00  0.00     0.080 C 
BRANCH  13  14
HETATM   14  C   UNL     1       4.108  30.461  52.357  1.00  0.00    -0.052 A 
HETATM   15  C   UNL     1       5.134  30.372  51.407  1.00  0.00     0.049 A 
HETATM   16  C   UNL     1       4.837  30.408  50.047  1.00  0.00     0.116 A 
HETATM   17  F   UNL     1       5.831  30.325  49.155  1.00  0.00    -0.206 F 
HETATM   18  C   UNL     1       3.528  30.538  49.604  1.00  0.00     0.042 A 
HETATM   19  C   UNL     1       2.497  30.637  50.535  1.00  0.00     0.003 A 
HETATM   20  C   UNL     1       2.786  30.603  51.904  1.00  0.00     0.007 A 
ENDBRANCH  13  14
ENDBRANCH   9  13
BRANCH   9  21
HETATM   21  C   UNL     1       4.266  28.895  55.956  1.00  0.00     0.027 C 
HETATM   22  C   UNL     1       3.865  30.202  56.675  1.00  0.00     0.035 C 
HETATM   23  C   UNL     1       5.034  31.027  57.228  1.00  0.00     0.235 C 
HETATM   24  N   UNL     1       6.002  30.191  58.030  1.00  0.00    -0.067 N 
HETATM   25  H   UNL     1       5.549  29.993  58.931  1.00  0.00     0.280 HD
HETATM   26  C   UNL     1       6.375  28.867  57.410  1.00  0.00     0.235 C 
HETATM   27  C   UNL     1       5.150  28.110  56.944  1.00  0.00     0.035 C 
BRANCH  24  28
HETATM   28  C   UNL     1       7.295  30.943  58.350  1.00  0.00     0.273 C 
BRANCH  28  29
HETATM   29  C   UNL     1       7.480  31.406  59.768  1.00  0.00    -0.030 A 
HETATM   30  C   UNL     1       6.460  32.055  60.476  1.00  0.00     0.048 A 
HETATM   31  C   UNL     1       6.658  32.437  61.804  1.00  0.00     0.102 A 
HETATM   32  C   UNL     1       7.873  32.174  62.441  1.00  0.00     0.102 A 
HETATM   33  O   UNL     1       5.612  33.074  62.418  1.00  0.00    -0.346 OA
HETATM   34  O   UNL     1       8.139  32.532  63.735  1.00  0.00    -0.346 OA
HETATM   35  C   UNL     1       8.880  31.501  61.760  1.00  0.00     0.040 A 
HETATM   36  C   UNL     1       7.194  33.490  64.223  1.00  0.00     0.202 C 
HETATM   37  C   UNL     1       5.776  33.094  63.844  1.00  0.00     0.202 C 
HETATM   38  C   UNL     1       8.689  31.123  60.430  1.00  0.00     0.012 A 
ENDBRANCH  28  29
ENDBRANCH  24  28
ENDBRANCH   9  21
ENDBRANCH   4   5
ENDBRANCH   3   4
TORSDOF 7
ENDMDL
MODEL 8
REMARK VINA RESULT:      -8.9      2.918      6.289
REMARK  7 active torsions:
REMARK  status: ('A' for Active; 'I' for Inactive)
REMARK    1  A    between atoms: C_3  and  C_4 
REMARK    2  A    between atoms: C_4  and  N_5 
REMARK    3  A    between atoms: C_9  and  C_28 
REMARK    4  A    between atoms: C_9  and  C_10 
REMARK    5  A    between atoms: N_13  and  C_15 
REMARK    6  A    between atoms: C_15  and  C_16 
REMARK    7  A    between atoms: C_28  and  C_29 
ROOT
HETATM    1  C   UNL     1       7.826  21.310  53.167  1.00  0.00     0.112 C 
HETATM    2  C   UNL     1       7.748  22.387  54.238  1.00  0.00    -0.109 C 
HETATM    3  C   UNL     1       7.681  23.310  55.156  1.00  0.00    -0.087 C 
ENDROOT
BRANCH   3   4
HETATM    4  C   UNL     1       7.602  24.387  56.225  1.00  0.00     0.230 C 
BRANCH   4   5
HETATM    5  N   UNL     1       6.771  25.481  55.795  1.00  0.00    -0.257 N 
HETATM    6  C   UNL     1       5.563  25.763  56.335  1.00  0.00     0.327 A 
HETATM    7  O   UNL     1       4.964  25.175  57.216  1.00  0.00    -0.247 OA
HETATM    8  N   UNL     1       5.004  26.797  55.631  1.00  0.00    -0.324 N 
HETATM    9  C   UNL     1       5.812  27.241  54.501  1.00  0.00     0.123 A 
HETATM   10  H   UNL     1       4.245  27.316  56.061  1.00  0.00     0.165 HD
HETATM   11  C   UNL     1       7.003  26.260  54.698  1.00  0.00     0.257 A 
HETATM   12  O   UNL     1       7.946  26.138  53.931  1.00  0.00    -0.270 OA
BRANCH   9  13
HETATM   13  C   UNL     1       6.244  28.704  54.778  1.00  0.00     0.080 C 
BRANCH  13  14
HETATM   14  C   UNL     1       7.248  28.946  55.879  1.00  0.00    -0.052 A 
HETATM   15  C   UNL     1       8.614  29.068  55.589  1.00  0.00     0.049 A 
HETATM   16  C   UNL     1       9.535  29.261  56.615  1.00  0.00     0.116 A 
HETATM   17  F   UNL     1      10.835  29.372  56.320  1.00  0.00    -0.206 F 
HETATM   18  C   UNL     1       9.125  29.331  57.940  1.00  0.00     0.042 A 
HETATM   19  C   UNL     1       7.773  29.202  58.245  1.00  0.00     0.003 A 
HETATM   20  C   UNL     1       6.840  29.007  57.221  1.00  0.00     0.007 A 
ENDBRANCH  13  14
ENDBRANCH   9  13
BRANCH   9  21
HETATM   21  C   UNL     1       5.032  27.022  53.146  1.00  0.00     0.027 C 
HETATM   22  C   UNL     1       5.702  27.675  51.917  1.00  0.00     0.035 C 
HETATM   23  C   UNL     1       5.492  29.189  51.787  1.00  0.00     0.235 C 
HETATM   24  N   UNL     1       4.044  29.586  51.945  1.00  0.00    -0.067 N 
HETATM   25  H   UNL     1       3.565  29.317  51.077  1.00  0.00     0.280 HD
HETATM   26  C   UNL     1       3.315  28.924  53.088  1.00  0.00     0.235 C 
HETATM   27  C   UNL     1       3.546  27.428  53.097  1.00  0.00     0.035 C 
BRANCH  24  28
HETATM   28  C   UNL     1       3.867  31.099  52.087  1.00  0.00     0.273 C 
BRANCH  28  29
HETATM   29  C   UNL     1       3.607  31.627  53.471  1.00  0.00    -0.030 A 
HETATM   30  C   UNL     1       4.596  31.626  54.463  1.00  0.00     0.048 A 
HETATM   31  C   UNL     1       4.326  32.159  55.725  1.00  0.00     0.102 A 
HETATM   32  C   UNL     1       3.071  32.701  56.010  1.00  0.00     0.102 A 
HETATM   33  O   UNL     1       5.346  32.109  56.639  1.00  0.00    -0.346 OA
HETATM   34  O   UNL     1       2.736  33.228  57.227  1.00  0.00    -0.346 OA
HETATM   35  C   UNL     1       2.093  32.739  55.023  1.00  0.00     0.040 A 
HETATM   36  C   UNL     1       3.668  32.845  58.244  1.00  0.00     0.202 C 
HETATM   37  C   UNL     1       5.099  32.986  57.748  1.00  0.00     0.202 C 
HETATM   38  C   UNL     1       2.356  32.201  53.762  1.00  0.00     0.012 A 
ENDBRANCH  28  29
ENDBRANCH  24  28
ENDBRANCH   9  21
ENDBRANCH   4   5
ENDBRANCH   3   4
TORSDOF 7
ENDMDL
MODEL 9
REMARK VINA RESULT:      -8.6      3.673      9.398
REMARK  7 active torsions:
REMARK  status: ('A' for Active; 'I' for Inactive)
REMARK    1  A    between atoms: C_3  and  C_4 
REMARK    2  A    between atoms: C_4  and  N_5 
REMARK    3  A    between atoms: C_9  and  C_28 
REMARK    4  A    between atoms: C_9  and  C_10 
REMARK    5  A    between atoms: N_13  and  C_15 
REMARK    6  A    between atoms: C_15  and  C_16 
REMARK    7  A    between atoms: C_28  and  C_29 
ROOT
HETATM    1  C   UNL     1       6.535  33.620  62.444  1.00  0.00     0.112 C 
HETATM    2  C   UNL     1       5.608  33.514  61.244  1.00  0.00    -0.109 C 
HETATM    3  C   UNL     1       4.813  33.422  60.215  1.00  0.00    -0.087 C 
ENDROOT
BRANCH   3   4
HETATM    4  C   UNL     1       3.885  33.316  59.016  1.00  0.00     0.230 C 
BRANCH   4   5
HETATM    5  N   UNL     1       4.057  32.056  58.342  1.00  0.00    -0.257 N 
HETATM    6  C   UNL     1       3.482  30.901  58.749  1.00  0.00     0.327 A 
HETATM    7  O   UNL     1       2.772  30.702  59.718  1.00  0.00    -0.247 OA
HETATM    8  N   UNL     1       3.930  29.886  57.946  1.00  0.00    -0.324 N 
HETATM    9  C   UNL     1       4.913  30.312  56.957  1.00  0.00     0.123 A 
HETATM   10  H   UNL     1       3.401  29.020  57.926  1.00  0.00     0.165 HD
HETATM   11  C   UNL     1       4.937  31.823  57.323  1.00  0.00     0.257 A 
HETATM   12  O   UNL     1       5.698  32.650  56.844  1.00  0.00    -0.270 OA
BRANCH   9  13
HETATM   13  C   UNL     1       4.294  30.089  55.554  1.00  0.00     0.080 C 
BRANCH  13  14
HETATM   14  C   UNL     1       3.572  31.248  54.909  1.00  0.00    -0.052 A 
HETATM   15  C   UNL     1       4.164  31.969  53.864  1.00  0.00     0.049 A 
HETATM   16  C   UNL     1       3.502  33.055  53.297  1.00  0.00     0.116 A 
HETATM   17  F   UNL     1       4.084  33.734  52.301  1.00  0.00    -0.206 F 
HETATM   18  C   UNL     1       2.251  33.449  53.754  1.00  0.00     0.042 A 
HETATM   19  C   UNL     1       1.654  32.748  54.799  1.00  0.00     0.003 A 
HETATM   20  C   UNL     1       2.312  31.656  55.376  1.00  0.00     0.007 A 
ENDBRANCH  13  14
ENDBRANCH   9  13
BRANCH   9  21
HETATM   21  C   UNL     1       6.292  29.583  57.200  1.00  0.00     0.027 C 
HETATM   22  C   UNL     1       7.229  29.576  55.972  1.00  0.00     0.035 C 
HETATM   23  C   UNL     1       6.881  28.545  54.891  1.00  0.00     0.235 C 
HETATM   24  N   UNL     1       6.652  27.166  55.461  1.00  0.00    -0.067 N 
HETATM   25  H   UNL     1       7.576  26.787  55.705  1.00  0.00     0.280 HD
HETATM   26  C   UNL     1       5.801  27.117  56.706  1.00  0.00     0.235 C 
HETATM   27  C   UNL     1       6.258  28.136  57.728  1.00  0.00     0.035 C 
BRANCH  24  28
HETATM   28  C   UNL     1       6.045  26.205  54.437  1.00  0.00     0.273 C 
BRANCH  28  29
HETATM   29  C   UNL     1       6.685  24.851  54.312  1.00  0.00    -0.030 A 
HETATM   30  C   UNL     1       7.002  24.073  55.433  1.00  0.00     0.048 A 
HETATM   31  C   UNL     1       7.562  22.803  55.274  1.00  0.00     0.102 A 
HETATM   32  C   UNL     1       7.809  22.296  53.996  1.00  0.00     0.102 A 
HETATM   33  O   UNL     1       7.848  22.115  56.423  1.00  0.00    -0.346 OA
HETATM   34  O   UNL     1       8.366  21.067  53.768  1.00  0.00    -0.346 OA
HETATM   35  C   UNL     1       7.467  23.044  52.876  1.00  0.00     0.040 A 
HETATM   36  C   UNL     1       8.975  20.535  54.949  1.00  0.00     0.202 C 
HETATM   37  C   UNL     1       8.069  20.721  56.156  1.00  0.00     0.202 C 
HETATM   38  C   UNL     1       6.913  24.316  53.031  1.00  0.00     0.012 A 
ENDBRANCH  28  29
ENDBRANCH  24  28
ENDBRANCH   9  21
ENDBRANCH   4   5
ENDBRANCH   3   4
TORSDOF 7
ENDMDL
MODEL 10
REMARK VINA RESULT:      -8.6      2.288      4.382
REMARK  7 active torsions:
REMARK  status: ('A' for Active; 'I' for Inactive)
REMARK    1  A    between atoms: C_3  and  C_4 
REMARK    2  A    between atoms: C_4  and  N_5 
REMARK    3  A    between atoms: C_9  and  C_28 
REMARK    4  A    between atoms: C_9  and  C_10 
REMARK    5  A    between atoms: N_13  and  C_15 
REMARK    6  A    between atoms: C_15  and  C_16 
REMARK    7  A    between atoms: C_28  and  C_29 
ROOT
HETATM    1  C   UNL     1       9.045  31.025  59.258  1.00  0.00     0.112 C 
HETATM    2  C   UNL     1       8.647  29.734  58.562  1.00  0.00    -0.109 C 
HETATM    3  C   UNL     1       8.305  28.626  57.965  1.00  0.00    -0.087 C 
ENDROOT
BRANCH   3   4
HETATM    4  C   UNL     1       7.907  27.336  57.268  1.00  0.00     0.230 C 
BRANCH   4   5
HETATM    5  N   UNL     1       7.094  27.604  56.111  1.00  0.00    -0.257 N 
HETATM    6  C   UNL     1       7.474  28.416  55.098  1.00  0.00     0.327 A 
HETATM    7  O   UNL     1       8.500  29.061  54.980  1.00  0.00    -0.247 OA
HETATM    8  N   UNL     1       6.432  28.526  54.216  1.00  0.00    -0.324 N 
HETATM    9  C   UNL     1       5.231  27.814  54.636  1.00  0.00     0.123 A 
HETATM   10  H   UNL     1       6.631  28.858  53.277  1.00  0.00     0.165 HD
HETATM   11  C   UNL     1       5.791  27.222  55.960  1.00  0.00     0.257 A 
HETATM   12  O   UNL     1       5.137  26.601  56.784  1.00  0.00    -0.270 OA
BRANCH   9  13
HETATM   13  C   UNL     1       4.961  26.696  53.597  1.00  0.00     0.080 C 
BRANCH  13  14
HETATM   14  C   UNL     1       6.033  25.654  53.387  1.00  0.00    -0.052 A 
HETATM   15  C   UNL     1       6.135  24.548  54.240  1.00  0.00     0.049 A 
HETATM   16  C   UNL     1       7.147  23.609  54.055  1.00  0.00     0.116 A 
HETATM   17  F   UNL     1       7.230  22.560  54.882  1.00  0.00    -0.206 F 
HETATM   18  C   UNL     1       8.075  23.749  53.032  1.00  0.00     0.042 A 
HETATM   19  C   UNL     1       7.993  24.849  52.181  1.00  0.00     0.003 A 
HETATM   20  C   UNL     1       6.980  25.798  52.359  1.00  0.00     0.007 A 
ENDBRANCH  13  14
ENDBRANCH   9  13
BRANCH   9  21
HETATM   21  C   UNL     1       4.038  28.825  54.852  1.00  0.00     0.027 C 
HETATM   22  C   UNL     1       4.328  30.261  54.362  1.00  0.00     0.035 C 
HETATM   23  C   UNL     1       5.205  31.105  55.295  1.00  0.00     0.235 C 
HETATM   24  N   UNL     1       4.732  31.060  56.728  1.00  0.00    -0.067 N 
HETATM   25  H   UNL     1       3.889  31.645  56.782  1.00  0.00     0.280 HD
HETATM   26  C   UNL     1       4.364  29.690  57.242  1.00  0.00     0.235 C 
HETATM   27  C   UNL     1       3.458  28.961  56.273  1.00  0.00     0.035 C 
BRANCH  24  28
HETATM   28  C   UNL     1       5.747  31.669  57.697  1.00  0.00     0.273 C 
BRANCH  28  29
HETATM   29  C   UNL     1       5.199  32.321  58.936  1.00  0.00    -0.030 A 
HETATM   30  C   UNL     1       5.940  32.403  60.121  1.00  0.00     0.048 A 
HETATM   31  C   UNL     1       5.410  33.050  61.240  1.00  0.00     0.102 A 
HETATM   32  C   UNL     1       4.138  33.623  61.187  1.00  0.00     0.102 A 
HETATM   33  O   UNL     1       6.199  33.076  62.360  1.00  0.00    -0.346 OA
HETATM   34  O   UNL     1       3.554  34.260  62.248  1.00  0.00    -0.346 OA
HETATM   35  C   UNL     1       3.407  33.579  60.006  1.00  0.00     0.040 A 
HETATM   36  C   UNL     1       4.224  33.965  63.477  1.00  0.00     0.202 C 
HETATM   37  C   UNL     1       5.733  34.051  63.305  1.00  0.00     0.202 C 
HETATM   38  C   UNL     1       3.930  32.928  58.887  1.00  0.00     0.012 A 
ENDBRANCH  28  29
ENDBRANCH  24  28
ENDBRANCH   9  21
ENDBRANCH   4   5
ENDBRANCH   3   4
TORSDOF 7
ENDMDL
