MODEL 1
REMARK VINA RESULT:      -8.3      0.000      0.000
REMARK  6 active torsions:
REMARK  status: ('A' for Active; 'I' for Inactive)
REMARK    1  A    between atoms: C_2  and  C_3 
REMARK    2  A    between atoms: C_8  and  C_9 
REMARK    3  A    between atoms: C_9  and  N_10 
REMARK    4  A    between atoms: N_10  and  C_12 
REMARK    5  A    between atoms: C_12  and  C_13 
REMARK       I    between atoms: C_13  and  N_14 
REMARK    6  A    between atoms: N_14  and  C_15 
ROOT
HETATM    1  N   UNL     1       6.044  27.245  54.071  1.00  0.00    -0.063 N 
HETATM    2  H   UNL     1       7.034  27.354  54.327  1.00  0.00     0.280 HD
HETATM    3  C   UNL     1       5.589  28.514  53.412  1.00  0.00     0.270 C 
ENDROOT
BRANCH   1   4
HETATM    4  C   UNL     1       5.332  26.972  55.400  1.00  0.00     0.277 C 
BRANCH   4   5
HETATM    5  C   UNL     1       6.294  26.708  56.513  1.00  0.00     0.012 A 
HETATM    6  C   UNL     1       7.245  27.567  57.177  1.00  0.00     0.071 A 
HETATM    7  N   UNL     1       7.874  26.893  58.152  1.00  0.00    -0.178 NA
HETATM    8  N   UNL     1       7.444  25.641  58.074  1.00  0.00    -0.288 N 
HETATM    9  H   UNL     1       7.847  24.952  58.706  1.00  0.00     0.188 HD
HETATM   10  C   UNL     1       6.488  25.475  57.121  1.00  0.00     0.120 A 
BRANCH   6  11
HETATM   11  C   UNL     1       7.679  29.030  57.000  1.00  0.00    -0.004 C 
HETATM   12  C   UNL     1       8.626  29.145  55.782  1.00  0.00     0.021 C 
HETATM   13  C   UNL     1       8.436  29.507  58.262  1.00  0.00     0.021 C 
HETATM   14  C   UNL     1       6.530  30.013  56.760  1.00  0.00     0.021 C 
ENDBRANCH   6  11
ENDBRANCH   4   5
ENDBRANCH   1   4
BRANCH   1  15
HETATM   15  C   UNL     1       5.948  26.069  53.093  1.00  0.00     0.337 C 
BRANCH  15  16
HETATM   16  C   UNL     1       7.072  25.052  53.292  1.00  0.00     0.248 C 
HETATM   17  N   UNL     1       6.678  23.955  54.042  1.00  0.00    -0.326 N 
HETATM   18  H   UNL     1       5.840  24.032  54.609  1.00  0.00     0.169 HD
HETATM   19  O   UNL     1       8.149  25.216  52.731  1.00  0.00    -0.271 OA
BRANCH  17  20
HETATM   20  C   UNL     1       7.371  22.731  54.178  1.00  0.00     0.040 A 
HETATM   21  C   UNL     1       7.748  21.919  53.107  1.00  0.00     0.072 A 
HETATM   22  C   UNL     1       8.372  20.693  53.347  1.00  0.00     0.121 A 
HETATM   23  F   UNL     1       8.707  19.919  52.308  1.00  0.00    -0.206 F 
HETATM   24  C   UNL     1       8.637  20.255  54.634  1.00  0.00     0.084 A 
HETATM   25  C   UNL     1       8.274  21.070  55.693  1.00  0.00     0.121 A 
HETATM   26  F   UNL     1       8.513  20.672  56.949  1.00  0.00    -0.206 F 
HETATM   27  C   UNL     1       7.650  22.298  55.480  1.00  0.00     0.072 A 
ENDBRANCH  17  20
ENDBRANCH  15  16
ENDBRANCH   1  15
TORSDOF 6
ENDMDL
MODEL 2
REMARK VINA RESULT:      -8.0      3.844      7.427
REMARK  6 active torsions:
REMARK  status: ('A' for Active; 'I' for Inactive)
REMARK    1  A    between atoms: C_2  and  C_3 
REMARK    2  A    between atoms: C_8  and  C_9 
REMARK    3  A    between atoms: C_9  and  N_10 
REMARK    4  A    between atoms: N_10  and  C_12 
REMARK    5  A    between atoms: C_12  and  C_13 
REMARK       I    between atoms: C_13  and  N_14 
REMARK    6  A    between atoms: N_14  and  C_15 
ROOT
HETATM    1  N   UNL     1       5.320  27.334  55.260  1.00  0.00    -0.063 N 
HETATM    2  H   UNL     1       5.063  26.342  55.344  1.00  0.00     0.280 HD
HETATM    3  C   UNL     1       4.546  27.923  54.119  1.00  0.00     0.270 C 
ENDROOT
BRANCH   1   4
HETATM    4  C   UNL     1       6.832  27.318  55.013  1.00  0.00     0.277 C 
BRANCH   4   5
HETATM    5  C   UNL     1       7.460  26.027  55.430  1.00  0.00     0.012 A 
HETATM    6  C   UNL     1       7.662  24.790  54.714  1.00  0.00     0.071 A 
HETATM    7  N   UNL     1       8.308  23.906  55.491  1.00  0.00    -0.178 NA
HETATM    8  N   UNL     1       8.436  24.483  56.679  1.00  0.00    -0.288 N 
HETATM    9  H   UNL     1       8.859  23.945  57.433  1.00  0.00     0.188 HD
HETATM   10  C   UNL     1       7.958  25.756  56.697  1.00  0.00     0.120 A 
BRANCH   6  11
HETATM   11  C   UNL     1       7.297  24.288  53.309  1.00  0.00    -0.004 C 
HETATM   12  C   UNL     1       8.057  25.120  52.249  1.00  0.00     0.021 C 
HETATM   13  C   UNL     1       5.777  24.457  53.072  1.00  0.00     0.021 C 
HETATM   14  C   UNL     1       7.638  22.819  53.045  1.00  0.00     0.021 C 
ENDBRANCH   6  11
ENDBRANCH   4   5
ENDBRANCH   1   4
BRANCH   1  15
HETATM   15  C   UNL     1       4.941  28.020  56.577  1.00  0.00     0.337 C 
BRANCH  15  16
HETATM   16  C   UNL     1       5.806  29.246  56.866  1.00  0.00     0.248 C 
HETATM   17  N   UNL     1       6.751  29.017  57.854  1.00  0.00    -0.326 N 
HETATM   18  H   UNL     1       6.623  28.222  58.471  1.00  0.00     0.169 HD
HETATM   19  O   UNL     1       5.681  30.256  56.183  1.00  0.00    -0.271 OA
BRANCH  17  20
HETATM   20  C   UNL     1       7.865  29.830  58.163  1.00  0.00     0.040 A 
HETATM   21  C   UNL     1       7.821  30.927  59.025  1.00  0.00     0.072 A 
HETATM   22  C   UNL     1       8.961  31.711  59.215  1.00  0.00     0.121 A 
HETATM   23  F   UNL     1       8.893  32.770  60.031  1.00  0.00    -0.206 F 
HETATM   24  C   UNL     1      10.152  31.425  58.569  1.00  0.00     0.084 A 
HETATM   25  C   UNL     1      10.195  30.328  57.726  1.00  0.00     0.121 A 
HETATM   26  F   UNL     1      11.331  30.028  57.084  1.00  0.00    -0.206 F 
HETATM   27  C   UNL     1       9.071  29.530  57.518  1.00  0.00     0.072 A 
ENDBRANCH  17  20
ENDBRANCH  15  16
ENDBRANCH   1  15
TORSDOF 6
ENDMDL
MODEL 3
REMARK VINA RESULT:      -7.9      3.900      7.355
REMARK  6 active torsions:
REMARK  status: ('A' for Active; 'I' for Inactive)
REMARK    1  A    between atoms: C_2  and  C_3 
REMARK    2  A    between atoms: C_8  and  C_9 
REMARK    3  A    between atoms: C_9  and  N_10 
REMARK    4  A    between atoms: N_10  and  C_12 
REMARK    5  A    between atoms: C_12  and  C_13 
REMARK       I    between atoms: C_13  and  N_14 
REMARK    6  A    between atoms: N_14  and  C_15 
ROOT
HETATM    1  N   UNL     1       5.288  27.389  55.299  1.00  0.00    -0.063 N 
HETATM    2  H   UNL     1       5.047  26.402  55.453  1.00  0.00     0.280 HD
HETATM    3  C   UNL     1       4.487  27.891  54.135  1.00  0.00     0.270 C 
ENDROOT
BRANCH   1   4
HETATM    4  C   UNL     1       6.796  27.379  55.030  1.00  0.00     0.277 C 
BRANCH   4   5
HETATM    5  C   UNL     1       7.434  26.089  55.435  1.00  0.00     0.012 A 
HETATM    6  C   UNL     1       7.626  24.852  54.715  1.00  0.00     0.071 A 
HETATM    7  N   UNL     1       8.287  23.970  55.481  1.00  0.00    -0.178 NA
HETATM    8  N   UNL     1       8.433  24.546  56.667  1.00  0.00    -0.288 N 
HETATM    9  H   UNL     1       8.871  24.010  57.413  1.00  0.00     0.188 HD
HETATM   10  C   UNL     1       7.954  25.819  56.693  1.00  0.00     0.120 A 
BRANCH   6  11
HETATM   11  C   UNL     1       7.239  24.351  53.316  1.00  0.00    -0.004 C 
HETATM   12  C   UNL     1       7.582  22.847  53.193  1.00  0.00     0.021 C 
HETATM   13  C   UNL     1       8.035  25.128  52.242  1.00  0.00     0.021 C 
HETATM   14  C   UNL     1       5.753  24.494  52.974  1.00  0.00     0.021 C 
ENDBRANCH   6  11
ENDBRANCH   4   5
ENDBRANCH   1   4
BRANCH   1  15
HETATM   15  C   UNL     1       4.918  28.156  56.574  1.00  0.00     0.337 C 
BRANCH  15  16
HETATM   16  C   UNL     1       5.814  29.372  56.804  1.00  0.00     0.248 C 
HETATM   17  N   UNL     1       6.765  29.160  57.790  1.00  0.00    -0.326 N 
HETATM   18  H   UNL     1       6.626  28.394  58.441  1.00  0.00     0.169 HD
HETATM   19  O   UNL     1       5.705  30.356  56.082  1.00  0.00    -0.271 OA
BRANCH  17  20
HETATM   20  C   UNL     1       7.900  29.959  58.055  1.00  0.00     0.040 A 
HETATM   21  C   UNL     1       9.166  29.730  57.513  1.00  0.00     0.072 A 
HETATM   22  C   UNL     1      10.242  30.537  57.888  1.00  0.00     0.121 A 
HETATM   23  F   UNL     1      11.452  30.289  57.371  1.00  0.00    -0.206 F 
HETATM   24  C   UNL     1      10.088  31.576  58.791  1.00  0.00     0.084 A 
HETATM   25  C   UNL     1       8.828  31.808  59.316  1.00  0.00     0.121 A 
HETATM   26  F   UNL     1       8.648  32.803  60.195  1.00  0.00    -0.206 F 
HETATM   27  C   UNL     1       7.738  31.017  58.958  1.00  0.00     0.072 A 
ENDBRANCH  17  20
ENDBRANCH  15  16
ENDBRANCH   1  15
TORSDOF 6
ENDMDL
MODEL 4
REMARK VINA RESULT:      -7.8      4.666      8.573
REMARK  6 active torsions:
REMARK  status: ('A' for Active; 'I' for Inactive)
REMARK    1  A    between atoms: C_2  and  C_3 
REMARK    2  A    between atoms: C_8  and  C_9 
REMARK    3  A    between atoms: C_9  and  N_10 
REMARK    4  A    between atoms: N_10  and  C_12 
REMARK    5  A    between atoms: C_12  and  C_13 
REMARK       I    between atoms: C_13  and  N_14 
REMARK    6  A    between atoms: N_14  and  C_15 
ROOT
HETATM    1  N   UNL     1       6.280  28.027  56.358  1.00  0.00    -0.063 N 
HETATM    2  H   UNL     1       6.484  27.535  57.238  1.00  0.00     0.280 HD
HETATM    3  C   UNL     1       4.797  27.998  56.137  1.00  0.00     0.270 C 
ENDROOT
BRANCH   1   4
HETATM    4  C   UNL     1       7.061  27.248  55.294  1.00  0.00     0.277 C 
BRANCH   4   5
HETATM    5  C   UNL     1       7.287  25.824  55.688  1.00  0.00     0.012 A 
HETATM    6  C   UNL     1       7.360  24.616  54.901  1.00  0.00     0.071 A 
HETATM    7  N   UNL     1       7.616  23.563  55.693  1.00  0.00    -0.178 NA
HETATM    8  N   UNL     1       7.612  24.026  56.936  1.00  0.00    -0.288 N 
HETATM    9  H   UNL     1       7.738  23.362  57.698  1.00  0.00     0.188 HD
HETATM   10  C   UNL     1       7.433  25.373  56.992  1.00  0.00     0.120 A 
BRANCH   6  11
HETATM   11  C   UNL     1       7.200  24.295  53.408  1.00  0.00    -0.004 C 
HETATM   12  C   UNL     1       5.727  24.510  52.987  1.00  0.00     0.021 C 
HETATM   13  C   UNL     1       7.577  22.817  53.147  1.00  0.00     0.021 C 
HETATM   14  C   UNL     1       8.056  25.154  52.473  1.00  0.00     0.021 C 
ENDBRANCH   6  11
ENDBRANCH   4   5
ENDBRANCH   1   4
BRANCH   1  15
HETATM   15  C   UNL     1       6.771  29.471  56.515  1.00  0.00     0.337 C 
BRANCH  15  16
HETATM   16  C   UNL     1       7.533  29.689  57.821  1.00  0.00     0.248 C 
HETATM   17  N   UNL     1       7.475  31.002  58.264  1.00  0.00    -0.326 N 
HETATM   18  H   UNL     1       7.211  31.725  57.603  1.00  0.00     0.169 HD
HETATM   19  O   UNL     1       8.030  28.733  58.405  1.00  0.00    -0.271 OA
BRANCH  17  20
HETATM   20  C   UNL     1       7.830  31.477  59.547  1.00  0.00     0.040 A 
HETATM   21  C   UNL     1       9.142  31.586  60.009  1.00  0.00     0.072 A 
HETATM   22  C   UNL     1       9.388  32.004  61.319  1.00  0.00     0.121 A 
HETATM   23  F   UNL     1      10.653  32.083  61.749  1.00  0.00    -0.206 F 
HETATM   24  C   UNL     1       8.354  32.323  62.183  1.00  0.00     0.084 A 
HETATM   25  C   UNL     1       7.054  32.227  61.716  1.00  0.00     0.121 A 
HETATM   26  F   UNL     1       6.033  32.524  62.530  1.00  0.00    -0.206 F 
HETATM   27  C   UNL     1       6.782  31.811  60.414  1.00  0.00     0.072 A 
ENDBRANCH  17  20
ENDBRANCH  15  16
ENDBRANCH   1  15
TORSDOF 6
ENDMDL
MODEL 5
REMARK VINA RESULT:      -7.6      1.872      3.191
REMARK  6 active torsions:
REMARK  status: ('A' for Active; 'I' for Inactive)
REMARK    1  A    between atoms: C_2  and  C_3 
REMARK    2  A    between atoms: C_8  and  C_9 
REMARK    3  A    between atoms: C_9  and  N_10 
REMARK    4  A    between atoms: N_10  and  C_12 
REMARK    5  A    between atoms: C_12  and  C_13 
REMARK       I    between atoms: C_13  and  N_14 
REMARK    6  A    between atoms: N_14  and  C_15 
ROOT
HETATM    1  N   UNL     1       5.655  27.105  52.081  1.00  0.00    -0.063 N 
HETATM    2  H   UNL     1       6.468  27.453  52.606  1.00  0.00     0.280 HD
HETATM    3  C   UNL     1       5.374  28.065  50.963  1.00  0.00     0.270 C 
ENDROOT
BRANCH   1   4
HETATM    4  C   UNL     1       4.527  27.044  53.116  1.00  0.00     0.277 C 
BRANCH   4   5
HETATM    5  C   UNL     1       4.597  28.172  54.095  1.00  0.00     0.012 A 
HETATM    6  C   UNL     1       5.298  28.304  55.350  1.00  0.00     0.071 A 
HETATM    7  N   UNL     1       5.089  29.524  55.870  1.00  0.00    -0.178 NA
HETATM    8  N   UNL     1       4.222  30.125  55.065  1.00  0.00    -0.288 N 
HETATM    9  H   UNL     1       3.892  31.054  55.320  1.00  0.00     0.188 HD
HETATM   10  C   UNL     1       3.903  29.369  53.981  1.00  0.00     0.120 A 
BRANCH   6  11
HETATM   11  C   UNL     1       6.190  27.375  56.187  1.00  0.00    -0.004 C 
HETATM   12  C   UNL     1       5.374  26.139  56.633  1.00  0.00     0.021 C 
HETATM   13  C   UNL     1       6.685  28.121  57.449  1.00  0.00     0.021 C 
HETATM   14  C   UNL     1       7.427  26.847  55.456  1.00  0.00     0.021 C 
ENDBRANCH   6  11
ENDBRANCH   4   5
ENDBRANCH   1   4
BRANCH   1  15
HETATM   15  C   UNL     1       6.024  25.726  51.524  1.00  0.00     0.337 C 
BRANCH  15  16
HETATM   16  C   UNL     1       7.083  25.019  52.369  1.00  0.00     0.248 C 
HETATM   17  N   UNL     1       6.546  24.056  53.209  1.00  0.00    -0.326 N 
HETATM   18  H   UNL     1       5.551  24.087  53.408  1.00  0.00     0.169 HD
HETATM   19  O   UNL     1       8.270  25.265  52.192  1.00  0.00    -0.271 OA
BRANCH  17  20
HETATM   20  C   UNL     1       7.255  23.052  53.906  1.00  0.00     0.040 A 
HETATM   21  C   UNL     1       7.468  23.055  55.285  1.00  0.00     0.072 A 
HETATM   22  C   UNL     1       8.240  22.051  55.874  1.00  0.00     0.121 A 
HETATM   23  F   UNL     1       8.450  22.083  57.196  1.00  0.00    -0.206 F 
HETATM   24  C   UNL     1       8.805  21.036  55.120  1.00  0.00     0.084 A 
HETATM   25  C   UNL     1       8.579  21.029  53.754  1.00  0.00     0.121 A 
HETATM   26  F   UNL     1       9.115  20.063  52.998  1.00  0.00    -0.206 F 
HETATM   27  C   UNL     1       7.813  22.020  53.142  1.00  0.00     0.072 A 
ENDBRANCH  17  20
ENDBRANCH  15  16
ENDBRANCH   1  15
TORSDOF 6
ENDMDL
MODEL 6
REMARK VINA RESULT:      -7.6      2.699      5.013
REMARK  6 active torsions:
REMARK  status: ('A' for Active; 'I' for Inactive)
REMARK    1  A    between atoms: C_2  and  C_3 
REMARK    2  A    between atoms: C_8  and  C_9 
REMARK    3  A    between atoms: C_9  and  N_10 
REMARK    4  A    between atoms: N_10  and  C_12 
REMARK    5  A    between atoms: C_12  and  C_13 
REMARK       I    between atoms: C_13  and  N_14 
REMARK    6  A    between atoms: N_14  and  C_15 
ROOT
HETATM    1  N   UNL     1       5.526  27.395  53.703  1.00  0.00    -0.063 N 
HETATM    2  H   UNL     1       4.829  26.710  53.383  1.00  0.00     0.280 HD
HETATM    3  C   UNL     1       4.876  28.285  54.719  1.00  0.00     0.270 C 
ENDROOT
BRANCH   1   4
HETATM    4  C   UNL     1       5.942  28.141  52.431  1.00  0.00     0.277 C 
BRANCH   4   5
HETATM    5  C   UNL     1       5.286  27.586  51.208  1.00  0.00     0.012 A 
HETATM    6  C   UNL     1       4.721  28.235  50.050  1.00  0.00     0.071 A 
HETATM    7  N   UNL     1       4.269  27.318  49.180  1.00  0.00    -0.178 NA
HETATM    8  N   UNL     1       4.430  26.140  49.768  1.00  0.00    -0.288 N 
HETATM    9  H   UNL     1       4.094  25.310  49.284  1.00  0.00     0.188 HD
HETATM   10  C   UNL     1       5.045  26.238  50.977  1.00  0.00     0.120 A 
BRANCH   6  11
HETATM   11  C   UNL     1       4.527  29.698  49.625  1.00  0.00    -0.004 C 
HETATM   12  C   UNL     1       3.951  29.748  48.190  1.00  0.00     0.021 C 
HETATM   13  C   UNL     1       5.888  30.432  49.636  1.00  0.00     0.021 C 
HETATM   14  C   UNL     1       3.570  30.500  50.512  1.00  0.00     0.021 C 
ENDBRANCH   6  11
ENDBRANCH   4   5
ENDBRANCH   1   4
BRANCH   1  15
HETATM   15  C   UNL     1       6.682  26.612  54.336  1.00  0.00     0.337 C 
BRANCH  15  16
HETATM   16  C   UNL     1       6.555  25.105  54.115  1.00  0.00     0.248 C 
HETATM   17  N   UNL     1       7.774  24.448  54.176  1.00  0.00    -0.326 N 
HETATM   18  H   UNL     1       8.624  24.994  54.074  1.00  0.00     0.169 HD
HETATM   19  O   UNL     1       5.446  24.596  54.003  1.00  0.00    -0.271 OA
BRANCH  17  20
HETATM   20  C   UNL     1       7.979  23.054  54.287  1.00  0.00     0.040 A 
HETATM   21  C   UNL     1       8.114  22.191  53.199  1.00  0.00     0.072 A 
HETATM   22  C   UNL     1       8.246  20.817  53.411  1.00  0.00     0.121 A 
HETATM   23  F   UNL     1       8.355  20.003  52.353  1.00  0.00    -0.206 F 
HETATM   24  C   UNL     1       8.252  20.278  54.687  1.00  0.00     0.084 A 
HETATM   25  C   UNL     1       8.131  21.140  55.764  1.00  0.00     0.121 A 
HETATM   26  F   UNL     1       8.128  20.648  57.010  1.00  0.00    -0.206 F 
HETATM   27  C   UNL     1       7.997  22.515  55.579  1.00  0.00     0.072 A 
ENDBRANCH  17  20
ENDBRANCH  15  16
ENDBRANCH   1  15
TORSDOF 6
ENDMDL
MODEL 7
REMARK VINA RESULT:      -7.6      2.520      5.014
REMARK  6 active torsions:
REMARK  status: ('A' for Active; 'I' for Inactive)
REMARK    1  A    between atoms: C_2  and  C_3 
REMARK    2  A    between atoms: C_8  and  C_9 
REMARK    3  A    between atoms: C_9  and  N_10 
REMARK    4  A    between atoms: N_10  and  C_12 
REMARK    5  A    between atoms: C_12  and  C_13 
REMARK       I    between atoms: C_13  and  N_14 
REMARK    6  A    between atoms: N_14  and  C_15 
ROOT
HETATM    1  N   UNL     1       5.370  27.530  54.134  1.00  0.00    -0.063 N 
HETATM    2  H   UNL     1       4.701  26.889  53.688  1.00  0.00     0.280 HD
HETATM    3  C   UNL     1       4.773  28.004  55.426  1.00  0.00     0.270 C 
ENDROOT
BRANCH   1   4
HETATM    4  C   UNL     1       5.560  28.657  53.113  1.00  0.00     0.277 C 
BRANCH   4   5
HETATM    5  C   UNL     1       4.310  28.941  52.345  1.00  0.00     0.012 A 
HETATM    6  C   UNL     1       3.868  28.498  51.044  1.00  0.00     0.071 A 
HETATM    7  N   UNL     1       2.647  28.989  50.779  1.00  0.00    -0.178 NA
HETATM    8  N   UNL     1       2.342  29.789  51.792  1.00  0.00    -0.288 N 
HETATM    9  H   UNL     1       1.465  30.304  51.752  1.00  0.00     0.188 HD
HETATM   10  C   UNL     1       3.294  29.789  52.764  1.00  0.00     0.120 A 
BRANCH   6  11
HETATM   11  C   UNL     1       4.482  27.626  49.939  1.00  0.00    -0.004 C 
HETATM   12  C   UNL     1       5.082  26.345  50.564  1.00  0.00     0.021 C 
HETATM   13  C   UNL     1       5.614  28.404  49.226  1.00  0.00     0.021 C 
HETATM   14  C   UNL     1       3.495  27.171  48.860  1.00  0.00     0.021 C 
ENDBRANCH   6  11
ENDBRANCH   4   5
ENDBRANCH   1   4
BRANCH   1  15
HETATM   15  C   UNL     1       6.658  26.742  54.395  1.00  0.00     0.337 C 
BRANCH  15  16
HETATM   16  C   UNL     1       6.501  25.252  54.096  1.00  0.00     0.248 C 
HETATM   17  N   UNL     1       7.699  24.559  54.170  1.00  0.00    -0.326 N 
HETATM   18  H   UNL     1       8.566  25.085  54.127  1.00  0.00     0.169 HD
HETATM   19  O   UNL     1       5.384  24.780  53.918  1.00  0.00    -0.271 OA
BRANCH  17  20
HETATM   20  C   UNL     1       7.863  23.156  54.220  1.00  0.00     0.040 A 
HETATM   21  C   UNL     1       8.087  22.351  53.103  1.00  0.00     0.072 A 
HETATM   22  C   UNL     1       8.169  20.965  53.247  1.00  0.00     0.121 A 
HETATM   23  F   UNL     1       8.365  20.208  52.160  1.00  0.00    -0.206 F 
HETATM   24  C   UNL     1       8.038  20.356  54.484  1.00  0.00     0.084 A 
HETATM   25  C   UNL     1       7.829  21.160  55.592  1.00  0.00     0.121 A 
HETATM   26  F   UNL     1       7.694  20.600  56.801  1.00  0.00    -0.206 F 
HETATM   27  C   UNL     1       7.743  22.546  55.475  1.00  0.00     0.072 A 
ENDBRANCH  17  20
ENDBRANCH  15  16
ENDBRANCH   1  15
TORSDOF 6
ENDMDL
MODEL 8
REMARK VINA RESULT:      -7.6      2.154      3.239
REMARK  6 active torsions:
REMARK  status: ('A' for Active; 'I' for Inactive)
REMARK    1  A    between atoms: C_2  and  C_3 
REMARK    2  A    between atoms: C_8  and  C_9 
REMARK    3  A    between atoms: C_9  and  N_10 
REMARK    4  A    between atoms: N_10  and  C_12 
REMARK    5  A    between atoms: C_12  and  C_13 
REMARK       I    between atoms: C_13  and  N_14 
REMARK    6  A    between atoms: N_14  and  C_15 
ROOT
HETATM    1  N   UNL     1       7.162  27.552  56.559  1.00  0.00    -0.063 N 
HETATM    2  H   UNL     1       8.054  27.379  56.078  1.00  0.00     0.280 HD
HETATM    3  C   UNL     1       6.289  28.363  55.648  1.00  0.00     0.270 C 
ENDROOT
BRANCH   1   4
HETATM    4  C   UNL     1       7.554  28.301  57.837  1.00  0.00     0.277 C 
BRANCH   4   5
HETATM    5  C   UNL     1       8.780  29.134  57.652  1.00  0.00     0.012 A 
HETATM    6  C   UNL     1       9.251  30.308  58.348  1.00  0.00     0.071 A 
HETATM    7  N   UNL     1      10.434  30.698  57.849  1.00  0.00    -0.178 NA
HETATM    8  N   UNL     1      10.684  29.898  56.821  1.00  0.00    -0.288 N 
HETATM    9  H   UNL     1      11.523  30.068  56.271  1.00  0.00     0.188 HD
HETATM   10  C   UNL     1       9.736  28.936  56.665  1.00  0.00     0.120 A 
BRANCH   6  11
HETATM   11  C   UNL     1       8.697  31.176  59.488  1.00  0.00    -0.004 C 
HETATM   12  C   UNL     1       8.607  30.334  60.783  1.00  0.00     0.021 C 
HETATM   13  C   UNL     1       7.278  31.675  59.124  1.00  0.00     0.021 C 
HETATM   14  C   UNL     1       9.541  32.410  59.821  1.00  0.00     0.021 C 
ENDBRANCH   6  11
ENDBRANCH   4   5
ENDBRANCH   1   4
BRANCH   1  15
HETATM   15  C   UNL     1       6.521  26.189  56.843  1.00  0.00     0.337 C 
BRANCH  15  16
HETATM   16  C   UNL     1       7.501  25.032  56.646  1.00  0.00     0.248 C 
HETATM   17  N   UNL     1       6.915  23.927  56.048  1.00  0.00    -0.326 N 
HETATM   18  H   UNL     1       5.903  23.854  56.053  1.00  0.00     0.169 HD
HETATM   19  O   UNL     1       8.685  25.182  56.923  1.00  0.00    -0.271 OA
BRANCH  17  20
HETATM   20  C   UNL     1       7.584  22.817  55.486  1.00  0.00     0.040 A 
HETATM   21  C   UNL     1       7.531  22.469  54.135  1.00  0.00     0.072 A 
HETATM   22  C   UNL     1       8.174  21.313  53.686  1.00  0.00     0.121 A 
HETATM   23  F   UNL     1       8.094  20.986  52.391  1.00  0.00    -0.206 F 
HETATM   24  C   UNL     1       8.876  20.493  54.553  1.00  0.00     0.084 A 
HETATM   25  C   UNL     1       8.939  20.849  55.890  1.00  0.00     0.121 A 
HETATM   26  F   UNL     1       9.607  20.073  56.753  1.00  0.00    -0.206 F 
HETATM   27  C   UNL     1       8.305  21.997  56.363  1.00  0.00     0.072 A 
ENDBRANCH  17  20
ENDBRANCH  15  16
ENDBRANCH   1  15
TORSDOF 6
ENDMDL
MODEL 9
REMARK VINA RESULT:      -7.6      2.702      5.307
REMARK  6 active torsions:
REMARK  status: ('A' for Active; 'I' for Inactive)
REMARK    1  A    between atoms: C_2  and  C_3 
REMARK    2  A    between atoms: C_8  and  C_9 
REMARK    3  A    between atoms: C_9  and  N_10 
REMARK    4  A    between atoms: N_10  and  C_12 
REMARK    5  A    between atoms: C_12  and  C_13 
REMARK       I    between atoms: C_13  and  N_14 
REMARK    6  A    between atoms: N_14  and  C_15 
ROOT
HETATM    1  N   UNL     1       5.739  27.436  53.731  1.00  0.00    -0.063 N 
HETATM    2  H   UNL     1       5.002  26.745  53.536  1.00  0.00     0.280 HD
HETATM    3  C   UNL     1       5.305  28.265  54.903  1.00  0.00     0.270 C 
ENDROOT
BRANCH   1   4
HETATM    4  C   UNL     1       5.857  28.245  52.435  1.00  0.00     0.277 C 
BRANCH   4   5
HETATM    5  C   UNL     1       5.214  27.556  51.276  1.00  0.00     0.012 A 
HETATM    6  C   UNL     1       4.632  28.073  50.060  1.00  0.00     0.071 A 
HETATM    7  N   UNL     1       4.201  27.064  49.288  1.00  0.00    -0.178 NA
HETATM    8  N   UNL     1       4.390  25.954  49.989  1.00  0.00    -0.288 N 
HETATM    9  H   UNL     1       4.075  25.072  49.591  1.00  0.00     0.188 HD
HETATM   10  C   UNL     1       5.005  26.187  51.180  1.00  0.00     0.120 A 
BRANCH   6  11
HETATM   11  C   UNL     1       4.402  29.482  49.493  1.00  0.00    -0.004 C 
HETATM   12  C   UNL     1       5.736  30.266  49.498  1.00  0.00     0.021 C 
HETATM   13  C   UNL     1       3.381  30.241  50.374  1.00  0.00     0.021 C 
HETATM   14  C   UNL     1       3.876  29.515  48.055  1.00  0.00     0.021 C 
ENDBRANCH   6  11
ENDBRANCH   4   5
ENDBRANCH   1   4
BRANCH   1  15
HETATM   15  C   UNL     1       7.018  26.661  54.065  1.00  0.00     0.337 C 
BRANCH  15  16
HETATM   16  C   UNL     1       6.782  25.154  54.146  1.00  0.00     0.248 C 
HETATM   17  N   UNL     1       7.958  24.421  54.087  1.00  0.00    -0.326 N 
HETATM   18  H   UNL     1       8.792  24.873  53.726  1.00  0.00     0.169 HD
HETATM   19  O   UNL     1       5.653  24.722  54.345  1.00  0.00    -0.271 OA
BRANCH  17  20
HETATM   20  C   UNL     1       8.119  23.053  54.404  1.00  0.00     0.040 A 
HETATM   21  C   UNL     1       8.315  22.565  55.696  1.00  0.00     0.072 A 
HETATM   22  C   UNL     1       8.531  21.200  55.901  1.00  0.00     0.121 A 
HETATM   23  F   UNL     1       8.737  20.753  57.145  1.00  0.00    -0.206 F 
HETATM   24  C   UNL     1       8.551  20.304  54.844  1.00  0.00     0.084 A 
HETATM   25  C   UNL     1       8.343  20.792  53.565  1.00  0.00     0.121 A 
HETATM   26  F   UNL     1       8.361  19.951  52.524  1.00  0.00    -0.206 F 
HETATM   27  C   UNL     1       8.126  22.149  53.335  1.00  0.00     0.072 A 
ENDBRANCH  17  20
ENDBRANCH  15  16
ENDBRANCH   1  15
TORSDOF 6
ENDMDL
MODEL 10
REMARK VINA RESULT:      -7.5      2.032      3.471
REMARK  6 active torsions:
REMARK  status: ('A' for Active; 'I' for Inactive)
REMARK    1  A    between atoms: C_2  and  C_3 
REMARK    2  A    between atoms: C_8  and  C_9 
REMARK    3  A    between atoms: C_9  and  N_10 
REMARK    4  A    between atoms: N_10  and  C_12 
REMARK    5  A    between atoms: C_12  and  C_13 
REMARK       I    between atoms: C_13  and  N_14 
REMARK    6  A    between atoms: N_14  and  C_15 
ROOT
HETATM    1  N   UNL     1       7.145  27.519  55.690  1.00  0.00    -0.063 N 
HETATM    2  H   UNL     1       6.127  27.549  55.836  1.00  0.00     0.280 HD
HETATM    3  C   UNL     1       7.749  26.680  56.775  1.00  0.00     0.270 C 
ENDROOT
BRANCH   1   4
HETATM    4  C   UNL     1       7.584  28.986  55.752  1.00  0.00     0.277 C 
BRANCH   4   5
HETATM    5  C   UNL     1       6.887  29.740  56.838  1.00  0.00     0.012 A 
HETATM    6  C   UNL     1       5.513  30.159  56.979  1.00  0.00     0.071 A 
HETATM    7  N   UNL     1       5.340  30.788  58.152  1.00  0.00    -0.178 NA
HETATM    8  N   UNL     1       6.542  30.872  58.708  1.00  0.00    -0.288 N 
HETATM    9  H   UNL     1       6.630  31.368  59.592  1.00  0.00     0.188 HD
HETATM   10  C   UNL     1       7.502  30.251  57.973  1.00  0.00     0.120 A 
BRANCH   6  11
HETATM   11  C   UNL     1       4.260  30.051  56.098  1.00  0.00    -0.004 C 
HETATM   12  C   UNL     1       4.444  30.916  54.829  1.00  0.00     0.021 C 
HETATM   13  C   UNL     1       3.027  30.571  56.875  1.00  0.00     0.021 C 
HETATM   14  C   UNL     1       3.933  28.633  55.622  1.00  0.00     0.021 C 
ENDBRANCH   6  11
ENDBRANCH   4   5
ENDBRANCH   1   4
BRANCH   1  15
HETATM   15  C   UNL     1       7.393  26.883  54.318  1.00  0.00     0.337 C 
BRANCH  15  16
HETATM   16  C   UNL     1       6.936  25.426  54.259  1.00  0.00     0.248 C 
HETATM   17  N   UNL     1       7.989  24.538  54.105  1.00  0.00    -0.326 N 
HETATM   18  H   UNL     1       8.878  24.894  53.772  1.00  0.00     0.169 HD
HETATM   19  O   UNL     1       5.756  25.150  54.438  1.00  0.00    -0.271 OA
BRANCH  17  20
HETATM   20  C   UNL     1       7.945  23.137  54.287  1.00  0.00     0.040 A 
HETATM   21  C   UNL     1       7.784  22.509  55.522  1.00  0.00     0.072 A 
HETATM   22  C   UNL     1       7.821  21.116  55.608  1.00  0.00     0.121 A 
HETATM   23  F   UNL     1       7.685  20.533  56.805  1.00  0.00    -0.206 F 
HETATM   24  C   UNL     1       8.011  20.327  54.485  1.00  0.00     0.084 A 
HETATM   25  C   UNL     1       8.156  20.953  53.259  1.00  0.00     0.121 A 
HETATM   26  F   UNL     1       8.345  20.217  52.156  1.00  0.00    -0.206 F 
HETATM   27  C   UNL     1       8.124  22.342  53.148  1.00  0.00     0.072 A 
ENDBRANCH  17  20
ENDBRANCH  15  16
ENDBRANCH   1  15
TORSDOF 6
ENDMDL
