MODEL 1
REMARK VINA RESULT:     -12.1      0.000      0.000
REMARK  5 active torsions:
REMARK  status: ('A' for Active; 'I' for Inactive)
REMARK    1  A    between atoms: C_2  and  O_5 
REMARK    2  A    between atoms: O_5  and  C_6 
REMARK    3  A    between atoms: C_10  and  C_12 
REMARK    4  A    between atoms: C_16  and  C_17 
REMARK       I    between atoms: C_17  and  N_19 
REMARK    5  A    between atoms: N_19  and  C_20 
ROOT
HETATM    1  C   UNL     1       6.734  28.643  57.308  1.00  0.00     0.061 C 
HETATM    2  C   UNL     1       5.492  29.523  57.440  1.00  0.00     0.279 C 
HETATM    3  N   UNL     1       4.436  28.664  56.892  1.00  0.00     0.085 N 
HETATM    4  C   UNL     1       5.008  28.099  55.667  1.00  0.00     0.284 C 
HETATM    5  C   UNL     1       6.496  27.916  55.971  1.00  0.00     0.116 C 
HETATM    6  H   UNL     1       3.603  29.217  56.680  1.00  0.00     0.315 HD
ENDROOT
BRANCH   5   7
HETATM    7  C   UNL     1       6.938  26.464  56.060  1.00  0.00     0.228 C 
HETATM    8  O   UNL     1       6.764  25.841  57.105  1.00  0.00    -0.273 OA
HETATM    9  N   UNL     1       7.475  25.943  54.900  1.00  0.00    -0.325 N 
HETATM   10  H   UNL     1       7.762  26.599  54.176  1.00  0.00     0.169 HD
BRANCH   9  11
HETATM   11  C   UNL     1       7.783  24.584  54.646  1.00  0.00     0.057 A 
HETATM   12  C   UNL     1       8.064  23.676  55.676  1.00  0.00     0.043 A 
HETATM   13  C   UNL     1       8.318  22.330  55.391  1.00  0.00    -0.017 A 
HETATM   14  C   UNL     1       8.574  21.370  56.468  1.00  0.00     0.029 A 
HETATM   15  C   UNL     1       8.309  21.894  54.059  1.00  0.00     0.044 A 
HETATM   16  C   UNL     1       8.805  20.088  56.164  1.00  0.00     0.092 A 
HETATM   17  N   UNL     1       8.814  19.655  54.864  1.00  0.00    -0.333 N 
HETATM   18  C   UNL     1       8.587  20.463  53.770  1.00  0.00     0.256 A 
HETATM   19  H   UNL     1       8.998  18.680  54.655  1.00  0.00     0.168 HD
HETATM   20  O   UNL     1       8.606  20.030  52.624  1.00  0.00    -0.267 OA
HETATM   21  C   UNL     1       8.030  22.782  53.018  1.00  0.00     0.044 A 
HETATM   22  C   UNL     1       7.753  24.116  53.317  1.00  0.00     0.061 A 
HETATM   23 CL   UNL     1       7.398  25.190  52.007  1.00  0.00    -0.082 Cl
ENDBRANCH   9  11
ENDBRANCH   5   7
BRANCH   1  24
HETATM   24  C   UNL     1       8.032  29.406  57.505  1.00  0.00    -0.049 A 
HETATM   25  C   UNL     1       9.110  29.108  56.654  1.00  0.00     0.007 A 
HETATM   26  C   UNL     1      10.322  29.787  56.765  1.00  0.00     0.003 A 
HETATM   27  C   UNL     1      10.475  30.777  57.732  1.00  0.00     0.037 A 
HETATM   28  C   UNL     1       9.424  31.094  58.594  1.00  0.00     0.078 A 
HETATM   29  C   UNL     1       8.215  30.395  58.487  1.00  0.00     0.044 A 
BRANCH  28  30
HETATM   30  O   UNL     1       9.710  32.088  59.487  1.00  0.00    -0.255 OA
BRANCH  30  31
HETATM   31  C   UNL     1       9.555  31.804  60.866  1.00  0.00     0.530 C 
HETATM   32  F   UNL     1       8.436  32.372  61.364  1.00  0.00    -0.144 F 
HETATM   33  F   UNL     1      10.615  32.311  61.535  1.00  0.00    -0.144 F 
HETATM   34  F   UNL     1       9.521  30.471  61.086  1.00  0.00    -0.144 F 
ENDBRANCH  30  31
ENDBRANCH  28  30
ENDBRANCH   1  24
TORSDOF 5
ENDMDL
MODEL 2
REMARK VINA RESULT:     -11.7      1.606      2.139
REMARK  5 active torsions:
REMARK  status: ('A' for Active; 'I' for Inactive)
REMARK    1  A    between atoms: C_2  and  O_5 
REMARK    2  A    between atoms: O_5  and  C_6 
REMARK    3  A    between atoms: C_10  and  C_12 
REMARK    4  A    between atoms: C_16  and  C_17 
REMARK       I    between atoms: C_17  and  N_19 
REMARK    5  A    between atoms: N_19  and  C_20 
ROOT
HETATM    1  C   UNL     1       6.843  28.673  56.810  1.00  0.00     0.061 C 
HETATM    2  C   UNL     1       5.557  29.309  57.337  1.00  0.00     0.279 C 
HETATM    3  N   UNL     1       4.521  28.612  56.566  1.00  0.00     0.085 N 
HETATM    4  C   UNL     1       5.017  28.603  55.188  1.00  0.00     0.284 C 
HETATM    5  C   UNL     1       6.536  28.474  55.313  1.00  0.00     0.116 C 
HETATM    6  H   UNL     1       3.633  29.115  56.628  1.00  0.00     0.315 HD
ENDROOT
BRANCH   5   7
HETATM    7  C   UNL     1       7.089  27.146  54.821  1.00  0.00     0.228 C 
HETATM    8  O   UNL     1       7.798  27.118  53.818  1.00  0.00    -0.273 OA
HETATM    9  N   UNL     1       6.768  26.053  55.601  1.00  0.00    -0.325 N 
HETATM   10  H   UNL     1       6.011  26.160  56.275  1.00  0.00     0.169 HD
BRANCH   9  11
HETATM   11  C   UNL     1       7.301  24.746  55.489  1.00  0.00     0.057 A 
HETATM   12  C   UNL     1       7.135  23.967  54.336  1.00  0.00     0.043 A 
HETATM   13  C   UNL     1       7.716  22.698  54.241  1.00  0.00    -0.017 A 
HETATM   14  C   UNL     1       7.577  21.898  53.022  1.00  0.00     0.029 A 
HETATM   15  C   UNL     1       8.455  22.196  55.321  1.00  0.00     0.044 A 
HETATM   16  C   UNL     1       8.152  20.691  52.960  1.00  0.00     0.092 A 
HETATM   17  N   UNL     1       8.862  20.186  54.016  1.00  0.00    -0.333 N 
HETATM   18  C   UNL     1       9.061  20.845  55.211  1.00  0.00     0.256 A 
HETATM   19  H   UNL     1       9.284  19.265  53.950  1.00  0.00     0.168 HD
HETATM   20  O   UNL     1       9.704  20.351  56.129  1.00  0.00    -0.267 OA
HETATM   21  C   UNL     1       8.633  22.957  56.479  1.00  0.00     0.044 A 
HETATM   22  C   UNL     1       8.070  24.231  56.551  1.00  0.00     0.061 A 
HETATM   23 CL   UNL     1       8.320  25.154  57.994  1.00  0.00    -0.082 Cl
ENDBRANCH   9  11
ENDBRANCH   5   7
BRANCH   1  24
HETATM   24  C   UNL     1       8.094  29.436  57.205  1.00  0.00    -0.049 A 
HETATM   25  C   UNL     1       9.283  29.166  56.505  1.00  0.00     0.007 A 
HETATM   26  C   UNL     1      10.462  29.847  56.801  1.00  0.00     0.003 A 
HETATM   27  C   UNL     1      10.470  30.812  57.804  1.00  0.00     0.037 A 
HETATM   28  C   UNL     1       9.307  31.102  58.519  1.00  0.00     0.078 A 
HETATM   29  C   UNL     1       8.130  30.401  58.227  1.00  0.00     0.044 A 
BRANCH  28  30
HETATM   30  O   UNL     1       9.457  32.074  59.467  1.00  0.00    -0.255 OA
BRANCH  30  31
HETATM   31  C   UNL     1       9.419  31.683  60.829  1.00  0.00     0.530 C 
HETATM   32  F   UNL     1       9.466  30.340  60.957  1.00  0.00    -0.144 F 
HETATM   33  F   UNL     1       8.259  32.116  61.371  1.00  0.00    -0.144 F 
HETATM   34  F   UNL     1      10.437  32.240  61.521  1.00  0.00    -0.144 F 
ENDBRANCH  30  31
ENDBRANCH  28  30
ENDBRANCH   1  24
TORSDOF 5
ENDMDL
MODEL 3
REMARK VINA RESULT:     -11.5      5.781      8.593
REMARK  5 active torsions:
REMARK  status: ('A' for Active; 'I' for Inactive)
REMARK    1  A    between atoms: C_2  and  O_5 
REMARK    2  A    between atoms: O_5  and  C_6 
REMARK    3  A    between atoms: C_10  and  C_12 
REMARK    4  A    between atoms: C_16  and  C_17 
REMARK       I    between atoms: C_17  and  N_19 
REMARK    5  A    between atoms: N_19  and  C_20 
ROOT
HETATM    1  C   UNL     1       6.005  25.507  55.682  1.00  0.00     0.061 C 
HETATM    2  C   UNL     1       5.120  25.513  56.928  1.00  0.00     0.279 C 
HETATM    3  N   UNL     1       4.466  26.824  56.845  1.00  0.00     0.085 N 
HETATM    4  C   UNL     1       5.540  27.760  56.504  1.00  0.00     0.284 C 
HETATM    5  C   UNL     1       6.485  26.969  55.598  1.00  0.00     0.116 C 
HETATM    6  H   UNL     1       4.045  27.068  57.743  1.00  0.00     0.315 HD
ENDROOT
BRANCH   5   7
HETATM    7  C   UNL     1       6.508  27.447  54.155  1.00  0.00     0.228 C 
HETATM    8  O   UNL     1       7.540  27.925  53.690  1.00  0.00    -0.273 OA
HETATM    9  N   UNL     1       5.333  27.253  53.456  1.00  0.00    -0.325 N 
HETATM   10  H   UNL     1       4.492  27.048  53.993  1.00  0.00     0.169 HD
BRANCH   9  11
HETATM   11  C   UNL     1       5.139  27.422  52.064  1.00  0.00     0.057 A 
HETATM   12  C   UNL     1       5.133  28.686  51.457  1.00  0.00     0.043 A 
HETATM   13  C   UNL     1       4.985  28.813  50.072  1.00  0.00    -0.017 A 
HETATM   14  C   UNL     1       5.018  30.130  49.431  1.00  0.00     0.029 A 
HETATM   15  C   UNL     1       4.822  27.662  49.288  1.00  0.00     0.044 A 
HETATM   16  C   UNL     1       4.881  30.217  48.103  1.00  0.00     0.092 A 
HETATM   17  N   UNL     1       4.706  29.100  47.331  1.00  0.00    -0.333 N 
HETATM   18  C   UNL     1       4.659  27.812  47.820  1.00  0.00     0.256 A 
HETATM   19  H   UNL     1       4.598  29.189  46.326  1.00  0.00     0.168 HD
HETATM   20  O   UNL     1       4.499  26.841  47.088  1.00  0.00    -0.267 OA
HETATM   21  C   UNL     1       4.826  26.393  49.872  1.00  0.00     0.044 A 
HETATM   22  C   UNL     1       5.000  26.279  51.252  1.00  0.00     0.061 A 
HETATM   23 CL   UNL     1       5.013  24.692  51.944  1.00  0.00    -0.082 Cl
ENDBRANCH   9  11
ENDBRANCH   5   7
BRANCH   1  24
HETATM   24  C   UNL     1       7.041  24.397  55.689  1.00  0.00    -0.049 A 
HETATM   25  C   UNL     1       7.598  24.019  56.922  1.00  0.00     0.007 A 
HETATM   26  C   UNL     1       8.537  22.991  57.002  1.00  0.00     0.003 A 
HETATM   27  C   UNL     1       8.932  22.324  55.846  1.00  0.00     0.037 A 
HETATM   28  C   UNL     1       8.399  22.678  54.606  1.00  0.00     0.078 A 
HETATM   29  C   UNL     1       7.469  23.723  54.532  1.00  0.00     0.044 A 
BRANCH  28  30
HETATM   30  O   UNL     1       8.871  21.937  53.559  1.00  0.00    -0.255 OA
BRANCH  30  31
HETATM   31  C   UNL     1       8.435  20.593  53.449  1.00  0.00     0.530 C 
HETATM   32  F   UNL     1       9.318  19.741  54.012  1.00  0.00    -0.144 F 
HETATM   33  F   UNL     1       8.328  20.279  52.138  1.00  0.00    -0.144 F 
HETATM   34  F   UNL     1       7.221  20.429  54.018  1.00  0.00    -0.144 F 
ENDBRANCH  30  31
ENDBRANCH  28  30
ENDBRANCH   1  24
TORSDOF 5
ENDMDL
MODEL 4
REMARK VINA RESULT:     -11.2      6.659      8.373
REMARK  5 active torsions:
REMARK  status: ('A' for Active; 'I' for Inactive)
REMARK    1  A    between atoms: C_2  and  O_5 
REMARK    2  A    between atoms: O_5  and  C_6 
REMARK    3  A    between atoms: C_10  and  C_12 
REMARK    4  A    between atoms: C_16  and  C_17 
REMARK       I    between atoms: C_17  and  N_19 
REMARK    5  A    between atoms: N_19  and  C_20 
ROOT
HETATM    1  C   UNL     1       5.569  27.788  51.931  1.00  0.00     0.061 C 
HETATM    2  C   UNL     1       5.714  29.202  52.492  1.00  0.00     0.279 C 
HETATM    3  N   UNL     1       5.634  28.978  53.940  1.00  0.00     0.085 N 
HETATM    4  C   UNL     1       4.511  28.055  54.117  1.00  0.00     0.284 C 
HETATM    5  C   UNL     1       4.545  27.146  52.887  1.00  0.00     0.116 C 
HETATM    6  H   UNL     1       5.458  29.860  54.426  1.00  0.00     0.315 HD
ENDROOT
BRANCH   5   7
HETATM    7  C   UNL     1       4.920  25.704  53.191  1.00  0.00     0.228 C 
HETATM    8  O   UNL     1       4.371  24.792  52.577  1.00  0.00    -0.273 OA
HETATM    9  N   UNL     1       5.914  25.545  54.135  1.00  0.00    -0.325 N 
HETATM   10  H   UNL     1       6.142  26.345  54.722  1.00  0.00     0.169 HD
BRANCH   9  11
HETATM   11  C   UNL     1       6.585  24.342  54.463  1.00  0.00     0.057 A 
HETATM   12  C   UNL     1       6.982  23.417  53.487  1.00  0.00     0.043 A 
HETATM   13  C   UNL     1       7.685  22.260  53.842  1.00  0.00    -0.017 A 
HETATM   14  C   UNL     1       8.135  21.311  52.821  1.00  0.00     0.029 A 
HETATM   15  C   UNL     1       7.977  22.019  55.192  1.00  0.00     0.044 A 
HETATM   16  C   UNL     1       8.812  20.219  53.192  1.00  0.00     0.092 A 
HETATM   17  N   UNL     1       9.088  19.967  54.510  1.00  0.00    -0.333 N 
HETATM   18  C   UNL     1       8.718  20.785  55.556  1.00  0.00     0.256 A 
HETATM   19  H   UNL     1       9.598  19.129  54.770  1.00  0.00     0.168 HD
HETATM   20  O   UNL     1       8.988  20.516  56.721  1.00  0.00    -0.267 OA
HETATM   21  C   UNL     1       7.592  22.929  56.179  1.00  0.00     0.044 A 
HETATM   22  C   UNL     1       6.914  24.090  55.809  1.00  0.00     0.061 A 
HETATM   23 CL   UNL     1       6.462  25.204  57.055  1.00  0.00    -0.082 Cl
ENDBRANCH   9  11
ENDBRANCH   5   7
BRANCH   1  24
HETATM   24  C   UNL     1       5.294  27.760  50.439  1.00  0.00    -0.049 A 
HETATM   25  C   UNL     1       5.448  28.955  49.715  1.00  0.00     0.007 A 
HETATM   26  C   UNL     1       5.233  28.994  48.338  1.00  0.00     0.003 A 
HETATM   27  C   UNL     1       4.861  27.835  47.663  1.00  0.00     0.037 A 
HETATM   28  C   UNL     1       4.697  26.633  48.354  1.00  0.00     0.078 A 
HETATM   29  C   UNL     1       4.898  26.606  49.739  1.00  0.00     0.044 A 
BRANCH  28  30
HETATM   30  O   UNL     1       4.337  25.577  47.566  1.00  0.00    -0.255 OA
BRANCH  30  31
HETATM   31  C   UNL     1       2.986  25.151  47.603  1.00  0.00     0.530 C 
HETATM   32  F   UNL     1       2.848  24.012  48.314  1.00  0.00    -0.144 F 
HETATM   33  F   UNL     1       2.573  24.909  46.339  1.00  0.00    -0.144 F 
HETATM   34  F   UNL     1       2.191  26.110  48.126  1.00  0.00    -0.144 F 
ENDBRANCH  30  31
ENDBRANCH  28  30
ENDBRANCH   1  24
TORSDOF 5
ENDMDL
MODEL 5
REMARK VINA RESULT:     -11.0      6.322      8.818
REMARK  5 active torsions:
REMARK  status: ('A' for Active; 'I' for Inactive)
REMARK    1  A    between atoms: C_2  and  O_5 
REMARK    2  A    between atoms: O_5  and  C_6 
REMARK    3  A    between atoms: C_10  and  C_12 
REMARK    4  A    between atoms: C_16  and  C_17 
REMARK       I    between atoms: C_17  and  N_19 
REMARK    5  A    between atoms: N_19  and  C_20 
ROOT
HETATM    1  C   UNL     1       5.696  25.361  55.466  1.00  0.00     0.061 C 
HETATM    2  C   UNL     1       5.392  25.966  56.836  1.00  0.00     0.279 C 
HETATM    3  N   UNL     1       4.479  27.065  56.502  1.00  0.00     0.085 N 
HETATM    4  C   UNL     1       5.092  27.725  55.347  1.00  0.00     0.284 C 
HETATM    5  C   UNL     1       5.760  26.601  54.553  1.00  0.00     0.116 C 
HETATM    6  H   UNL     1       4.400  27.712  57.288  1.00  0.00     0.315 HD
ENDROOT
BRANCH   5   7
HETATM    7  C   UNL     1       5.108  26.316  53.210  1.00  0.00     0.228 C 
HETATM    8  O   UNL     1       4.407  25.315  53.076  1.00  0.00    -0.273 OA
HETATM    9  N   UNL     1       5.333  27.268  52.236  1.00  0.00    -0.325 N 
HETATM   10  H   UNL     1       6.090  27.932  52.390  1.00  0.00     0.169 HD
BRANCH   9  11
HETATM   11  C   UNL     1       4.698  27.355  50.974  1.00  0.00     0.057 A 
HETATM   12  C   UNL     1       4.443  26.224  50.185  1.00  0.00     0.043 A 
HETATM   13  C   UNL     1       3.771  26.341  48.964  1.00  0.00    -0.017 A 
HETATM   14  C   UNL     1       3.470  25.157  48.156  1.00  0.00     0.029 A 
HETATM   15  C   UNL     1       3.366  27.608  48.519  1.00  0.00     0.044 A 
HETATM   16  C   UNL     1       2.818  25.302  46.997  1.00  0.00     0.092 A 
HETATM   17  N   UNL     1       2.432  26.536  46.546  1.00  0.00    -0.333 N 
HETATM   18  C   UNL     1       2.659  27.719  47.218  1.00  0.00     0.256 A 
HETATM   19  H   UNL     1       1.944  26.625  45.661  1.00  0.00     0.168 HD
HETATM   20  O   UNL     1       2.295  28.802  46.774  1.00  0.00    -0.267 OA
HETATM   21  C   UNL     1       3.608  28.747  49.291  1.00  0.00     0.044 A 
HETATM   22  C   UNL     1       4.257  28.613  50.518  1.00  0.00     0.061 A 
HETATM   23 CL   UNL     1       4.532  30.042  51.457  1.00  0.00    -0.082 Cl
ENDBRANCH   9  11
ENDBRANCH   5   7
BRANCH   1  24
HETATM   24  C   UNL     1       6.873  24.403  55.482  1.00  0.00    -0.049 A 
HETATM   25  C   UNL     1       7.588  24.252  56.683  1.00  0.00     0.007 A 
HETATM   26  C   UNL     1       8.665  23.372  56.772  1.00  0.00     0.003 A 
HETATM   27  C   UNL     1       9.043  22.626  55.660  1.00  0.00     0.037 A 
HETATM   28  C   UNL     1       8.355  22.754  54.452  1.00  0.00     0.078 A 
HETATM   29  C   UNL     1       7.285  23.654  54.365  1.00  0.00     0.044 A 
BRANCH  28  30
HETATM   30  O   UNL     1       8.828  21.958  53.448  1.00  0.00    -0.255 OA
BRANCH  30  31
HETATM   31  C   UNL     1       8.392  20.611  53.408  1.00  0.00     0.530 C 
HETATM   32  F   UNL     1       7.220  20.453  54.059  1.00  0.00    -0.144 F 
HETATM   33  F   UNL     1       9.318  19.837  54.017  1.00  0.00    -0.144 F 
HETATM   34  F   UNL     1       8.262  20.181  52.133  1.00  0.00    -0.144 F 
ENDBRANCH  30  31
ENDBRANCH  28  30
ENDBRANCH   1  24
TORSDOF 5
ENDMDL
MODEL 6
REMARK VINA RESULT:     -10.9      5.607      8.536
REMARK  5 active torsions:
REMARK  status: ('A' for Active; 'I' for Inactive)
REMARK    1  A    between atoms: C_2  and  O_5 
REMARK    2  A    between atoms: O_5  and  C_6 
REMARK    3  A    between atoms: C_10  and  C_12 
REMARK    4  A    between atoms: C_16  and  C_17 
REMARK       I    between atoms: C_17  and  N_19 
REMARK    5  A    between atoms: N_19  and  C_20 
ROOT
HETATM    1  C   UNL     1       5.734  25.502  55.295  1.00  0.00     0.061 C 
HETATM    2  C   UNL     1       5.165  25.237  56.689  1.00  0.00     0.279 C 
HETATM    3  N   UNL     1       4.606  26.543  57.056  1.00  0.00     0.085 N 
HETATM    4  C   UNL     1       5.636  27.514  56.677  1.00  0.00     0.284 C 
HETATM    5  C   UNL     1       6.285  26.935  55.419  1.00  0.00     0.116 C 
HETATM    6  H   UNL     1       4.424  26.582  58.060  1.00  0.00     0.315 HD
ENDROOT
BRANCH   5   7
HETATM    7  C   UNL     1       6.006  27.732  54.154  1.00  0.00     0.228 C 
HETATM    8  O   UNL     1       6.809  28.586  53.785  1.00  0.00    -0.273 OA
HETATM    9  N   UNL     1       4.852  27.380  53.484  1.00  0.00    -0.325 N 
HETATM   10  H   UNL     1       4.166  26.817  53.986  1.00  0.00     0.169 HD
BRANCH   9  11
HETATM   11  C   UNL     1       4.454  27.814  52.196  1.00  0.00     0.057 A 
HETATM   12  C   UNL     1       4.721  27.068  51.040  1.00  0.00     0.043 A 
HETATM   13  C   UNL     1       4.272  27.505  49.789  1.00  0.00    -0.017 A 
HETATM   14  C   UNL     1       4.515  26.708  48.584  1.00  0.00     0.029 A 
HETATM   15  C   UNL     1       3.566  28.712  49.693  1.00  0.00     0.044 A 
HETATM   16  C   UNL     1       4.066  27.150  47.403  1.00  0.00     0.092 A 
HETATM   17  N   UNL     1       3.388  28.335  47.298  1.00  0.00    -0.333 N 
HETATM   18  C   UNL     1       3.101  29.168  48.358  1.00  0.00     0.256 A 
HETATM   19  H   UNL     1       3.062  28.655  46.391  1.00  0.00     0.168 HD
HETATM   20  O   UNL     1       2.491  30.221  48.214  1.00  0.00    -0.267 OA
HETATM   21  C   UNL     1       3.288  29.470  50.833  1.00  0.00     0.044 A 
HETATM   22  C   UNL     1       3.719  29.011  52.078  1.00  0.00     0.061 A 
HETATM   23 CL   UNL     1       3.349  29.965  53.474  1.00  0.00    -0.082 Cl
ENDBRANCH   9  11
ENDBRANCH   5   7
BRANCH   1  24
HETATM   24  C   UNL     1       6.659  24.402  54.807  1.00  0.00    -0.049 A 
HETATM   25  C   UNL     1       6.730  24.163  53.424  1.00  0.00     0.007 A 
HETATM   26  C   UNL     1       7.577  23.184  52.907  1.00  0.00     0.003 A 
HETATM   27  C   UNL     1       8.368  22.428  53.767  1.00  0.00     0.037 A 
HETATM   28  C   UNL     1       8.319  22.640  55.146  1.00  0.00     0.078 A 
HETATM   29  C   UNL     1       7.453  23.614  55.659  1.00  0.00     0.044 A 
BRANCH  28  30
HETATM   30  O   UNL     1       9.151  21.834  55.869  1.00  0.00    -0.255 OA
BRANCH  30  31
HETATM   31  C   UNL     1       8.567  20.803  56.645  1.00  0.00     0.530 C 
HETATM   32  F   UNL     1       8.300  21.222  57.900  1.00  0.00    -0.144 F 
HETATM   33  F   UNL     1       9.439  19.772  56.724  1.00  0.00    -0.144 F 
HETATM   34  F   UNL     1       7.433  20.347  56.069  1.00  0.00    -0.144 F 
ENDBRANCH  30  31
ENDBRANCH  28  30
ENDBRANCH   1  24
TORSDOF 5
ENDMDL
MODEL 7
REMARK VINA RESULT:     -10.8      5.797      8.822
REMARK  5 active torsions:
REMARK  status: ('A' for Active; 'I' for Inactive)
REMARK    1  A    between atoms: C_2  and  O_5 
REMARK    2  A    between atoms: O_5  and  C_6 
REMARK    3  A    between atoms: C_10  and  C_12 
REMARK    4  A    between atoms: C_16  and  C_17 
REMARK       I    between atoms: C_17  and  N_19 
REMARK    5  A    between atoms: N_19  and  C_20 
ROOT
HETATM    1  C   UNL     1       5.444  25.481  55.194  1.00  0.00     0.061 C 
HETATM    2  C   UNL     1       5.214  25.399  56.703  1.00  0.00     0.279 C 
HETATM    3  N   UNL     1       4.476  26.637  56.978  1.00  0.00     0.085 N 
HETATM    4  C   UNL     1       5.193  27.676  56.235  1.00  0.00     0.284 C 
HETATM    5  C   UNL     1       5.700  26.984  54.969  1.00  0.00     0.116 C 
HETATM    6  H   UNL     1       4.481  26.839  57.980  1.00  0.00     0.315 HD
ENDROOT
BRANCH   5   7
HETATM    7  C   UNL     1       5.030  27.460  53.690  1.00  0.00     0.228 C 
HETATM    8  O   UNL     1       3.808  27.584  53.656  1.00  0.00    -0.273 OA
HETATM    9  N   UNL     1       5.892  27.764  52.656  1.00  0.00    -0.325 N 
HETATM   10  H   UNL     1       6.850  27.425  52.724  1.00  0.00     0.169 HD
BRANCH   9  11
HETATM   11  C   UNL     1       5.560  28.404  51.437  1.00  0.00     0.057 A 
HETATM   12  C   UNL     1       5.692  29.788  51.260  1.00  0.00     0.043 A 
HETATM   13  C   UNL     1       5.399  30.382  50.027  1.00  0.00    -0.017 A 
HETATM   14  C   UNL     1       5.574  31.822  49.827  1.00  0.00     0.029 A 
HETATM   15  C   UNL     1       4.951  29.582  48.967  1.00  0.00     0.044 A 
HETATM   16  C   UNL     1       5.293  32.358  48.634  1.00  0.00     0.092 A 
HETATM   17  N   UNL     1       4.839  31.587  47.596  1.00  0.00    -0.333 N 
HETATM   18  C   UNL     1       4.637  30.225  47.665  1.00  0.00     0.256 A 
HETATM   19  H   UNL     1       4.626  32.015  46.701  1.00  0.00     0.168 HD
HETATM   20  O   UNL     1       4.228  29.577  46.709  1.00  0.00    -0.267 OA
HETATM   21  C   UNL     1       4.814  28.201  49.122  1.00  0.00     0.044 A 
HETATM   22  C   UNL     1       5.133  27.618  50.349  1.00  0.00     0.061 A 
HETATM   23 CL   UNL     1       4.965  25.902  50.507  1.00  0.00    -0.082 Cl
ENDBRANCH   9  11
ENDBRANCH   5   7
BRANCH   1  24
HETATM   24  C   UNL     1       6.469  24.481  54.689  1.00  0.00    -0.049 A 
HETATM   25  C   UNL     1       6.591  24.303  53.300  1.00  0.00     0.007 A 
HETATM   26  C   UNL     1       7.528  23.418  52.769  1.00  0.00     0.003 A 
HETATM   27  C   UNL     1       8.360  22.697  53.621  1.00  0.00     0.037 A 
HETATM   28  C   UNL     1       8.261  22.850  55.005  1.00  0.00     0.078 A 
HETATM   29  C   UNL     1       7.306  23.728  55.531  1.00  0.00     0.044 A 
BRANCH  28  30
HETATM   30  O   UNL     1       9.142  22.087  55.719  1.00  0.00    -0.255 OA
BRANCH  30  31
HETATM   31  C   UNL     1       8.626  20.989  56.450  1.00  0.00     0.530 C 
HETATM   32  F   UNL     1       8.341  21.335  57.723  1.00  0.00    -0.144 F 
HETATM   33  F   UNL     1       9.560  20.012  56.481  1.00  0.00    -0.144 F 
HETATM   34  F   UNL     1       7.519  20.490  55.858  1.00  0.00    -0.144 F 
ENDBRANCH  30  31
ENDBRANCH  28  30
ENDBRANCH   1  24
TORSDOF 5
ENDMDL
MODEL 8
REMARK VINA RESULT:     -10.7      4.660      9.419
REMARK  5 active torsions:
REMARK  status: ('A' for Active; 'I' for Inactive)
REMARK    1  A    between atoms: C_2  and  O_5 
REMARK    2  A    between atoms: O_5  and  C_6 
REMARK    3  A    between atoms: C_10  and  C_12 
REMARK    4  A    between atoms: C_16  and  C_17 
REMARK       I    between atoms: C_17  and  N_19 
REMARK    5  A    between atoms: N_19  and  C_20 
ROOT
HETATM    1  C   UNL     1       7.247  26.446  54.688  1.00  0.00     0.061 C 
HETATM    2  C   UNL     1       7.290  26.628  53.171  1.00  0.00     0.279 C 
HETATM    3  N   UNL     1       6.660  27.941  52.991  1.00  0.00     0.085 N 
HETATM    4  C   UNL     1       5.479  27.913  53.858  1.00  0.00     0.284 C 
HETATM    5  C   UNL     1       5.892  27.074  55.068  1.00  0.00     0.116 C 
HETATM    6  H   UNL     1       6.389  28.074  52.015  1.00  0.00     0.315 HD
ENDROOT
BRANCH   5   7
HETATM    7  C   UNL     1       6.007  27.864  56.362  1.00  0.00     0.228 C 
HETATM    8  O   UNL     1       5.484  27.431  57.386  1.00  0.00    -0.273 OA
HETATM    9  N   UNL     1       6.756  29.020  56.277  1.00  0.00    -0.325 N 
HETATM   10  H   UNL     1       6.958  29.385  55.347  1.00  0.00     0.169 HD
BRANCH   9  11
HETATM   11  C   UNL     1       7.184  29.833  57.354  1.00  0.00     0.057 A 
HETATM   12  C   UNL     1       6.314  30.704  58.025  1.00  0.00     0.043 A 
HETATM   13  C   UNL     1       6.759  31.459  59.116  1.00  0.00    -0.017 A 
HETATM   14  C   UNL     1       5.843  32.340  59.843  1.00  0.00     0.029 A 
HETATM   15  C   UNL     1       8.095  31.353  59.527  1.00  0.00     0.044 A 
HETATM   16  C   UNL     1       6.298  33.042  60.888  1.00  0.00     0.092 A 
HETATM   17  N   UNL     1       7.605  32.957  61.287  1.00  0.00    -0.333 N 
HETATM   18  C   UNL     1       8.557  32.164  60.683  1.00  0.00     0.256 A 
HETATM   19  H   UNL     1       7.931  33.503  62.078  1.00  0.00     0.168 HD
HETATM   20  O   UNL     1       9.717  32.122  61.076  1.00  0.00    -0.267 OA
HETATM   21  C   UNL     1       8.978  30.490  58.873  1.00  0.00     0.044 A 
HETATM   22  C   UNL     1       8.515  29.725  57.803  1.00  0.00     0.061 A 
HETATM   23 CL   UNL     1       9.629  28.655  57.021  1.00  0.00    -0.082 Cl
ENDBRANCH   9  11
ENDBRANCH   5   7
BRANCH   1  24
HETATM   24  C   UNL     1       7.544  25.025  55.130  1.00  0.00    -0.049 A 
HETATM   25  C   UNL     1       8.020  24.825  56.437  1.00  0.00     0.007 A 
HETATM   26  C   UNL     1       8.291  23.544  56.915  1.00  0.00     0.003 A 
HETATM   27  C   UNL     1       8.089  22.441  56.090  1.00  0.00     0.037 A 
HETATM   28  C   UNL     1       7.619  22.607  54.787  1.00  0.00     0.078 A 
HETATM   29  C   UNL     1       7.366  23.898  54.308  1.00  0.00     0.044 A 
BRANCH  28  30
HETATM   30  O   UNL     1       7.461  21.440  54.093  1.00  0.00    -0.255 OA
BRANCH  30  31
HETATM   31  C   UNL     1       8.621  20.814  53.574  1.00  0.00     0.530 C 
HETATM   32  F   UNL     1       9.082  19.861  54.412  1.00  0.00    -0.144 F 
HETATM   33  F   UNL     1       9.588  21.746  53.427  1.00  0.00    -0.144 F 
HETATM   34  F   UNL     1       8.377  20.270  52.362  1.00  0.00    -0.144 F 
ENDBRANCH  30  31
ENDBRANCH  28  30
ENDBRANCH   1  24
TORSDOF 5
ENDMDL
MODEL 9
REMARK VINA RESULT:     -10.5      5.524      7.930
REMARK  5 active torsions:
REMARK  status: ('A' for Active; 'I' for Inactive)
REMARK    1  A    between atoms: C_2  and  O_5 
REMARK    2  A    between atoms: O_5  and  C_6 
REMARK    3  A    between atoms: C_10  and  C_12 
REMARK    4  A    between atoms: C_16  and  C_17 
REMARK       I    between atoms: C_17  and  N_19 
REMARK    5  A    between atoms: N_19  and  C_20 
ROOT
HETATM    1  C   UNL     1       6.588  27.183  56.413  1.00  0.00     0.061 C 
HETATM    2  C   UNL     1       6.857  27.992  57.681  1.00  0.00     0.279 C 
HETATM    3  N   UNL     1       6.359  29.324  57.318  1.00  0.00     0.085 N 
HETATM    4  C   UNL     1       6.881  29.568  55.972  1.00  0.00     0.284 C 
HETATM    5  C   UNL     1       6.885  28.198  55.291  1.00  0.00     0.116 C 
HETATM    6  H   UNL     1       6.708  30.025  57.975  1.00  0.00     0.315 HD
ENDROOT
BRANCH   5   7
HETATM    7  C   UNL     1       5.877  28.063  54.161  1.00  0.00     0.228 C 
HETATM    8  O   UNL     1       4.748  28.528  54.296  1.00  0.00    -0.273 OA
HETATM    9  N   UNL     1       6.354  27.444  53.023  1.00  0.00    -0.325 N 
HETATM   10  H   UNL     1       7.222  26.917  53.099  1.00  0.00     0.169 HD
BRANCH   9  11
HETATM   11  C   UNL     1       5.702  27.361  51.768  1.00  0.00     0.057 A 
HETATM   12  C   UNL     1       5.551  28.473  50.929  1.00  0.00     0.043 A 
HETATM   13  C   UNL     1       4.944  28.346  49.675  1.00  0.00    -0.017 A 
HETATM   14  C   UNL     1       4.820  29.498  48.780  1.00  0.00     0.029 A 
HETATM   15  C   UNL     1       4.465  27.093  49.267  1.00  0.00     0.044 A 
HETATM   16  C   UNL     1       4.241  29.341  47.584  1.00  0.00     0.092 A 
HETATM   17  N   UNL     1       3.756  28.125  47.182  1.00  0.00    -0.333 N 
HETATM   18  C   UNL     1       3.816  26.972  47.936  1.00  0.00     0.256 A 
HETATM   19  H   UNL     1       3.315  28.029  46.273  1.00  0.00     0.168 HD
HETATM   20  O   UNL     1       3.367  25.905  47.533  1.00  0.00    -0.267 OA
HETATM   21  C   UNL     1       4.607  25.971  50.087  1.00  0.00     0.044 A 
HETATM   22  C   UNL     1       5.237  26.107  51.324  1.00  0.00     0.061 A 
HETATM   23 CL   UNL     1       5.409  24.697  52.312  1.00  0.00    -0.082 Cl
ENDBRANCH   9  11
ENDBRANCH   5   7
BRANCH   1  24
HETATM   24  C   UNL     1       7.302  25.843  56.394  1.00  0.00    -0.049 A 
HETATM   25  C   UNL     1       8.321  25.623  57.336  1.00  0.00     0.007 A 
HETATM   26  C   UNL     1       9.001  24.407  57.388  1.00  0.00     0.003 A 
HETATM   27  C   UNL     1       8.669  23.390  56.498  1.00  0.00     0.037 A 
HETATM   28  C   UNL     1       7.664  23.579  55.549  1.00  0.00     0.078 A 
HETATM   29  C   UNL     1       6.997  24.809  55.491  1.00  0.00     0.044 A 
BRANCH  28  30
HETATM   30  O   UNL     1       7.439  22.497  54.745  1.00  0.00    -0.255 OA
BRANCH  30  31
HETATM   31  C   UNL     1       8.188  22.394  53.546  1.00  0.00     0.530 C 
HETATM   32  F   UNL     1       7.556  21.623  52.636  1.00  0.00    -0.144 F 
HETATM   33  F   UNL     1       9.379  21.821  53.827  1.00  0.00    -0.144 F 
HETATM   34  F   UNL     1       8.426  23.615  53.018  1.00  0.00    -0.144 F 
ENDBRANCH  30  31
ENDBRANCH  28  30
ENDBRANCH   1  24
TORSDOF 5
ENDMDL
MODEL 10
REMARK VINA RESULT:     -10.5      4.797      9.347
REMARK  5 active torsions:
REMARK  status: ('A' for Active; 'I' for Inactive)
REMARK    1  A    between atoms: C_2  and  O_5 
REMARK    2  A    between atoms: O_5  and  C_6 
REMARK    3  A    between atoms: C_10  and  C_12 
REMARK    4  A    between atoms: C_16  and  C_17 
REMARK       I    between atoms: C_17  and  N_19 
REMARK    5  A    between atoms: N_19  and  C_20 
ROOT
HETATM    1  C   UNL     1       6.948  25.918  54.486  1.00  0.00     0.061 C 
HETATM    2  C   UNL     1       7.061  26.006  52.965  1.00  0.00     0.279 C 
HETATM    3  N   UNL     1       6.256  27.193  52.656  1.00  0.00     0.085 N 
HETATM    4  C   UNL     1       5.039  27.042  53.457  1.00  0.00     0.284 C 
HETATM    5  C   UNL     1       5.493  26.355  54.746  1.00  0.00     0.116 C 
HETATM    6  H   UNL     1       6.032  27.221  51.659  1.00  0.00     0.315 HD
ENDROOT
BRANCH   5   7
HETATM    7  C   UNL     1       5.407  27.235  55.983  1.00  0.00     0.228 C 
HETATM    8  O   UNL     1       4.859  26.806  56.996  1.00  0.00    -0.273 OA
HETATM    9  N   UNL     1       6.014  28.469  55.866  1.00  0.00    -0.325 N 
HETATM   10  H   UNL     1       6.245  28.796  54.929  1.00  0.00     0.169 HD
BRANCH   9  11
HETATM   11  C   UNL     1       6.252  29.397  56.909  1.00  0.00     0.057 A 
HETATM   12  C   UNL     1       7.481  29.470  57.579  1.00  0.00     0.043 A 
HETATM   13  C   UNL     1       7.698  30.431  58.572  1.00  0.00    -0.017 A 
HETATM   14  C   UNL     1       8.994  30.535  59.247  1.00  0.00     0.029 A 
HETATM   15  C   UNL     1       6.664  31.316  58.911  1.00  0.00     0.044 A 
HETATM   16  C   UNL     1       9.171  31.471  60.187  1.00  0.00     0.092 A 
HETATM   17  N   UNL     1       8.163  32.330  60.536  1.00  0.00    -0.333 N 
HETATM   18  C   UNL     1       6.905  32.327  59.972  1.00  0.00     0.256 A 
HETATM   19  H   UNL     1       8.317  33.027  61.256  1.00  0.00     0.168 HD
HETATM   20  O   UNL     1       6.033  33.116  60.319  1.00  0.00    -0.267 OA
HETATM   21  C   UNL     1       5.433  31.261  58.255  1.00  0.00     0.044 A 
HETATM   22  C   UNL     1       5.239  30.315  57.249  1.00  0.00     0.061 A 
HETATM   23 CL   UNL     1       3.706  30.280  56.445  1.00  0.00    -0.082 Cl
ENDBRANCH   9  11
ENDBRANCH   5   7
BRANCH   1  24
HETATM   24  C   UNL     1       7.423  24.590  55.047  1.00  0.00    -0.049 A 
HETATM   25  C   UNL     1       8.012  24.583  56.323  1.00  0.00     0.007 A 
HETATM   26  C   UNL     1       8.449  23.394  56.906  1.00  0.00     0.003 A 
HETATM   27  C   UNL     1       8.302  22.192  56.220  1.00  0.00     0.037 A 
HETATM   28  C   UNL     1       7.723  22.166  54.951  1.00  0.00     0.078 A 
HETATM   29  C   UNL     1       7.302  23.366  54.364  1.00  0.00     0.044 A 
BRANCH  28  30
HETATM   30  O   UNL     1       7.636  20.920  54.398  1.00  0.00    -0.255 OA
BRANCH  30  31
HETATM   31  C   UNL     1       8.672  20.507  53.524  1.00  0.00     0.530 C 
HETATM   32  F   UNL     1       8.181  20.096  52.336  1.00  0.00    -0.144 F 
HETATM   33  F   UNL     1       9.328  19.468  54.089  1.00  0.00    -0.144 F 
HETATM   34  F   UNL     1       9.563  21.504  53.325  1.00  0.00    -0.144 F 
ENDBRANCH  30  31
ENDBRANCH  28  30
ENDBRANCH   1  24
TORSDOF 5
ENDMDL
