MODEL 1
REMARK VINA RESULT:      -9.7      0.000      0.000
REMARK  10 active torsions:
REMARK  status: ('A' for Active; 'I' for Inactive)
REMARK       I    between atoms: N_2  and  C_3 
REMARK    1  A    between atoms: N_2  and  C_22 
REMARK    2  A    between atoms: C_3  and  C_4 
REMARK    3  A    between atoms: C_4  and  O_5 
REMARK    4  A    between atoms: O_5  and  C_6 
REMARK    5  A    between atoms: C_6  and  C_7 
REMARK    6  A    between atoms: C_8  and  N_9 
REMARK    7  A    between atoms: N_9  and  C_10 
REMARK    8  A    between atoms: C_10  and  C_11 
REMARK    9  A    between atoms: C_22  and  C_23 
REMARK       I    between atoms: C_23  and  N_24 
REMARK   10  A    between atoms: N_24  and  C_25 
ROOT
HETATM    1  C   UNL     1       6.679  29.327  55.992  1.00  0.00     0.281 C 
ENDROOT
BRANCH   1   2
HETATM    2  C   UNL     1       6.751  28.403  54.771  1.00  0.00     0.244 C 
HETATM    3  N   UNL     1       5.563  27.882  54.269  1.00  0.00    -0.346 N 
HETATM    4  C   UNL     1       4.241  28.375  54.627  1.00  0.00     0.153 C 
HETATM    5  O   UNL     1       7.826  28.158  54.211  1.00  0.00    -0.271 OA
BRANCH   3   6
HETATM    6  C   UNL     1       5.639  27.034  53.072  1.00  0.00     0.228 C 
BRANCH   6   7
HETATM    7  C   UNL     1       5.631  25.540  53.422  1.00  0.00     0.240 C 
HETATM    8  N   UNL     1       6.899  25.051  53.688  1.00  0.00    -0.326 N 
HETATM    9  H   UNL     1       7.661  25.722  53.574  1.00  0.00     0.169 HD
HETATM   10  O   UNL     1       4.582  24.902  53.426  1.00  0.00    -0.271 OA
BRANCH   8  11
HETATM   11  C   UNL     1       7.268  23.736  54.027  1.00  0.00     0.035 A 
HETATM   12  C   UNL     1       7.305  23.248  55.336  1.00  0.00     0.032 A 
HETATM   13  C   UNL     1       7.685  21.926  55.586  1.00  0.00     0.044 A 
HETATM   14  C   UNL     1       8.025  21.094  54.527  1.00  0.00     0.116 A 
HETATM   15  F   UNL     1       8.386  19.827  54.769  1.00  0.00    -0.206 F 
HETATM   16  C   UNL     1       7.996  21.561  53.220  1.00  0.00     0.044 A 
HETATM   17  C   UNL     1       7.622  22.883  52.970  1.00  0.00     0.032 A 
ENDBRANCH   8  11
ENDBRANCH   6   7
ENDBRANCH   3   6
ENDBRANCH   1   2
BRANCH   1  18
HETATM   18  O   UNL     1       6.529  28.533  57.173  1.00  0.00    -0.308 OA
BRANCH  18  19
HETATM   19  C   UNL     1       7.675  28.021  57.683  1.00  0.00     0.295 C 
HETATM   20  O   UNL     1       7.855  26.871  58.053  1.00  0.00    -0.259 OA
BRANCH  19  21
HETATM   21  C   UNL     1       8.711  29.083  57.730  1.00  0.00     0.060 A 
HETATM   22  C   UNL     1       8.595  30.161  58.637  1.00  0.00     0.025 A 
HETATM   23  C   UNL     1       9.614  31.130  58.601  1.00  0.00     0.024 A 
HETATM   24  C   UNL     1      10.731  30.996  57.767  1.00  0.00     0.002 A 
HETATM   25  C   UNL     1      10.849  29.900  56.921  1.00  0.00     0.001 A 
HETATM   26  C   UNL     1       9.838  28.946  56.897  1.00  0.00     0.019 A 
BRANCH  22  27
HETATM   27  N   UNL     1       7.437  30.324  59.418  1.00  0.00    -0.286 NA
HETATM   28  H   UNL     1       7.453  29.686  60.219  1.00  0.00     0.128 HD
BRANCH  27  29
HETATM   29  C   UNL     1       6.997  31.666  59.803  1.00  0.00     0.157 C 
BRANCH  29  30
HETATM   30  C   UNL     1       7.321  32.061  61.206  1.00  0.00     0.065 A 
HETATM   31  O   UNL     1       6.465  32.955  61.786  1.00  0.00    -0.326 OA
HETATM   32  C   UNL     1       6.916  33.181  63.045  1.00  0.00     0.142 A 
HETATM   33  C   UNL     1       8.056  32.452  63.286  1.00  0.00     0.027 A 
HETATM   34  C   UNL     1       8.320  31.728  62.099  1.00  0.00     0.036 A 
ENDBRANCH  29  30
ENDBRANCH  27  29
ENDBRANCH  22  27
ENDBRANCH  19  21
ENDBRANCH  18  19
ENDBRANCH   1  18
TORSDOF 10
ENDMDL
MODEL 2
REMARK VINA RESULT:      -9.4      3.668     10.411
REMARK  10 active torsions:
REMARK  status: ('A' for Active; 'I' for Inactive)
REMARK       I    between atoms: N_2  and  C_3 
REMARK    1  A    between atoms: N_2  and  C_22 
REMARK    2  A    between atoms: C_3  and  C_4 
REMARK    3  A    between atoms: C_4  and  O_5 
REMARK    4  A    between atoms: O_5  and  C_6 
REMARK    5  A    between atoms: C_6  and  C_7 
REMARK    6  A    between atoms: C_8  and  N_9 
REMARK    7  A    between atoms: N_9  and  C_10 
REMARK    8  A    between atoms: C_10  and  C_11 
REMARK    9  A    between atoms: C_22  and  C_23 
REMARK       I    between atoms: C_23  and  N_24 
REMARK   10  A    between atoms: N_24  and  C_25 
ROOT
HETATM    1  C   UNL     1       5.854  28.658  57.061  1.00  0.00     0.281 C 
ENDROOT
BRANCH   1   2
HETATM    2  C   UNL     1       7.119  28.923  57.884  1.00  0.00     0.244 C 
HETATM    3  N   UNL     1       7.412  30.235  58.239  1.00  0.00    -0.346 N 
HETATM    4  C   UNL     1       6.463  31.335  58.144  1.00  0.00     0.153 C 
HETATM    5  O   UNL     1       7.845  27.996  58.267  1.00  0.00    -0.271 OA
BRANCH   3   6
HETATM    6  C   UNL     1       8.602  30.472  59.066  1.00  0.00     0.228 C 
BRANCH   6   7
HETATM    7  C   UNL     1       8.366  31.564  60.118  1.00  0.00     0.240 C 
HETATM    8  N   UNL     1       7.640  31.105  61.204  1.00  0.00    -0.326 N 
HETATM    9  H   UNL     1       7.325  30.135  61.143  1.00  0.00     0.169 HD
HETATM   10  O   UNL     1       8.783  32.706  59.942  1.00  0.00    -0.271 OA
BRANCH   8  11
HETATM   11  C   UNL     1       7.229  31.827  62.340  1.00  0.00     0.035 A 
HETATM   12  C   UNL     1       8.110  32.428  63.243  1.00  0.00     0.032 A 
HETATM   13  C   UNL     1       7.619  33.128  64.350  1.00  0.00     0.044 A 
HETATM   14  C   UNL     1       6.247  33.225  64.550  1.00  0.00     0.116 A 
HETATM   15  F   UNL     1       5.779  33.897  65.609  1.00  0.00    -0.206 F 
HETATM   16  C   UNL     1       5.356  32.633  63.665  1.00  0.00     0.044 A 
HETATM   17  C   UNL     1       5.847  31.930  62.563  1.00  0.00     0.032 A 
ENDBRANCH   8  11
ENDBRANCH   6   7
ENDBRANCH   3   6
ENDBRANCH   1   2
BRANCH   1  18
HETATM   18  O   UNL     1       6.194  27.865  55.919  1.00  0.00    -0.308 OA
BRANCH  18  19
HETATM   19  C   UNL     1       5.608  26.645  55.858  1.00  0.00     0.295 C 
HETATM   20  O   UNL     1       5.209  25.983  56.803  1.00  0.00    -0.259 OA
BRANCH  19  21
HETATM   21  C   UNL     1       5.516  26.213  54.441  1.00  0.00     0.060 A 
HETATM   22  C   UNL     1       5.933  24.918  54.056  1.00  0.00     0.025 A 
HETATM   23  C   UNL     1       5.826  24.600  52.690  1.00  0.00     0.024 A 
HETATM   24  C   UNL     1       5.260  25.489  51.767  1.00  0.00     0.002 A 
HETATM   25  C   UNL     1       4.809  26.737  52.179  1.00  0.00     0.001 A 
HETATM   26  C   UNL     1       4.940  27.102  53.514  1.00  0.00     0.019 A 
BRANCH  22  27
HETATM   27  N   UNL     1       6.566  24.062  54.974  1.00  0.00    -0.286 NA
HETATM   28  H   UNL     1       5.976  23.247  55.167  1.00  0.00     0.128 HD
BRANCH  27  29
HETATM   29  C   UNL     1       7.966  23.684  54.778  1.00  0.00     0.157 C 
BRANCH  29  30
HETATM   30  C   UNL     1       8.182  22.308  54.241  1.00  0.00     0.065 A 
HETATM   31  O   UNL     1       8.614  21.377  55.144  1.00  0.00    -0.326 OA
HETATM   32  C   UNL     1       8.743  20.202  54.478  1.00  0.00     0.142 A 
HETATM   33  C   UNL     1       8.408  20.361  53.154  1.00  0.00     0.027 A 
HETATM   34  C   UNL     1       8.046  21.721  52.998  1.00  0.00     0.036 A 
ENDBRANCH  29  30
ENDBRANCH  27  29
ENDBRANCH  22  27
ENDBRANCH  19  21
ENDBRANCH  18  19
ENDBRANCH   1  18
TORSDOF 10
ENDMDL
MODEL 3
REMARK VINA RESULT:      -9.3      2.094      4.201
REMARK  10 active torsions:
REMARK  status: ('A' for Active; 'I' for Inactive)
REMARK       I    between atoms: N_2  and  C_3 
REMARK    1  A    between atoms: N_2  and  C_22 
REMARK    2  A    between atoms: C_3  and  C_4 
REMARK    3  A    between atoms: C_4  and  O_5 
REMARK    4  A    between atoms: O_5  and  C_6 
REMARK    5  A    between atoms: C_6  and  C_7 
REMARK    6  A    between atoms: C_8  and  N_9 
REMARK    7  A    between atoms: N_9  and  C_10 
REMARK    8  A    between atoms: C_10  and  C_11 
REMARK    9  A    between atoms: C_22  and  C_23 
REMARK       I    between atoms: C_23  and  N_24 
REMARK   10  A    between atoms: N_24  and  C_25 
ROOT
HETATM    1  C   UNL     1       8.999  29.823  57.317  1.00  0.00     0.281 C 
ENDROOT
BRANCH   1   2
HETATM    2  C   UNL     1       8.062  28.618  57.444  1.00  0.00     0.244 C 
HETATM    3  N   UNL     1       7.545  28.059  56.280  1.00  0.00    -0.346 N 
HETATM    4  C   UNL     1       8.053  28.344  54.945  1.00  0.00     0.153 C 
HETATM    5  O   UNL     1       7.802  28.116  58.544  1.00  0.00    -0.271 OA
BRANCH   3   6
HETATM    6  C   UNL     1       6.685  26.877  56.410  1.00  0.00     0.228 C 
BRANCH   6   7
HETATM    7  C   UNL     1       7.456  25.572  56.164  1.00  0.00     0.240 C 
HETATM    8  N   UNL     1       6.878  24.793  55.177  1.00  0.00    -0.326 N 
HETATM    9  H   UNL     1       6.008  25.158  54.783  1.00  0.00     0.169 HD
HETATM   10  O   UNL     1       8.457  25.301  56.822  1.00  0.00    -0.271 OA
BRANCH   8  11
HETATM   11  C   UNL     1       7.302  23.538  54.703  1.00  0.00     0.035 A 
HETATM   12  C   UNL     1       7.460  22.410  55.513  1.00  0.00     0.032 A 
HETATM   13  C   UNL     1       7.888  21.198  54.962  1.00  0.00     0.044 A 
HETATM   14  C   UNL     1       8.154  21.116  53.601  1.00  0.00     0.116 A 
HETATM   15  F   UNL     1       8.561  19.954  53.075  1.00  0.00    -0.206 F 
HETATM   16  C   UNL     1       8.004  22.226  52.780  1.00  0.00     0.044 A 
HETATM   17  C   UNL     1       7.582  23.437  53.331  1.00  0.00     0.032 A 
ENDBRANCH   8  11
ENDBRANCH   6   7
ENDBRANCH   3   6
ENDBRANCH   1   2
BRANCH   1  18
HETATM   18  O   UNL     1       9.531  30.142  58.607  1.00  0.00    -0.308 OA
BRANCH  18  19
HETATM   19  C   UNL     1       9.672  31.463  58.871  1.00  0.00     0.295 C 
HETATM   20  O   UNL     1      10.354  32.261  58.247  1.00  0.00    -0.259 OA
BRANCH  19  21
HETATM   21  C   UNL     1       8.856  31.817  60.060  1.00  0.00     0.060 A 
HETATM   22  C   UNL     1       7.489  32.151  59.921  1.00  0.00     0.025 A 
HETATM   23  C   UNL     1       6.798  32.489  61.099  1.00  0.00     0.024 A 
HETATM   24  C   UNL     1       7.407  32.419  62.358  1.00  0.00     0.002 A 
HETATM   25  C   UNL     1       8.738  32.036  62.475  1.00  0.00     0.001 A 
HETATM   26  C   UNL     1       9.464  31.739  61.327  1.00  0.00     0.019 A 
BRANCH  22  27
HETATM   27  N   UNL     1       6.907  32.289  58.648  1.00  0.00    -0.286 NA
HETATM   28  H   UNL     1       7.300  31.599  58.000  1.00  0.00     0.128 HD
BRANCH  27  29
HETATM   29  C   UNL     1       5.453  32.391  58.516  1.00  0.00     0.157 C 
BRANCH  29  30
HETATM   30  C   UNL     1       4.830  31.398  57.592  1.00  0.00     0.065 A 
HETATM   31  O   UNL     1       5.534  31.119  56.454  1.00  0.00    -0.326 OA
HETATM   32  C   UNL     1       4.818  30.202  55.755  1.00  0.00     0.142 A 
HETATM   33  C   UNL     1       3.657  29.889  56.421  1.00  0.00     0.027 A 
HETATM   34  C   UNL     1       3.662  30.662  57.608  1.00  0.00     0.036 A 
ENDBRANCH  29  30
ENDBRANCH  27  29
ENDBRANCH  22  27
ENDBRANCH  19  21
ENDBRANCH  18  19
ENDBRANCH   1  18
TORSDOF 10
ENDMDL
MODEL 4
REMARK VINA RESULT:      -9.2      3.730      9.983
REMARK  10 active torsions:
REMARK  status: ('A' for Active; 'I' for Inactive)
REMARK       I    between atoms: N_2  and  C_3 
REMARK    1  A    between atoms: N_2  and  C_22 
REMARK    2  A    between atoms: C_3  and  C_4 
REMARK    3  A    between atoms: C_4  and  O_5 
REMARK    4  A    between atoms: O_5  and  C_6 
REMARK    5  A    between atoms: C_6  and  C_7 
REMARK    6  A    between atoms: C_8  and  N_9 
REMARK    7  A    between atoms: N_9  and  C_10 
REMARK    8  A    between atoms: C_10  and  C_11 
REMARK    9  A    between atoms: C_22  and  C_23 
REMARK       I    between atoms: C_23  and  N_24 
REMARK   10  A    between atoms: N_24  and  C_25 
ROOT
HETATM    1  C   UNL     1       5.679  27.946  57.152  1.00  0.00     0.281 C 
ENDROOT
BRANCH   1   2
HETATM    2  C   UNL     1       7.037  28.310  57.759  1.00  0.00     0.244 C 
HETATM    3  N   UNL     1       7.377  29.655  57.856  1.00  0.00    -0.346 N 
HETATM    4  C   UNL     1       6.428  30.747  57.698  1.00  0.00     0.153 C 
HETATM    5  O   UNL     1       7.801  27.441  58.198  1.00  0.00    -0.271 OA
BRANCH   3   6
HETATM    6  C   UNL     1       8.662  29.994  58.481  1.00  0.00     0.228 C 
BRANCH   6   7
HETATM    7  C   UNL     1       8.547  31.208  59.413  1.00  0.00     0.240 C 
HETATM    8  N   UNL     1       7.836  30.926  60.567  1.00  0.00    -0.326 N 
HETATM    9  H   UNL     1       7.450  29.981  60.624  1.00  0.00     0.169 HD
HETATM   10  O   UNL     1       9.037  32.289  59.098  1.00  0.00    -0.271 OA
BRANCH   8  11
HETATM   11  C   UNL     1       7.525  31.795  61.629  1.00  0.00     0.035 A 
HETATM   12  C   UNL     1       8.294  31.916  62.789  1.00  0.00     0.032 A 
HETATM   13  C   UNL     1       7.914  32.805  63.799  1.00  0.00     0.044 A 
HETATM   14  C   UNL     1       6.766  33.571  63.646  1.00  0.00     0.116 A 
HETATM   15  F   UNL     1       6.404  34.423  64.614  1.00  0.00    -0.206 F 
HETATM   16  C   UNL     1       5.987  33.464  62.502  1.00  0.00     0.044 A 
HETATM   17  C   UNL     1       6.364  32.572  61.495  1.00  0.00     0.032 A 
ENDBRANCH   8  11
ENDBRANCH   6   7
ENDBRANCH   3   6
ENDBRANCH   1   2
BRANCH   1  18
HETATM   18  O   UNL     1       5.886  27.166  55.970  1.00  0.00    -0.308 OA
BRANCH  18  19
HETATM   19  C   UNL     1       5.736  25.828  56.118  1.00  0.00     0.295 C 
HETATM   20  O   UNL     1       5.273  25.252  57.090  1.00  0.00    -0.259 OA
BRANCH  19  21
HETATM   21  C   UNL     1       6.227  25.140  54.898  1.00  0.00     0.060 A 
HETATM   22  C   UNL     1       7.460  24.448  54.909  1.00  0.00     0.025 A 
HETATM   23  C   UNL     1       7.855  23.840  53.704  1.00  0.00     0.024 A 
HETATM   24  C   UNL     1       7.033  23.846  52.570  1.00  0.00     0.002 A 
HETATM   25  C   UNL     1       5.801  24.487  52.598  1.00  0.00     0.001 A 
HETATM   26  C   UNL     1       5.399  25.138  53.759  1.00  0.00     0.019 A 
BRANCH  22  27
HETATM   27  N   UNL     1       8.310  24.509  56.028  1.00  0.00    -0.286 NA
HETATM   28  H   UNL     1       8.192  25.402  56.517  1.00  0.00     0.128 HD
BRANCH  27  29
HETATM   29  C   UNL     1       8.372  23.384  56.962  1.00  0.00     0.157 C 
BRANCH  29  30
HETATM   30  C   UNL     1       8.373  22.033  56.327  1.00  0.00     0.065 A 
HETATM   31  O   UNL     1       9.523  21.680  55.677  1.00  0.00    -0.326 OA
HETATM   32  C   UNL     1       9.335  20.433  55.179  1.00  0.00     0.142 A 
HETATM   33  C   UNL     1       8.077  19.975  55.491  1.00  0.00     0.027 A 
HETATM   34  C   UNL     1       7.453  21.007  56.231  1.00  0.00     0.036 A 
ENDBRANCH  29  30
ENDBRANCH  27  29
ENDBRANCH  22  27
ENDBRANCH  19  21
ENDBRANCH  18  19
ENDBRANCH   1  18
TORSDOF 10
ENDMDL
MODEL 5
REMARK VINA RESULT:      -9.1      2.271      3.512
REMARK  10 active torsions:
REMARK  status: ('A' for Active; 'I' for Inactive)
REMARK       I    between atoms: N_2  and  C_3 
REMARK    1  A    between atoms: N_2  and  C_22 
REMARK    2  A    between atoms: C_3  and  C_4 
REMARK    3  A    between atoms: C_4  and  O_5 
REMARK    4  A    between atoms: O_5  and  C_6 
REMARK    5  A    between atoms: C_6  and  C_7 
REMARK    6  A    between atoms: C_8  and  N_9 
REMARK    7  A    between atoms: N_9  and  C_10 
REMARK    8  A    between atoms: C_10  and  C_11 
REMARK    9  A    between atoms: C_22  and  C_23 
REMARK       I    between atoms: C_23  and  N_24 
REMARK   10  A    between atoms: N_24  and  C_25 
ROOT
HETATM    1  C   UNL     1       6.172  29.936  57.663  1.00  0.00     0.281 C 
ENDROOT
BRANCH   1   2
HETATM    2  C   UNL     1       7.143  28.767  57.856  1.00  0.00     0.244 C 
HETATM    3  N   UNL     1       6.994  27.646  57.046  1.00  0.00    -0.346 N 
HETATM    4  C   UNL     1       6.181  27.617  55.838  1.00  0.00     0.153 C 
HETATM    5  O   UNL     1       8.067  28.824  58.676  1.00  0.00    -0.271 OA
BRANCH   3   6
HETATM    6  C   UNL     1       7.957  26.550  57.209  1.00  0.00     0.228 C 
BRANCH   6   7
HETATM    7  C   UNL     1       7.436  25.232  56.619  1.00  0.00     0.240 C 
HETATM    8  N   UNL     1       8.349  24.636  55.765  1.00  0.00    -0.326 N 
HETATM    9  H   UNL     1       9.211  25.162  55.608  1.00  0.00     0.169 HD
HETATM   10  O   UNL     1       6.313  24.820  56.897  1.00  0.00    -0.271 OA
BRANCH   8  11
HETATM   11  C   UNL     1       8.206  23.437  55.042  1.00  0.00     0.035 A 
HETATM   12  C   UNL     1       8.257  22.166  55.620  1.00  0.00     0.032 A 
HETATM   13  C   UNL     1       8.107  21.023  54.828  1.00  0.00     0.044 A 
HETATM   14  C   UNL     1       7.903  21.155  53.460  1.00  0.00     0.116 A 
HETATM   15  F   UNL     1       7.757  20.060  52.704  1.00  0.00    -0.206 F 
HETATM   16  C   UNL     1       7.851  22.409  52.867  1.00  0.00     0.044 A 
HETATM   17  C   UNL     1       8.007  23.550  53.657  1.00  0.00     0.032 A 
ENDBRANCH   8  11
ENDBRANCH   6   7
ENDBRANCH   3   6
ENDBRANCH   1   2
BRANCH   1  18
HETATM   18  O   UNL     1       6.882  31.168  57.832  1.00  0.00    -0.308 OA
BRANCH  18  19
HETATM   19  C   UNL     1       6.445  31.960  58.840  1.00  0.00     0.295 C 
HETATM   20  O   UNL     1       5.391  32.576  58.877  1.00  0.00    -0.259 OA
BRANCH  19  21
HETATM   21  C   UNL     1       7.458  31.978  59.926  1.00  0.00     0.060 A 
HETATM   22  C   UNL     1       7.064  31.863  61.279  1.00  0.00     0.025 A 
HETATM   23  C   UNL     1       8.088  31.906  62.241  1.00  0.00     0.024 A 
HETATM   24  C   UNL     1       9.440  31.976  61.879  1.00  0.00     0.002 A 
HETATM   25  C   UNL     1       9.806  32.034  60.540  1.00  0.00     0.001 A 
HETATM   26  C   UNL     1       8.817  32.040  59.563  1.00  0.00     0.019 A 
BRANCH  22  27
HETATM   27  N   UNL     1       5.704  31.867  61.635  1.00  0.00    -0.286 NA
HETATM   28  H   UNL     1       5.183  31.194  61.064  1.00  0.00     0.128 HD
BRANCH  27  29
HETATM   29  C   UNL     1       5.316  31.794  63.045  1.00  0.00     0.157 C 
BRANCH  29  30
HETATM   30  C   UNL     1       4.843  33.080  63.639  1.00  0.00     0.065 A 
HETATM   31  O   UNL     1       4.540  33.044  64.972  1.00  0.00    -0.326 OA
HETATM   32  C   UNL     1       4.141  34.292  65.325  1.00  0.00     0.142 A 
HETATM   33  C   UNL     1       4.175  35.133  64.238  1.00  0.00     0.027 A 
HETATM   34  C   UNL     1       4.627  34.352  63.147  1.00  0.00     0.036 A 
ENDBRANCH  29  30
ENDBRANCH  27  29
ENDBRANCH  22  27
ENDBRANCH  19  21
ENDBRANCH  18  19
ENDBRANCH   1  18
TORSDOF 10
ENDMDL
MODEL 6
REMARK VINA RESULT:      -9.0      3.591     10.034
REMARK  10 active torsions:
REMARK  status: ('A' for Active; 'I' for Inactive)
REMARK       I    between atoms: N_2  and  C_3 
REMARK    1  A    between atoms: N_2  and  C_22 
REMARK    2  A    between atoms: C_3  and  C_4 
REMARK    3  A    between atoms: C_4  and  O_5 
REMARK    4  A    between atoms: O_5  and  C_6 
REMARK    5  A    between atoms: C_6  and  C_7 
REMARK    6  A    between atoms: C_8  and  N_9 
REMARK    7  A    between atoms: N_9  and  C_10 
REMARK    8  A    between atoms: C_10  and  C_11 
REMARK    9  A    between atoms: C_22  and  C_23 
REMARK       I    between atoms: C_23  and  N_24 
REMARK   10  A    between atoms: N_24  and  C_25 
ROOT
HETATM    1  C   UNL     1       8.142  27.133  57.277  1.00  0.00     0.281 C 
ENDROOT
BRANCH   1   2
HETATM    2  C   UNL     1       7.319  28.402  57.522  1.00  0.00     0.244 C 
HETATM    3  N   UNL     1       7.997  29.589  57.777  1.00  0.00    -0.346 N 
HETATM    4  C   UNL     1       9.421  29.780  57.540  1.00  0.00     0.153 C 
HETATM    5  O   UNL     1       6.084  28.393  57.451  1.00  0.00    -0.271 OA
BRANCH   3   6
HETATM    6  C   UNL     1       7.200  30.807  57.965  1.00  0.00     0.228 C 
BRANCH   6   7
HETATM    7  C   UNL     1       7.704  31.650  59.144  1.00  0.00     0.240 C 
HETATM    8  N   UNL     1       6.910  31.515  60.270  1.00  0.00    -0.326 N 
HETATM    9  H   UNL     1       6.086  30.921  60.157  1.00  0.00     0.169 HD
HETATM   10  O   UNL     1       8.698  32.362  59.027  1.00  0.00    -0.271 OA
BRANCH   8  11
HETATM   11  C   UNL     1       7.061  32.144  61.520  1.00  0.00     0.035 A 
HETATM   12  C   UNL     1       7.992  31.749  62.485  1.00  0.00     0.032 A 
HETATM   13  C   UNL     1       8.078  32.429  63.703  1.00  0.00     0.044 A 
HETATM   14  C   UNL     1       7.234  33.504  63.954  1.00  0.00     0.116 A 
HETATM   15  F   UNL     1       7.319  34.155  65.121  1.00  0.00    -0.206 F 
HETATM   16  C   UNL     1       6.302  33.910  63.008  1.00  0.00     0.044 A 
HETATM   17  C   UNL     1       6.212  33.228  61.793  1.00  0.00     0.032 A 
ENDBRANCH   8  11
ENDBRANCH   6   7
ENDBRANCH   3   6
ENDBRANCH   1   2
BRANCH   1  18
HETATM   18  O   UNL     1       7.644  26.468  56.112  1.00  0.00    -0.308 OA
BRANCH  18  19
HETATM   19  C   UNL     1       7.043  25.274  56.332  1.00  0.00     0.295 C 
HETATM   20  O   UNL     1       6.255  25.011  57.227  1.00  0.00    -0.259 OA
BRANCH  19  21
HETATM   21  C   UNL     1       7.489  24.301  55.304  1.00  0.00     0.060 A 
HETATM   22  C   UNL     1       7.004  24.381  53.979  1.00  0.00     0.025 A 
HETATM   23  C   UNL     1       7.467  23.408  53.075  1.00  0.00     0.024 A 
HETATM   24  C   UNL     1       8.425  22.455  53.444  1.00  0.00     0.002 A 
HETATM   25  C   UNL     1       8.928  22.429  54.739  1.00  0.00     0.001 A 
HETATM   26  C   UNL     1       8.458  23.347  55.671  1.00  0.00     0.019 A 
BRANCH  22  27
HETATM   27  N   UNL     1       5.990  25.294  53.637  1.00  0.00    -0.286 NA
HETATM   28  H   UNL     1       6.356  26.251  53.637  1.00  0.00     0.128 HD
BRANCH  27  29
HETATM   29  C   UNL     1       5.137  25.040  52.475  1.00  0.00     0.157 C 
BRANCH  29  30
HETATM   30  C   UNL     1       5.106  26.135  51.461  1.00  0.00     0.065 A 
HETATM   31  O   UNL     1       5.364  27.392  51.932  1.00  0.00    -0.326 OA
HETATM   32  C   UNL     1       5.298  28.238  50.874  1.00  0.00     0.142 A 
HETATM   33  C   UNL     1       4.994  27.548  49.724  1.00  0.00     0.027 A 
HETATM   34  C   UNL     1       4.869  26.189  50.102  1.00  0.00     0.036 A 
ENDBRANCH  29  30
ENDBRANCH  27  29
ENDBRANCH  22  27
ENDBRANCH  19  21
ENDBRANCH  18  19
ENDBRANCH   1  18
TORSDOF 10
ENDMDL
MODEL 7
REMARK VINA RESULT:      -8.9      3.392      9.150
REMARK  10 active torsions:
REMARK  status: ('A' for Active; 'I' for Inactive)
REMARK       I    between atoms: N_2  and  C_3 
REMARK    1  A    between atoms: N_2  and  C_22 
REMARK    2  A    between atoms: C_3  and  C_4 
REMARK    3  A    between atoms: C_4  and  O_5 
REMARK    4  A    between atoms: O_5  and  C_6 
REMARK    5  A    between atoms: C_6  and  C_7 
REMARK    6  A    between atoms: C_8  and  N_9 
REMARK    7  A    between atoms: N_9  and  C_10 
REMARK    8  A    between atoms: C_10  and  C_11 
REMARK    9  A    between atoms: C_22  and  C_23 
REMARK       I    between atoms: C_23  and  N_24 
REMARK   10  A    between atoms: N_24  and  C_25 
ROOT
HETATM    1  C   UNL     1       7.817  26.002  57.374  1.00  0.00     0.281 C 
ENDROOT
BRANCH   1   2
HETATM    2  C   UNL     1       8.013  27.508  57.170  1.00  0.00     0.244 C 
HETATM    3  N   UNL     1       6.899  28.282  56.862  1.00  0.00    -0.346 N 
HETATM    4  C   UNL     1       5.524  27.824  57.006  1.00  0.00     0.153 C 
HETATM    5  O   UNL     1       9.119  28.040  57.320  1.00  0.00    -0.271 OA
BRANCH   3   6
HETATM    6  C   UNL     1       7.091  29.730  56.713  1.00  0.00     0.228 C 
BRANCH   6   7
HETATM    7  C   UNL     1       6.772  30.490  58.007  1.00  0.00     0.240 C 
HETATM    8  N   UNL     1       7.868  30.586  58.849  1.00  0.00    -0.326 N 
HETATM    9  H   UNL     1       8.712  30.110  58.526  1.00  0.00     0.169 HD
HETATM   10  O   UNL     1       5.642  30.921  58.220  1.00  0.00    -0.271 OA
BRANCH   8  11
HETATM   11  C   UNL     1       7.938  31.196  60.115  1.00  0.00     0.035 A 
HETATM   12  C   UNL     1       7.240  32.356  60.462  1.00  0.00     0.032 A 
HETATM   13  C   UNL     1       7.367  32.900  61.744  1.00  0.00     0.044 A 
HETATM   14  C   UNL     1       8.189  32.281  62.677  1.00  0.00     0.116 A 
HETATM   15  F   UNL     1       8.308  32.801  63.905  1.00  0.00    -0.206 F 
HETATM   16  C   UNL     1       8.892  31.128  62.351  1.00  0.00     0.044 A 
HETATM   17  C   UNL     1       8.770  30.589  61.068  1.00  0.00     0.032 A 
ENDBRANCH   8  11
ENDBRANCH   6   7
ENDBRANCH   3   6
ENDBRANCH   1   2
BRANCH   1  18
HETATM   18  O   UNL     1       7.945  25.337  56.114  1.00  0.00    -0.308 OA
BRANCH  18  19
HETATM   19  C   UNL     1       6.920  24.516  55.780  1.00  0.00     0.295 C 
HETATM   20  O   UNL     1       5.739  24.686  56.036  1.00  0.00    -0.259 OA
BRANCH  19  21
HETATM   21  C   UNL     1       7.451  23.346  55.036  1.00  0.00     0.060 A 
HETATM   22  C   UNL     1       8.037  23.510  53.760  1.00  0.00     0.025 A 
HETATM   23  C   UNL     1       8.497  22.345  53.121  1.00  0.00     0.024 A 
HETATM   24  C   UNL     1       8.453  21.092  53.748  1.00  0.00     0.002 A 
HETATM   25  C   UNL     1       7.920  20.964  55.024  1.00  0.00     0.001 A 
HETATM   26  C   UNL     1       7.415  22.088  55.667  1.00  0.00     0.019 A 
BRANCH  22  27
HETATM   27  N   UNL     1       8.010  24.757  53.110  1.00  0.00    -0.286 NA
HETATM   28  H   UNL     1       8.945  25.001  52.769  1.00  0.00     0.128 HD
BRANCH  27  29
HETATM   29  C   UNL     1       6.978  25.040  52.112  1.00  0.00     0.157 C 
BRANCH  29  30
HETATM   30  C   UNL     1       6.343  26.387  52.221  1.00  0.00     0.065 A 
HETATM   31  O   UNL     1       6.630  27.090  53.358  1.00  0.00    -0.326 OA
HETATM   32  C   UNL     1       5.976  28.276  53.271  1.00  0.00     0.142 A 
HETATM   33  C   UNL     1       5.264  28.347  52.097  1.00  0.00     0.027 A 
HETATM   34  C   UNL     1       5.499  27.127  51.418  1.00  0.00     0.036 A 
ENDBRANCH  29  30
ENDBRANCH  27  29
ENDBRANCH  22  27
ENDBRANCH  19  21
ENDBRANCH  18  19
ENDBRANCH   1  18
TORSDOF 10
ENDMDL
MODEL 8
REMARK VINA RESULT:      -8.9      1.892      4.337
REMARK  10 active torsions:
REMARK  status: ('A' for Active; 'I' for Inactive)
REMARK       I    between atoms: N_2  and  C_3 
REMARK    1  A    between atoms: N_2  and  C_22 
REMARK    2  A    between atoms: C_3  and  C_4 
REMARK    3  A    between atoms: C_4  and  O_5 
REMARK    4  A    between atoms: O_5  and  C_6 
REMARK    5  A    between atoms: C_6  and  C_7 
REMARK    6  A    between atoms: C_8  and  N_9 
REMARK    7  A    between atoms: N_9  and  C_10 
REMARK    8  A    between atoms: C_10  and  C_11 
REMARK    9  A    between atoms: C_22  and  C_23 
REMARK       I    between atoms: C_23  and  N_24 
REMARK   10  A    between atoms: N_24  and  C_25 
ROOT
HETATM    1  C   UNL     1       5.043  30.784  57.984  1.00  0.00     0.281 C 
ENDROOT
BRANCH   1   2
HETATM    2  C   UNL     1       5.464  30.443  56.551  1.00  0.00     0.244 C 
HETATM    3  N   UNL     1       5.958  29.169  56.295  1.00  0.00    -0.346 N 
HETATM    4  C   UNL     1       5.832  28.046  57.214  1.00  0.00     0.153 C 
HETATM    5  O   UNL     1       5.329  31.257  55.629  1.00  0.00    -0.271 OA
BRANCH   3   6
HETATM    6  C   UNL     1       6.316  28.839  54.909  1.00  0.00     0.228 C 
BRANCH   6   7
HETATM    7  C   UNL     1       6.067  27.359  54.586  1.00  0.00     0.240 C 
HETATM    8  N   UNL     1       7.236  26.616  54.572  1.00  0.00    -0.326 N 
HETATM    9  H   UNL     1       8.095  27.147  54.729  1.00  0.00     0.169 HD
HETATM   10  O   UNL     1       4.933  26.949  54.354  1.00  0.00    -0.271 OA
BRANCH   8  11
HETATM   11  C   UNL     1       7.388  25.244  54.301  1.00  0.00     0.035 A 
HETATM   12  C   UNL     1       7.253  24.239  55.263  1.00  0.00     0.032 A 
HETATM   13  C   UNL     1       7.421  22.896  54.911  1.00  0.00     0.044 A 
HETATM   14  C   UNL     1       7.722  22.561  53.597  1.00  0.00     0.116 A 
HETATM   15  F   UNL     1       7.881  21.275  53.261  1.00  0.00    -0.206 F 
HETATM   16  C   UNL     1       7.862  23.545  52.627  1.00  0.00     0.044 A 
HETATM   17  C   UNL     1       7.700  24.886  52.980  1.00  0.00     0.032 A 
ENDBRANCH   8  11
ENDBRANCH   6   7
ENDBRANCH   3   6
ENDBRANCH   1   2
BRANCH   1  18
HETATM   18  O   UNL     1       6.137  31.415  58.658  1.00  0.00    -0.308 OA
BRANCH  18  19
HETATM   19  C   UNL     1       5.804  32.431  59.490  1.00  0.00     0.295 C 
HETATM   20  O   UNL     1       4.966  33.295  59.283  1.00  0.00    -0.259 OA
BRANCH  19  21
HETATM   21  C   UNL     1       6.623  32.344  60.725  1.00  0.00     0.060 A 
HETATM   22  C   UNL     1       8.031  32.455  60.663  1.00  0.00     0.025 A 
HETATM   23  C   UNL     1       8.728  32.345  61.880  1.00  0.00     0.024 A 
HETATM   24  C   UNL     1       8.060  32.214  63.104  1.00  0.00     0.002 A 
HETATM   25  C   UNL     1       6.672  32.161  63.145  1.00  0.00     0.001 A 
HETATM   26  C   UNL     1       5.953  32.221  61.957  1.00  0.00     0.019 A 
BRANCH  22  27
HETATM   27  N   UNL     1       8.695  32.512  59.425  1.00  0.00    -0.286 NA
HETATM   28  H   UNL     1       8.734  33.478  59.086  1.00  0.00     0.128 HD
BRANCH  27  29
HETATM   29  C   UNL     1       9.975  31.824  59.248  1.00  0.00     0.157 C 
BRANCH  29  30
HETATM   30  C   UNL     1       9.957  30.695  58.271  1.00  0.00     0.065 A 
HETATM   31  O   UNL     1      11.068  30.570  57.485  1.00  0.00    -0.326 OA
HETATM   32  C   UNL     1      10.870  29.498  56.678  1.00  0.00     0.142 A 
HETATM   33  C   UNL     1       9.642  28.931  56.925  1.00  0.00     0.027 A 
HETATM   34  C   UNL     1       9.050  29.704  57.953  1.00  0.00     0.036 A 
ENDBRANCH  29  30
ENDBRANCH  27  29
ENDBRANCH  22  27
ENDBRANCH  19  21
ENDBRANCH  18  19
ENDBRANCH   1  18
TORSDOF 10
ENDMDL
MODEL 9
REMARK VINA RESULT:      -8.7      2.246      3.404
REMARK  10 active torsions:
REMARK  status: ('A' for Active; 'I' for Inactive)
REMARK       I    between atoms: N_2  and  C_3 
REMARK    1  A    between atoms: N_2  and  C_22 
REMARK    2  A    between atoms: C_3  and  C_4 
REMARK    3  A    between atoms: C_4  and  O_5 
REMARK    4  A    between atoms: O_5  and  C_6 
REMARK    5  A    between atoms: C_6  and  C_7 
REMARK    6  A    between atoms: C_8  and  N_9 
REMARK    7  A    between atoms: N_9  and  C_10 
REMARK    8  A    between atoms: C_10  and  C_11 
REMARK    9  A    between atoms: C_22  and  C_23 
REMARK       I    between atoms: C_23  and  N_24 
REMARK   10  A    between atoms: N_24  and  C_25 
ROOT
HETATM    1  C   UNL     1       6.966  28.892  57.769  1.00  0.00     0.281 C 
ENDROOT
BRANCH   1   2
HETATM    2  C   UNL     1       7.339  28.128  56.495  1.00  0.00     0.244 C 
HETATM    3  N   UNL     1       6.490  28.224  55.397  1.00  0.00    -0.346 N 
HETATM    4  C   UNL     1       5.438  29.222  55.266  1.00  0.00     0.153 C 
HETATM    5  O   UNL     1       8.388  27.476  56.417  1.00  0.00    -0.271 OA
BRANCH   3   6
HETATM    6  C   UNL     1       6.880  27.524  54.166  1.00  0.00     0.228 C 
BRANCH   6   7
HETATM    7  C   UNL     1       6.601  26.017  54.247  1.00  0.00     0.240 C 
HETATM    8  N   UNL     1       7.750  25.257  54.107  1.00  0.00    -0.326 N 
HETATM    9  H   UNL     1       8.606  25.785  53.926  1.00  0.00     0.169 HD
HETATM   10  O   UNL     1       5.456  25.598  54.398  1.00  0.00    -0.271 OA
BRANCH   8  11
HETATM   11  C   UNL     1       7.868  23.854  54.114  1.00  0.00     0.035 A 
HETATM   12  C   UNL     1       7.774  23.057  52.971  1.00  0.00     0.032 A 
HETATM   13  C   UNL     1       7.903  21.668  53.066  1.00  0.00     0.044 A 
HETATM   14  C   UNL     1       8.127  21.080  54.304  1.00  0.00     0.116 A 
HETATM   15  F   UNL     1       8.252  19.749  54.393  1.00  0.00    -0.206 F 
HETATM   16  C   UNL     1       8.222  21.855  55.452  1.00  0.00     0.044 A 
HETATM   17  C   UNL     1       8.088  23.242  55.358  1.00  0.00     0.032 A 
ENDBRANCH   8  11
ENDBRANCH   6   7
ENDBRANCH   3   6
ENDBRANCH   1   2
BRANCH   1  18
HETATM   18  O   UNL     1       8.105  28.947  58.634  1.00  0.00    -0.308 OA
BRANCH  18  19
HETATM   19  C   UNL     1       8.789  30.117  58.625  1.00  0.00     0.295 C 
HETATM   20  O   UNL     1       9.545  30.510  57.750  1.00  0.00    -0.259 OA
BRANCH  19  21
HETATM   21  C   UNL     1       8.483  30.875  59.864  1.00  0.00     0.060 A 
HETATM   22  C   UNL     1       7.522  31.911  59.854  1.00  0.00     0.025 A 
HETATM   23  C   UNL     1       7.307  32.587  61.068  1.00  0.00     0.024 A 
HETATM   24  C   UNL     1       7.952  32.202  62.251  1.00  0.00     0.002 A 
HETATM   25  C   UNL     1       8.854  31.146  62.248  1.00  0.00     0.001 A 
HETATM   26  C   UNL     1       9.124  30.484  61.055  1.00  0.00     0.019 A 
BRANCH  22  27
HETATM   27  N   UNL     1       6.935  32.337  58.649  1.00  0.00    -0.286 NA
HETATM   28  H   UNL     1       7.395  31.891  57.850  1.00  0.00     0.128 HD
BRANCH  27  29
HETATM   29  C   UNL     1       5.478  32.337  58.504  1.00  0.00     0.157 C 
BRANCH  29  30
HETATM   30  C   UNL     1       4.857  33.686  58.348  1.00  0.00     0.065 A 
HETATM   31  O   UNL     1       5.130  34.336  57.177  1.00  0.00    -0.326 OA
HETATM   32  C   UNL     1       4.479  35.526  57.219  1.00  0.00     0.142 A 
HETATM   33  C   UNL     1       3.794  35.658  58.403  1.00  0.00     0.027 A 
HETATM   34  C   UNL     1       4.037  34.471  59.135  1.00  0.00     0.036 A 
ENDBRANCH  29  30
ENDBRANCH  27  29
ENDBRANCH  22  27
ENDBRANCH  19  21
ENDBRANCH  18  19
ENDBRANCH   1  18
TORSDOF 10
ENDMDL
MODEL 10
REMARK VINA RESULT:      -8.3      1.921      4.330
REMARK  10 active torsions:
REMARK  status: ('A' for Active; 'I' for Inactive)
REMARK       I    between atoms: N_2  and  C_3 
REMARK    1  A    between atoms: N_2  and  C_22 
REMARK    2  A    between atoms: C_3  and  C_4 
REMARK    3  A    between atoms: C_4  and  O_5 
REMARK    4  A    between atoms: O_5  and  C_6 
REMARK    5  A    between atoms: C_6  and  C_7 
REMARK    6  A    between atoms: C_8  and  N_9 
REMARK    7  A    between atoms: N_9  and  C_10 
REMARK    8  A    between atoms: C_10  and  C_11 
REMARK    9  A    between atoms: C_22  and  C_23 
REMARK       I    between atoms: C_23  and  N_24 
REMARK   10  A    between atoms: N_24  and  C_25 
ROOT
HETATM    1  C   UNL     1       5.217  29.898  57.553  1.00  0.00     0.281 C 
ENDROOT
BRANCH   1   2
HETATM    2  C   UNL     1       5.229  29.326  56.132  1.00  0.00     0.244 C 
HETATM    3  N   UNL     1       5.479  27.967  55.971  1.00  0.00    -0.346 N 
HETATM    4  C   UNL     1       5.438  26.998  57.057  1.00  0.00     0.153 C 
HETATM    5  O   UNL     1       4.979  30.034  55.150  1.00  0.00    -0.271 OA
BRANCH   3   6
HETATM    6  C   UNL     1       5.444  27.421  54.609  1.00  0.00     0.228 C 
BRANCH   6   7
HETATM    7  C   UNL     1       6.567  26.404  54.366  1.00  0.00     0.240 C 
HETATM    8  N   UNL     1       6.113  25.096  54.392  1.00  0.00    -0.326 N 
HETATM    9  H   UNL     1       5.121  24.981  54.610  1.00  0.00     0.169 HD
HETATM   10  O   UNL     1       7.725  26.776  54.196  1.00  0.00    -0.271 OA
BRANCH   8  11
HETATM   11  C   UNL     1       6.859  23.915  54.223  1.00  0.00     0.035 A 
HETATM   12  C   UNL     1       7.234  23.399  52.980  1.00  0.00     0.032 A 
HETATM   13  C   UNL     1       7.976  22.217  52.900  1.00  0.00     0.044 A 
HETATM   14  C   UNL     1       8.343  21.554  54.064  1.00  0.00     0.116 A 
HETATM   15  F   UNL     1       9.055  20.422  53.986  1.00  0.00    -0.206 F 
HETATM   16  C   UNL     1       7.978  22.049  55.309  1.00  0.00     0.044 A 
HETATM   17  C   UNL     1       7.232  23.227  55.388  1.00  0.00     0.032 A 
ENDBRANCH   8  11
ENDBRANCH   6   7
ENDBRANCH   3   6
ENDBRANCH   1   2
BRANCH   1  18
HETATM   18  O   UNL     1       4.453  31.108  57.566  1.00  0.00    -0.308 OA
BRANCH  18  19
HETATM   19  C   UNL     1       5.139  32.229  57.895  1.00  0.00     0.295 C 
HETATM   20  O   UNL     1       5.643  33.027  57.120  1.00  0.00    -0.259 OA
BRANCH  19  21
HETATM   21  C   UNL     1       5.194  32.356  59.373  1.00  0.00     0.060 A 
HETATM   22  C   UNL     1       6.434  32.321  60.052  1.00  0.00     0.025 A 
HETATM   23  C   UNL     1       6.390  32.432  61.453  1.00  0.00     0.024 A 
HETATM   24  C   UNL     1       5.188  32.648  62.140  1.00  0.00     0.002 A 
HETATM   25  C   UNL     1       3.988  32.732  61.446  1.00  0.00     0.001 A 
HETATM   26  C   UNL     1       3.988  32.582  60.064  1.00  0.00     0.019 A 
BRANCH  22  27
HETATM   27  N   UNL     1       7.625  32.032  59.363  1.00  0.00    -0.286 NA
HETATM   28  H   UNL     1       8.242  32.849  59.359  1.00  0.00     0.128 HD
BRANCH  27  29
HETATM   29  C   UNL     1       8.359  30.799  59.655  1.00  0.00     0.157 C 
BRANCH  29  30
HETATM   30  C   UNL     1       9.065  30.191  58.490  1.00  0.00     0.065 A 
HETATM   31  O   UNL     1       8.606  28.968  58.087  1.00  0.00    -0.326 OA
HETATM   32  C   UNL     1       9.360  28.587  57.025  1.00  0.00     0.142 A 
HETATM   33  C   UNL     1      10.306  29.543  56.739  1.00  0.00     0.027 A 
HETATM   34  C   UNL     1      10.118  30.580  57.685  1.00  0.00     0.036 A 
ENDBRANCH  29  30
ENDBRANCH  27  29
ENDBRANCH  22  27
ENDBRANCH  19  21
ENDBRANCH  18  19
ENDBRANCH   1  18
TORSDOF 10
ENDMDL
