MODEL 1
REMARK VINA RESULT:      -8.8      0.000      0.000
REMARK  9 active torsions:
REMARK  status: ('A' for Active; 'I' for Inactive)
REMARK    1  A    between atoms: C_6  and  C_7 
REMARK    2  A    between atoms: C_7  and  C_8 
REMARK    3  A    between atoms: C_11  and  N_12 
REMARK       I    between atoms: N_12  and  C_13 
REMARK       I    between atoms: C_13  and  N_14 
REMARK    4  A    between atoms: N_14  and  C_15 
REMARK    5  A    between atoms: C_15  and  C_16 
REMARK    6  A    between atoms: C_16  and  C_17 
REMARK    7  A    between atoms: C_16  and  C_19 
REMARK    8  A    between atoms: C_17  and  O_18 
REMARK    9  A    between atoms: C_19  and  C_20 
ROOT
HETATM    1  N   UNL     1       8.224  30.304  58.071  1.00  0.00    -0.309 N 
HETATM    2  C   UNL     1       8.158  31.230  59.064  1.00  0.00     0.320 C 
HETATM    3  N   UNL     1       7.434  30.927  60.174  1.00  0.00    -0.342 N 
HETATM    4  O   UNL     1       8.780  32.284  58.944  1.00  0.00    -0.247 OA
HETATM    5  H   UNL     1       8.932  30.566  57.394  1.00  0.00     0.170 HD
HETATM    6  H   UNL     1       7.377  29.947  60.411  1.00  0.00     0.164 HD
ENDROOT
BRANCH   1   7
HETATM    7  C   UNL     1       7.452  29.171  57.754  1.00  0.00     0.036 A 
HETATM    8  C   UNL     1       6.099  29.196  57.414  1.00  0.00     0.030 A 
HETATM    9  C   UNL     1       5.423  28.014  57.088  1.00  0.00     0.010 A 
HETATM   10  C   UNL     1       6.097  26.786  57.069  1.00  0.00    -0.051 A 
HETATM   11  C   UNL     1       7.460  26.763  57.381  1.00  0.00     0.010 A 
HETATM   12  C   UNL     1       8.127  27.944  57.720  1.00  0.00     0.030 A 
BRANCH  10  13
HETATM   13  C   UNL     1       5.380  25.522  56.649  1.00  0.00     0.118 C 
BRANCH  13  14
HETATM   14  C   UNL     1       5.771  25.004  55.305  1.00  0.00     0.126 A 
HETATM   15  N   UNL     1       5.145  25.336  54.135  1.00  0.00    -0.263 N 
HETATM   16  N   UNL     1       5.700  24.712  53.084  1.00  0.00    -0.158 NA
HETATM   17  H   UNL     1       4.356  25.956  53.987  1.00  0.00     0.190 HD
HETATM   18  C   UNL     1       6.673  24.009  53.674  1.00  0.00     0.144 A 
HETATM   19  C   UNL     1       7.597  23.141  52.919  1.00  0.00     0.095 C 
HETATM   20  N   UNL     1       6.749  24.163  55.034  1.00  0.00    -0.217 NA
ENDBRANCH  13  14
ENDBRANCH  10  13
ENDBRANCH   1   7
BRANCH   3  21
HETATM   21  C   UNL     1       7.228  31.887  61.243  1.00  0.00     0.131 C 
BRANCH  21  22
HETATM   22  C   UNL     1       7.880  31.496  62.581  1.00  0.00     0.033 C 
BRANCH  22  23
HETATM   23  C   UNL     1       9.214  30.763  62.376  1.00  0.00     0.170 C 
BRANCH  23  24
HETATM   24  O   UNL     1       9.010  29.354  62.434  1.00  0.00    -0.400 OA
HETATM   25  H   UNL     1       9.637  28.942  61.816  1.00  0.00     0.209 HD
ENDBRANCH  23  24
ENDBRANCH  22  23
BRANCH  22  26
HETATM   26  C   UNL     1       8.110  32.740  63.467  1.00  0.00     0.073 C 
BRANCH  26  27
HETATM   27  C   UNL     1       6.925  33.126  64.278  1.00  0.00     0.053 A 
HETATM   28  O   UNL     1       7.167  33.833  65.418  1.00  0.00    -0.327 OA
HETATM   29  C   UNL     1       5.963  34.080  65.992  1.00  0.00     0.142 A 
HETATM   30  C   UNL     1       4.949  33.537  65.239  1.00  0.00     0.027 A 
HETATM   31  C   UNL     1       5.570  32.921  64.126  1.00  0.00     0.034 A 
ENDBRANCH  26  27
ENDBRANCH  22  26
ENDBRANCH  21  22
ENDBRANCH   3  21
TORSDOF 9
ENDMDL
MODEL 2
REMARK VINA RESULT:      -8.6      3.021      5.103
REMARK  9 active torsions:
REMARK  status: ('A' for Active; 'I' for Inactive)
REMARK    1  A    between atoms: C_6  and  C_7 
REMARK    2  A    between atoms: C_7  and  C_8 
REMARK    3  A    between atoms: C_11  and  N_12 
REMARK       I    between atoms: N_12  and  C_13 
REMARK       I    between atoms: C_13  and  N_14 
REMARK    4  A    between atoms: N_14  and  C_15 
REMARK    5  A    between atoms: C_15  and  C_16 
REMARK    6  A    between atoms: C_16  and  C_17 
REMARK    7  A    between atoms: C_16  and  C_19 
REMARK    8  A    between atoms: C_17  and  O_18 
REMARK    9  A    between atoms: C_19  and  C_20 
ROOT
HETATM    1  N   UNL     1       4.722  27.498  55.050  1.00  0.00    -0.309 N 
HETATM    2  C   UNL     1       4.930  28.508  55.936  1.00  0.00     0.320 C 
HETATM    3  N   UNL     1       6.212  28.876  56.199  1.00  0.00    -0.342 N 
HETATM    4  O   UNL     1       3.960  29.077  56.436  1.00  0.00    -0.247 OA
HETATM    5  H   UNL     1       3.740  27.446  54.801  1.00  0.00     0.170 HD
HETATM    6  H   UNL     1       6.875  28.733  55.450  1.00  0.00     0.164 HD
ENDROOT
BRANCH   1   7
HETATM    7  C   UNL     1       5.548  26.484  54.531  1.00  0.00     0.036 A 
HETATM    8  C   UNL     1       5.732  25.228  55.111  1.00  0.00     0.030 A 
HETATM    9  C   UNL     1       6.557  24.275  54.502  1.00  0.00     0.010 A 
HETATM   10  C   UNL     1       7.191  24.551  53.284  1.00  0.00    -0.051 A 
HETATM   11  C   UNL     1       6.985  25.798  52.686  1.00  0.00     0.010 A 
HETATM   12  C   UNL     1       6.172  26.751  53.306  1.00  0.00     0.030 A 
BRANCH  10  13
HETATM   13  C   UNL     1       8.025  23.493  52.595  1.00  0.00     0.118 C 
BRANCH  13  14
HETATM   14  C   UNL     1       8.261  22.262  53.406  1.00  0.00     0.126 A 
HETATM   15  N   UNL     1       7.873  21.004  53.035  1.00  0.00    -0.263 N 
HETATM   16  N   UNL     1       8.205  20.092  53.962  1.00  0.00    -0.158 NA
HETATM   17  H   UNL     1       7.387  20.708  52.194  1.00  0.00     0.190 HD
HETATM   18  C   UNL     1       8.804  20.853  54.883  1.00  0.00     0.144 A 
HETATM   19  C   UNL     1       9.369  20.298  56.128  1.00  0.00     0.095 C 
HETATM   20  N   UNL     1       8.859  22.188  54.578  1.00  0.00    -0.217 NA
ENDBRANCH  13  14
ENDBRANCH  10  13
ENDBRANCH   1   7
BRANCH   3  21
HETATM   21  C   UNL     1       6.535  29.877  57.198  1.00  0.00     0.131 C 
BRANCH  21  22
HETATM   22  C   UNL     1       7.718  29.504  58.109  1.00  0.00     0.033 C 
BRANCH  22  23
HETATM   23  C   UNL     1       8.493  28.291  57.574  1.00  0.00     0.170 C 
BRANCH  23  24
HETATM   24  O   UNL     1       7.914  27.086  58.067  1.00  0.00    -0.400 OA
HETATM   25  H   UNL     1       7.017  27.020  57.696  1.00  0.00     0.209 HD
ENDBRANCH  23  24
ENDBRANCH  22  23
BRANCH  22  26
HETATM   26  C   UNL     1       8.686  30.697  58.273  1.00  0.00     0.073 C 
BRANCH  26  27
HETATM   27  C   UNL     1       8.956  31.058  59.690  1.00  0.00     0.053 A 
HETATM   28  O   UNL     1       8.985  30.033  60.587  1.00  0.00    -0.327 OA
HETATM   29  C   UNL     1       9.248  30.579  61.802  1.00  0.00     0.142 A 
HETATM   30  C   UNL     1       9.384  31.944  61.697  1.00  0.00     0.027 A 
HETATM   31  C   UNL     1       9.198  32.256  60.329  1.00  0.00     0.034 A 
ENDBRANCH  26  27
ENDBRANCH  22  26
ENDBRANCH  21  22
ENDBRANCH   3  21
TORSDOF 9
ENDMDL
MODEL 3
REMARK VINA RESULT:      -8.5      3.329     10.008
REMARK  9 active torsions:
REMARK  status: ('A' for Active; 'I' for Inactive)
REMARK    1  A    between atoms: C_6  and  C_7 
REMARK    2  A    between atoms: C_7  and  C_8 
REMARK    3  A    between atoms: C_11  and  N_12 
REMARK       I    between atoms: N_12  and  C_13 
REMARK       I    between atoms: C_13  and  N_14 
REMARK    4  A    between atoms: N_14  and  C_15 
REMARK    5  A    between atoms: C_15  and  C_16 
REMARK    6  A    between atoms: C_16  and  C_17 
REMARK    7  A    between atoms: C_16  and  C_19 
REMARK    8  A    between atoms: C_17  and  O_18 
REMARK    9  A    between atoms: C_19  and  C_20 
ROOT
HETATM    1  N   UNL     1       9.237  30.725  58.968  1.00  0.00    -0.309 N 
HETATM    2  C   UNL     1       8.802  29.732  58.147  1.00  0.00     0.320 C 
HETATM    3  N   UNL     1       7.575  29.198  58.382  1.00  0.00    -0.342 N 
HETATM    4  O   UNL     1       9.510  29.381  57.204  1.00  0.00    -0.247 OA
HETATM    5  H   UNL     1      10.067  31.161  58.583  1.00  0.00     0.170 HD
HETATM    6  H   UNL     1       6.899  29.815  58.809  1.00  0.00     0.164 HD
ENDROOT
BRANCH   1   7
HETATM    7  C   UNL     1       8.844  31.160  60.247  1.00  0.00     0.036 A 
HETATM    8  C   UNL     1       9.178  30.526  61.444  1.00  0.00     0.030 A 
HETATM    9  C   UNL     1       8.759  31.054  62.672  1.00  0.00     0.010 A 
HETATM   10  C   UNL     1       8.023  32.244  62.726  1.00  0.00    -0.051 A 
HETATM   11  C   UNL     1       7.713  32.898  61.530  1.00  0.00     0.010 A 
HETATM   12  C   UNL     1       8.120  32.358  60.306  1.00  0.00     0.030 A 
BRANCH  10  13
HETATM   13  C   UNL     1       7.634  32.847  64.058  1.00  0.00     0.118 C 
BRANCH  13  14
HETATM   14  C   UNL     1       6.273  33.459  64.089  1.00  0.00     0.126 A 
HETATM   15  N   UNL     1       5.106  32.748  64.137  1.00  0.00    -0.263 N 
HETATM   16  N   UNL     1       4.035  33.558  64.143  1.00  0.00    -0.158 NA
HETATM   17  H   UNL     1       4.971  31.743  64.160  1.00  0.00     0.190 HD
HETATM   18  C   UNL     1       4.611  34.764  64.103  1.00  0.00     0.144 A 
HETATM   19  C   UNL     1       3.834  36.017  64.101  1.00  0.00     0.095 C 
HETATM   20  N   UNL     1       5.982  34.744  64.070  1.00  0.00    -0.217 NA
ENDBRANCH  13  14
ENDBRANCH  10  13
ENDBRANCH   1   7
BRANCH   3  21
HETATM   21  C   UNL     1       7.067  28.073  57.619  1.00  0.00     0.131 C 
BRANCH  21  22
HETATM   22  C   UNL     1       5.705  28.323  56.950  1.00  0.00     0.033 C 
BRANCH  22  23
HETATM   23  C   UNL     1       5.827  29.247  55.729  1.00  0.00     0.170 C 
BRANCH  23  24
HETATM   24  O   UNL     1       7.170  29.251  55.253  1.00  0.00    -0.400 OA
HETATM   25  H   UNL     1       7.711  29.728  55.905  1.00  0.00     0.209 HD
ENDBRANCH  23  24
ENDBRANCH  22  23
BRANCH  22  26
HETATM   26  C   UNL     1       5.048  26.993  56.520  1.00  0.00     0.073 C 
BRANCH  26  27
HETATM   27  C   UNL     1       6.010  25.997  55.978  1.00  0.00     0.053 A 
HETATM   28  O   UNL     1       6.558  26.276  54.762  1.00  0.00    -0.327 OA
HETATM   29  C   UNL     1       7.398  25.252  54.464  1.00  0.00     0.142 A 
HETATM   30  C   UNL     1       7.392  24.315  55.471  1.00  0.00     0.027 A 
HETATM   31  C   UNL     1       6.495  24.798  56.454  1.00  0.00     0.034 A 
ENDBRANCH  26  27
ENDBRANCH  22  26
ENDBRANCH  21  22
ENDBRANCH   3  21
TORSDOF 9
ENDMDL
MODEL 4
REMARK VINA RESULT:      -8.5      4.158     10.589
REMARK  9 active torsions:
REMARK  status: ('A' for Active; 'I' for Inactive)
REMARK    1  A    between atoms: C_6  and  C_7 
REMARK    2  A    between atoms: C_7  and  C_8 
REMARK    3  A    between atoms: C_11  and  N_12 
REMARK       I    between atoms: N_12  and  C_13 
REMARK       I    between atoms: C_13  and  N_14 
REMARK    4  A    between atoms: N_14  and  C_15 
REMARK    5  A    between atoms: C_15  and  C_16 
REMARK    6  A    between atoms: C_16  and  C_17 
REMARK    7  A    between atoms: C_16  and  C_19 
REMARK    8  A    between atoms: C_17  and  O_18 
REMARK    9  A    between atoms: C_19  and  C_20 
ROOT
HETATM    1  N   UNL     1       6.263  29.097  55.278  1.00  0.00    -0.309 N 
HETATM    2  C   UNL     1       6.327  28.190  54.267  1.00  0.00     0.320 C 
HETATM    3  N   UNL     1       7.311  27.254  54.306  1.00  0.00    -0.342 N 
HETATM    4  O   UNL     1       5.476  28.222  53.378  1.00  0.00    -0.247 OA
HETATM    5  H   UNL     1       5.391  29.612  55.233  1.00  0.00     0.170 HD
HETATM    6  H   UNL     1       7.631  26.988  55.227  1.00  0.00     0.164 HD
ENDROOT
BRANCH   1   7
HETATM    7  C   UNL     1       7.184  29.520  56.253  1.00  0.00     0.036 A 
HETATM    8  C   UNL     1       8.561  29.301  56.200  1.00  0.00     0.030 A 
HETATM    9  C   UNL     1       9.401  29.787  57.211  1.00  0.00     0.010 A 
HETATM   10  C   UNL     1       8.880  30.526  58.280  1.00  0.00    -0.051 A 
HETATM   11  C   UNL     1       7.504  30.772  58.320  1.00  0.00     0.010 A 
HETATM   12  C   UNL     1       6.668  30.273  57.317  1.00  0.00     0.030 A 
BRANCH  10  13
HETATM   13  C   UNL     1       9.798  31.108  59.331  1.00  0.00     0.118 C 
BRANCH  13  14
HETATM   14  C   UNL     1       9.193  31.221  60.691  1.00  0.00     0.126 A 
HETATM   15  N   UNL     1       8.938  30.161  61.516  1.00  0.00    -0.263 N 
HETATM   16  N   UNL     1       8.381  30.557  62.671  1.00  0.00    -0.158 NA
HETATM   17  H   UNL     1       9.107  29.173  61.356  1.00  0.00     0.190 HD
HETATM   18  C   UNL     1       8.323  31.882  62.499  1.00  0.00     0.144 A 
HETATM   19  C   UNL     1       7.781  32.794  63.524  1.00  0.00     0.095 C 
HETATM   20  N   UNL     1       8.812  32.327  61.299  1.00  0.00    -0.217 NA
ENDBRANCH  13  14
ENDBRANCH  10  13
ENDBRANCH   1   7
BRANCH   3  21
HETATM   21  C   UNL     1       7.516  26.307  53.226  1.00  0.00     0.131 C 
BRANCH  21  22
HETATM   22  C   UNL     1       6.989  24.891  53.516  1.00  0.00     0.033 C 
BRANCH  22  23
HETATM   23  C   UNL     1       5.518  24.730  53.103  1.00  0.00     0.170 C 
BRANCH  23  24
HETATM   24  O   UNL     1       4.670  25.342  54.071  1.00  0.00    -0.400 OA
HETATM   25  H   UNL     1       4.226  26.092  53.639  1.00  0.00     0.209 HD
ENDBRANCH  23  24
ENDBRANCH  22  23
BRANCH  22  26
HETATM   26  C   UNL     1       7.842  23.825  52.794  1.00  0.00     0.073 C 
BRANCH  26  27
HETATM   27  C   UNL     1       7.902  22.521  53.507  1.00  0.00     0.053 A 
HETATM   28  O   UNL     1       7.716  22.553  54.857  1.00  0.00    -0.327 OA
HETATM   29  C   UNL     1       7.806  21.273  55.298  1.00  0.00     0.142 A 
HETATM   30  C   UNL     1       8.052  20.418  54.249  1.00  0.00     0.027 A 
HETATM   31  C   UNL     1       8.112  21.225  53.088  1.00  0.00     0.034 A 
ENDBRANCH  26  27
ENDBRANCH  22  26
ENDBRANCH  21  22
ENDBRANCH   3  21
TORSDOF 9
ENDMDL
MODEL 5
REMARK VINA RESULT:      -8.4      5.917      8.782
REMARK  9 active torsions:
REMARK  status: ('A' for Active; 'I' for Inactive)
REMARK    1  A    between atoms: C_6  and  C_7 
REMARK    2  A    between atoms: C_7  and  C_8 
REMARK    3  A    between atoms: C_11  and  N_12 
REMARK       I    between atoms: N_12  and  C_13 
REMARK       I    between atoms: C_13  and  N_14 
REMARK    4  A    between atoms: N_14  and  C_15 
REMARK    5  A    between atoms: C_15  and  C_16 
REMARK    6  A    between atoms: C_16  and  C_17 
REMARK    7  A    between atoms: C_16  and  C_19 
REMARK    8  A    between atoms: C_17  and  O_18 
REMARK    9  A    between atoms: C_19  and  C_20 
ROOT
HETATM    1  N   UNL     1       4.672  28.052  56.936  1.00  0.00    -0.309 N 
HETATM    2  C   UNL     1       4.145  28.820  55.945  1.00  0.00     0.320 C 
HETATM    3  N   UNL     1       4.287  28.397  54.662  1.00  0.00    -0.342 N 
HETATM    4  O   UNL     1       3.528  29.842  56.243  1.00  0.00    -0.247 OA
HETATM    5  H   UNL     1       4.343  28.370  57.840  1.00  0.00     0.170 HD
HETATM    6  H   UNL     1       4.346  27.397  54.530  1.00  0.00     0.164 HD
ENDROOT
BRANCH   1   7
HETATM    7  C   UNL     1       5.636  27.027  56.952  1.00  0.00     0.036 A 
HETATM    8  C   UNL     1       5.354  25.664  56.855  1.00  0.00     0.030 A 
HETATM    9  C   UNL     1       6.389  24.720  56.853  1.00  0.00     0.010 A 
HETATM   10  C   UNL     1       7.728  25.125  56.918  1.00  0.00    -0.051 A 
HETATM   11  C   UNL     1       8.014  26.493  56.985  1.00  0.00     0.010 A 
HETATM   12  C   UNL     1       6.977  27.430  57.002  1.00  0.00     0.030 A 
BRANCH  10  13
HETATM   13  C   UNL     1       8.843  24.107  56.845  1.00  0.00     0.118 C 
BRANCH  13  14
HETATM   14  C   UNL     1       8.510  22.874  56.073  1.00  0.00     0.126 A 
HETATM   15  N   UNL     1       8.194  21.668  56.637  1.00  0.00    -0.263 N 
HETATM   16  N   UNL     1       7.952  20.736  55.702  1.00  0.00    -0.158 NA
HETATM   17  H   UNL     1       8.135  21.419  57.618  1.00  0.00     0.190 HD
HETATM   18  C   UNL     1       8.129  21.433  54.575  1.00  0.00     0.144 A 
HETATM   19  C   UNL     1       7.964  20.836  53.236  1.00  0.00     0.095 C 
HETATM   20  N   UNL     1       8.471  22.747  54.762  1.00  0.00    -0.217 NA
ENDBRANCH  13  14
ENDBRANCH  10  13
ENDBRANCH   1   7
BRANCH   3  21
HETATM   21  C   UNL     1       3.841  29.195  53.535  1.00  0.00     0.131 C 
BRANCH  21  22
HETATM   22  C   UNL     1       3.509  28.381  52.273  1.00  0.00     0.033 C 
BRANCH  22  23
HETATM   23  C   UNL     1       2.630  29.173  51.294  1.00  0.00     0.170 C 
BRANCH  23  24
HETATM   24  O   UNL     1       1.319  28.616  51.256  1.00  0.00    -0.400 OA
HETATM   25  H   UNL     1       1.410  27.668  51.060  1.00  0.00     0.209 HD
ENDBRANCH  23  24
ENDBRANCH  22  23
BRANCH  22  26
HETATM   26  C   UNL     1       4.799  27.931  51.551  1.00  0.00     0.073 C 
BRANCH  26  27
HETATM   27  C   UNL     1       5.436  26.731  52.156  1.00  0.00     0.053 A 
HETATM   28  O   UNL     1       6.538  26.947  52.928  1.00  0.00    -0.327 OA
HETATM   29  C   UNL     1       6.950  25.734  53.377  1.00  0.00     0.142 A 
HETATM   30  C   UNL     1       6.129  24.740  52.899  1.00  0.00     0.027 A 
HETATM   31  C   UNL     1       5.146  25.384  52.110  1.00  0.00     0.034 A 
ENDBRANCH  26  27
ENDBRANCH  22  26
ENDBRANCH  21  22
ENDBRANCH   3  21
TORSDOF 9
ENDMDL
MODEL 6
REMARK VINA RESULT:      -8.2      8.325     11.105
REMARK  9 active torsions:
REMARK  status: ('A' for Active; 'I' for Inactive)
REMARK    1  A    between atoms: C_6  and  C_7 
REMARK    2  A    between atoms: C_7  and  C_8 
REMARK    3  A    between atoms: C_11  and  N_12 
REMARK       I    between atoms: N_12  and  C_13 
REMARK       I    between atoms: C_13  and  N_14 
REMARK    4  A    between atoms: N_14  and  C_15 
REMARK    5  A    between atoms: C_15  and  C_16 
REMARK    6  A    between atoms: C_16  and  C_17 
REMARK    7  A    between atoms: C_16  and  C_19 
REMARK    8  A    between atoms: C_17  and  O_18 
REMARK    9  A    between atoms: C_19  and  C_20 
ROOT
HETATM    1  N   UNL     1       4.306  27.502  53.450  1.00  0.00    -0.309 N 
HETATM    2  C   UNL     1       3.680  28.378  52.619  1.00  0.00     0.320 C 
HETATM    3  N   UNL     1       3.731  28.141  51.282  1.00  0.00    -0.342 N 
HETATM    4  O   UNL     1       3.062  29.326  53.102  1.00  0.00    -0.247 OA
HETATM    5  H   UNL     1       4.041  27.681  54.412  1.00  0.00     0.170 HD
HETATM    6  H   UNL     1       3.808  27.171  51.008  1.00  0.00     0.164 HD
ENDROOT
BRANCH   1   7
HETATM    7  C   UNL     1       5.295  26.522  53.250  1.00  0.00     0.036 A 
HETATM    8  C   UNL     1       6.669  26.739  53.364  1.00  0.00     0.030 A 
HETATM    9  C   UNL     1       7.575  25.689  53.171  1.00  0.00     0.010 A 
HETATM   10  C   UNL     1       7.122  24.394  52.891  1.00  0.00    -0.051 A 
HETATM   11  C   UNL     1       5.744  24.168  52.806  1.00  0.00     0.010 A 
HETATM   12  C   UNL     1       4.844  25.223  52.984  1.00  0.00     0.030 A 
BRANCH  10  13
HETATM   13  C   UNL     1       8.101  23.249  52.753  1.00  0.00     0.118 C 
BRANCH  13  14
HETATM   14  C   UNL     1       8.094  22.285  53.892  1.00  0.00     0.126 A 
HETATM   15  N   UNL     1       7.874  20.941  53.767  1.00  0.00    -0.263 N 
HETATM   16  N   UNL     1       7.914  20.322  54.957  1.00  0.00    -0.158 NA
HETATM   17  H   UNL     1       7.690  20.399  52.929  1.00  0.00     0.190 HD
HETATM   18  C   UNL     1       8.169  21.343  55.782  1.00  0.00     0.144 A 
HETATM   19  C   UNL     1       8.317  21.172  57.239  1.00  0.00     0.095 C 
HETATM   20  N   UNL     1       8.287  22.562  55.166  1.00  0.00    -0.217 NA
ENDBRANCH  13  14
ENDBRANCH  10  13
ENDBRANCH   1   7
BRANCH   3  21
HETATM   21  C   UNL     1       3.176  29.068  50.315  1.00  0.00     0.131 C 
BRANCH  21  22
HETATM   22  C   UNL     1       4.220  29.729  49.397  1.00  0.00     0.033 C 
BRANCH  22  23
HETATM   23  C   UNL     1       5.655  29.362  49.805  1.00  0.00     0.170 C 
BRANCH  23  24
HETATM   24  O   UNL     1       6.065  30.159  50.913  1.00  0.00    -0.400 OA
HETATM   25  H   UNL     1       5.282  30.315  51.468  1.00  0.00     0.209 HD
ENDBRANCH  23  24
ENDBRANCH  22  23
BRANCH  22  26
HETATM   26  C   UNL     1       3.990  29.330  47.923  1.00  0.00     0.073 C 
BRANCH  26  27
HETATM   27  C   UNL     1       3.641  27.897  47.737  1.00  0.00     0.053 A 
HETATM   28  O   UNL     1       2.351  27.621  47.395  1.00  0.00    -0.327 OA
HETATM   29  C   UNL     1       2.254  26.273  47.274  1.00  0.00     0.142 A 
HETATM   30  C   UNL     1       3.464  25.677  47.540  1.00  0.00     0.027 A 
HETATM   31  C   UNL     1       4.365  26.728  47.837  1.00  0.00     0.034 A 
ENDBRANCH  26  27
ENDBRANCH  22  26
ENDBRANCH  21  22
ENDBRANCH   3  21
TORSDOF 9
ENDMDL
MODEL 7
REMARK VINA RESULT:      -8.1      4.968      7.067
REMARK  9 active torsions:
REMARK  status: ('A' for Active; 'I' for Inactive)
REMARK    1  A    between atoms: C_6  and  C_7 
REMARK    2  A    between atoms: C_7  and  C_8 
REMARK    3  A    between atoms: C_11  and  N_12 
REMARK       I    between atoms: N_12  and  C_13 
REMARK       I    between atoms: C_13  and  N_14 
REMARK    4  A    between atoms: N_14  and  C_15 
REMARK    5  A    between atoms: C_15  and  C_16 
REMARK    6  A    between atoms: C_16  and  C_17 
REMARK    7  A    between atoms: C_16  and  C_19 
REMARK    8  A    between atoms: C_17  and  O_18 
REMARK    9  A    between atoms: C_19  and  C_20 
ROOT
HETATM    1  N   UNL     1       4.439  27.212  52.403  1.00  0.00    -0.309 N 
HETATM    2  C   UNL     1       4.130  28.292  53.169  1.00  0.00     0.320 C 
HETATM    3  N   UNL     1       4.991  28.643  54.160  1.00  0.00    -0.342 N 
HETATM    4  O   UNL     1       3.110  28.934  52.918  1.00  0.00    -0.247 OA
HETATM    5  H   UNL     1       3.828  27.168  51.596  1.00  0.00     0.170 HD
HETATM    6  H   UNL     1       5.962  28.413  54.004  1.00  0.00     0.164 HD
ENDROOT
BRANCH   1   7
HETATM    7  C   UNL     1       5.322  26.130  52.574  1.00  0.00     0.036 A 
HETATM    8  C   UNL     1       5.037  24.972  53.297  1.00  0.00     0.030 A 
HETATM    9  C   UNL     1       5.976  23.937  53.386  1.00  0.00     0.010 A 
HETATM   10  C   UNL     1       7.208  24.029  52.726  1.00  0.00    -0.051 A 
HETATM   11  C   UNL     1       7.484  25.176  51.975  1.00  0.00     0.010 A 
HETATM   12  C   UNL     1       6.550  26.214  51.903  1.00  0.00     0.030 A 
BRANCH  10  13
HETATM   13  C   UNL     1       8.190  22.880  52.767  1.00  0.00     0.118 C 
BRANCH  13  14
HETATM   14  C   UNL     1       8.139  22.063  54.015  1.00  0.00     0.126 A 
HETATM   15  N   UNL     1       7.764  20.749  54.066  1.00  0.00    -0.263 N 
HETATM   16  N   UNL     1       7.801  20.273  55.321  1.00  0.00    -0.158 NA
HETATM   17  H   UNL     1       7.474  20.138  53.309  1.00  0.00     0.190 HD
HETATM   18  C   UNL     1       8.214  21.347  56.002  1.00  0.00     0.144 A 
HETATM   19  C   UNL     1       8.425  21.331  57.462  1.00  0.00     0.095 C 
HETATM   20  N   UNL     1       8.433  22.463  55.236  1.00  0.00    -0.217 NA
ENDBRANCH  13  14
ENDBRANCH  10  13
ENDBRANCH   1   7
BRANCH   3  21
HETATM   21  C   UNL     1       4.700  29.721  55.087  1.00  0.00     0.131 C 
BRANCH  21  22
HETATM   22  C   UNL     1       5.850  30.056  56.052  1.00  0.00     0.033 C 
BRANCH  22  23
HETATM   23  C   UNL     1       5.334  30.467  57.439  1.00  0.00     0.170 C 
BRANCH  23  24
HETATM   24  O   UNL     1       4.480  29.453  57.961  1.00  0.00    -0.400 OA
HETATM   25  H   UNL     1       3.743  29.341  57.337  1.00  0.00     0.209 HD
ENDBRANCH  23  24
ENDBRANCH  22  23
BRANCH  22  26
HETATM   26  C   UNL     1       6.814  28.858  56.200  1.00  0.00     0.073 C 
BRANCH  26  27
HETATM   27  C   UNL     1       8.213  29.250  56.516  1.00  0.00     0.053 A 
HETATM   28  O   UNL     1       9.047  29.448  55.456  1.00  0.00    -0.327 OA
HETATM   29  C   UNL     1      10.256  29.798  55.964  1.00  0.00     0.142 A 
HETATM   30  C   UNL     1      10.211  29.823  57.339  1.00  0.00     0.027 A 
HETATM   31  C   UNL     1       8.888  29.471  57.697  1.00  0.00     0.034 A 
ENDBRANCH  26  27
ENDBRANCH  22  26
ENDBRANCH  21  22
ENDBRANCH   3  21
TORSDOF 9
ENDMDL
MODEL 8
REMARK VINA RESULT:      -7.9      6.680     10.007
REMARK  9 active torsions:
REMARK  status: ('A' for Active; 'I' for Inactive)
REMARK    1  A    between atoms: C_6  and  C_7 
REMARK    2  A    between atoms: C_7  and  C_8 
REMARK    3  A    between atoms: C_11  and  N_12 
REMARK       I    between atoms: N_12  and  C_13 
REMARK       I    between atoms: C_13  and  N_14 
REMARK    4  A    between atoms: N_14  and  C_15 
REMARK    5  A    between atoms: C_15  and  C_16 
REMARK    6  A    between atoms: C_16  and  C_17 
REMARK    7  A    between atoms: C_16  and  C_19 
REMARK    8  A    between atoms: C_17  and  O_18 
REMARK    9  A    between atoms: C_19  and  C_20 
ROOT
HETATM    1  N   UNL     1       5.867  28.832  53.471  1.00  0.00    -0.309 N 
HETATM    2  C   UNL     1       6.413  28.319  54.606  1.00  0.00     0.320 C 
HETATM    3  N   UNL     1       7.113  27.158  54.512  1.00  0.00    -0.342 N 
HETATM    4  O   UNL     1       6.289  28.936  55.663  1.00  0.00    -0.247 OA
HETATM    5  H   UNL     1       5.538  29.777  53.635  1.00  0.00     0.170 HD
HETATM    6  H   UNL     1       7.568  26.987  53.626  1.00  0.00     0.164 HD
ENDROOT
BRANCH   1   7
HETATM    7  C   UNL     1       5.576  28.285  52.208  1.00  0.00     0.036 A 
HETATM    8  C   UNL     1       5.321  26.935  51.961  1.00  0.00     0.030 A 
HETATM    9  C   UNL     1       5.014  26.492  50.669  1.00  0.00     0.010 A 
HETATM   10  C   UNL     1       4.928  27.396  49.603  1.00  0.00    -0.051 A 
HETATM   11  C   UNL     1       5.154  28.754  49.853  1.00  0.00     0.010 A 
HETATM   12  C   UNL     1       5.475  29.189  51.142  1.00  0.00     0.030 A 
BRANCH  10  13
HETATM   13  C   UNL     1       4.528  26.923  48.224  1.00  0.00     0.118 C 
BRANCH  13  14
HETATM   14  C   UNL     1       3.096  27.162  47.875  1.00  0.00     0.126 A 
HETATM   15  N   UNL     1       2.044  26.469  48.407  1.00  0.00    -0.263 N 
HETATM   16  N   UNL     1       0.872  26.888  47.903  1.00  0.00    -0.158 NA
HETATM   17  H   UNL     1       2.054  25.718  49.090  1.00  0.00     0.190 HD
HETATM   18  C   UNL     1       1.270  27.851  47.066  1.00  0.00     0.144 A 
HETATM   19  C   UNL     1       0.325  28.643  46.257  1.00  0.00     0.095 C 
HETATM   20  N   UNL     1       2.626  28.049  47.022  1.00  0.00    -0.217 NA
ENDBRANCH  13  14
ENDBRANCH  10  13
ENDBRANCH   1   7
BRANCH   3  21
HETATM   21  C   UNL     1       7.650  26.487  55.681  1.00  0.00     0.131 C 
BRANCH  21  22
HETATM   22  C   UNL     1       7.071  25.083  55.928  1.00  0.00     0.033 C 
BRANCH  22  23
HETATM   23  C   UNL     1       5.873  25.117  56.887  1.00  0.00     0.170 C 
BRANCH  23  24
HETATM   24  O   UNL     1       4.758  25.738  56.252  1.00  0.00    -0.400 OA
HETATM   25  H   UNL     1       5.093  26.215  55.474  1.00  0.00     0.209 HD
ENDBRANCH  23  24
ENDBRANCH  22  23
BRANCH  22  26
HETATM   26  C   UNL     1       6.645  24.420  54.599  1.00  0.00     0.073 C 
BRANCH  26  27
HETATM   27  C   UNL     1       7.267  23.090  54.366  1.00  0.00     0.053 A 
HETATM   28  O   UNL     1       7.457  22.722  53.068  1.00  0.00    -0.327 OA
HETATM   29  C   UNL     1       8.033  21.493  53.086  1.00  0.00     0.142 A 
HETATM   30  C   UNL     1       8.210  21.063  54.380  1.00  0.00     0.027 A 
HETATM   31  C   UNL     1       7.717  22.098  55.211  1.00  0.00     0.034 A 
ENDBRANCH  26  27
ENDBRANCH  22  26
ENDBRANCH  21  22
ENDBRANCH   3  21
TORSDOF 9
ENDMDL
MODEL 9
REMARK VINA RESULT:      -7.9      7.152     10.489
REMARK  9 active torsions:
REMARK  status: ('A' for Active; 'I' for Inactive)
REMARK    1  A    between atoms: C_6  and  C_7 
REMARK    2  A    between atoms: C_7  and  C_8 
REMARK    3  A    between atoms: C_11  and  N_12 
REMARK       I    between atoms: N_12  and  C_13 
REMARK       I    between atoms: C_13  and  N_14 
REMARK    4  A    between atoms: N_14  and  C_15 
REMARK    5  A    between atoms: C_15  and  C_16 
REMARK    6  A    between atoms: C_16  and  C_17 
REMARK    7  A    between atoms: C_16  and  C_19 
REMARK    8  A    between atoms: C_17  and  O_18 
REMARK    9  A    between atoms: C_19  and  C_20 
ROOT
HETATM    1  N   UNL     1       5.631  29.224  53.643  1.00  0.00    -0.309 N 
HETATM    2  C   UNL     1       6.354  28.181  54.132  1.00  0.00     0.320 C 
HETATM    3  N   UNL     1       6.580  27.119  53.316  1.00  0.00    -0.342 N 
HETATM    4  O   UNL     1       6.808  28.251  55.273  1.00  0.00    -0.247 OA
HETATM    5  H   UNL     1       5.691  30.018  54.269  1.00  0.00     0.170 HD
HETATM    6  H   UNL     1       6.616  27.321  52.327  1.00  0.00     0.164 HD
ENDROOT
BRANCH   1   7
HETATM    7  C   UNL     1       4.759  29.363  52.547  1.00  0.00     0.036 A 
HETATM    8  C   UNL     1       5.127  29.839  51.288  1.00  0.00     0.030 A 
HETATM    9  C   UNL     1       4.189  29.915  50.251  1.00  0.00     0.010 A 
HETATM   10  C   UNL     1       2.870  29.486  50.447  1.00  0.00    -0.051 A 
HETATM   11  C   UNL     1       2.506  28.980  51.699  1.00  0.00     0.010 A 
HETATM   12  C   UNL     1       3.443  28.921  52.735  1.00  0.00     0.030 A 
BRANCH  10  13
HETATM   13  C   UNL     1       1.878  29.504  49.305  1.00  0.00     0.118 C 
BRANCH  13  14
HETATM   14  C   UNL     1       1.911  28.292  48.435  1.00  0.00     0.126 A 
HETATM   15  N   UNL     1       1.095  28.092  47.355  1.00  0.00    -0.263 N 
HETATM   16  N   UNL     1       1.337  26.910  46.767  1.00  0.00    -0.158 NA
HETATM   17  H   UNL     1       0.372  28.697  46.981  1.00  0.00     0.190 HD
HETATM   18  C   UNL     1       2.322  26.427  47.531  1.00  0.00     0.144 A 
HETATM   19  C   UNL     1       2.955  25.119  47.280  1.00  0.00     0.095 C 
HETATM   20  N   UNL     1       2.702  27.246  48.562  1.00  0.00    -0.217 NA
ENDBRANCH  13  14
ENDBRANCH  10  13
ENDBRANCH   1   7
BRANCH   3  21
HETATM   21  C   UNL     1       7.258  25.923  53.780  1.00  0.00     0.131 C 
BRANCH  21  22
HETATM   22  C   UNL     1       6.569  24.607  53.378  1.00  0.00     0.033 C 
BRANCH  22  23
HETATM   23  C   UNL     1       5.365  24.849  52.456  1.00  0.00     0.170 C 
BRANCH  23  24
HETATM   24  O   UNL     1       4.213  25.168  53.232  1.00  0.00    -0.400 OA
HETATM   25  H   UNL     1       4.226  26.128  53.392  1.00  0.00     0.209 HD
ENDBRANCH  23  24
ENDBRANCH  22  23
BRANCH  22  26
HETATM   26  C   UNL     1       7.564  23.653  52.681  1.00  0.00     0.073 C 
BRANCH  26  27
HETATM   27  C   UNL     1       7.794  22.383  53.419  1.00  0.00     0.053 A 
HETATM   28  O   UNL     1       7.652  22.428  54.774  1.00  0.00    -0.327 OA
HETATM   29  C   UNL     1       7.899  21.178  55.239  1.00  0.00     0.142 A 
HETATM   30  C   UNL     1       8.203  20.329  54.200  1.00  0.00     0.027 A 
HETATM   31  C   UNL     1       8.132  21.107  53.020  1.00  0.00     0.034 A 
ENDBRANCH  26  27
ENDBRANCH  22  26
ENDBRANCH  21  22
ENDBRANCH   3  21
TORSDOF 9
ENDMDL
MODEL 10
REMARK VINA RESULT:      -7.8      4.097     10.270
REMARK  9 active torsions:
REMARK  status: ('A' for Active; 'I' for Inactive)
REMARK    1  A    between atoms: C_6  and  C_7 
REMARK    2  A    between atoms: C_7  and  C_8 
REMARK    3  A    between atoms: C_11  and  N_12 
REMARK       I    between atoms: N_12  and  C_13 
REMARK       I    between atoms: C_13  and  N_14 
REMARK    4  A    between atoms: N_14  and  C_15 
REMARK    5  A    between atoms: C_15  and  C_16 
REMARK    6  A    between atoms: C_16  and  C_17 
REMARK    7  A    between atoms: C_16  and  C_19 
REMARK    8  A    between atoms: C_17  and  O_18 
REMARK    9  A    between atoms: C_19  and  C_20 
ROOT
HETATM    1  N   UNL     1       4.622  27.126  54.989  1.00  0.00    -0.309 N 
HETATM    2  C   UNL     1       5.450  26.163  54.504  1.00  0.00     0.320 C 
HETATM    3  N   UNL     1       6.702  26.072  55.025  1.00  0.00    -0.342 N 
HETATM    4  O   UNL     1       5.030  25.388  53.645  1.00  0.00    -0.247 OA
HETATM    5  H   UNL     1       3.675  26.973  54.661  1.00  0.00     0.170 HD
HETATM    6  H   UNL     1       6.804  26.371  55.984  1.00  0.00     0.164 HD
ENDROOT
BRANCH   1   7
HETATM    7  C   UNL     1       4.841  28.306  55.724  1.00  0.00     0.036 A 
HETATM    8  C   UNL     1       5.410  28.360  56.997  1.00  0.00     0.030 A 
HETATM    9  C   UNL     1       5.612  29.589  57.637  1.00  0.00     0.010 A 
HETATM   10  C   UNL     1       5.275  30.791  57.001  1.00  0.00    -0.051 A 
HETATM   11  C   UNL     1       4.733  30.741  55.713  1.00  0.00     0.010 A 
HETATM   12  C   UNL     1       4.519  29.510  55.085  1.00  0.00     0.030 A 
BRANCH  10  13
HETATM   13  C   UNL     1       5.559  32.119  57.667  1.00  0.00     0.118 C 
BRANCH  13  14
HETATM   14  C   UNL     1       6.431  32.033  58.876  1.00  0.00     0.126 A 
HETATM   15  N   UNL     1       5.968  31.889  60.155  1.00  0.00    -0.263 N 
HETATM   16  N   UNL     1       6.974  31.853  61.042  1.00  0.00    -0.158 NA
HETATM   17  H   UNL     1       5.010  31.817  60.483  1.00  0.00     0.190 HD
HETATM   18  C   UNL     1       8.040  31.975  60.244  1.00  0.00     0.144 A 
HETATM   19  C   UNL     1       9.423  31.983  60.758  1.00  0.00     0.095 C 
HETATM   20  N   UNL     1       7.747  32.087  58.909  1.00  0.00    -0.217 NA
ENDBRANCH  13  14
ENDBRANCH  10  13
ENDBRANCH   1   7
BRANCH   3  21
HETATM   21  C   UNL     1       7.685  25.140  54.505  1.00  0.00     0.131 C 
BRANCH  21  22
HETATM   22  C   UNL     1       8.219  24.137  55.543  1.00  0.00     0.033 C 
BRANCH  22  23
HETATM   23  C   UNL     1       8.301  24.755  56.947  1.00  0.00     0.170 C 
BRANCH  23  24
HETATM   24  O   UNL     1       7.011  24.761  57.553  1.00  0.00    -0.400 OA
HETATM   25  H   UNL     1       6.369  24.483  56.878  1.00  0.00     0.209 HD
ENDBRANCH  23  24
ENDBRANCH  22  23
BRANCH  22  26
HETATM   26  C   UNL     1       7.337  22.870  55.593  1.00  0.00     0.073 C 
BRANCH  26  27
HETATM   27  C   UNL     1       7.869  21.738  54.790  1.00  0.00     0.053 A 
HETATM   28  O   UNL     1       7.666  21.794  53.443  1.00  0.00    -0.327 OA
HETATM   29  C   UNL     1       8.229  20.679  52.912  1.00  0.00     0.142 A 
HETATM   30  C   UNL     1       8.786  19.903  53.901  1.00  0.00     0.027 A 
HETATM   31  C   UNL     1       8.556  20.589  55.118  1.00  0.00     0.034 A 
ENDBRANCH  26  27
ENDBRANCH  22  26
ENDBRANCH  21  22
ENDBRANCH   3  21
TORSDOF 9
ENDMDL
