MODEL 1
REMARK VINA RESULT:     -11.5      0.000      0.000
REMARK  4 active torsions:
REMARK  status: ('A' for Active; 'I' for Inactive)
REMARK    1  A    between atoms: C_5  and  C_6 
REMARK    2  A    between atoms: C_6  and  C_7 
REMARK       I    between atoms: C_7  and  N_8 
REMARK    3  A    between atoms: N_8  and  C_9 
REMARK    4  A    between atoms: C_16  and  C_17 
REMARK       I    between atoms: C_17  and  N_18 
ROOT
HETATM    1  C   UNL     1       8.243  28.351  57.266  1.00  0.00     0.035 A 
HETATM    2  C   UNL     1       7.736  29.238  58.225  1.00  0.00     0.046 A 
HETATM    3  C   UNL     1       8.487  30.378  58.589  1.00  0.00     0.030 A 
HETATM    4  C   UNL     1       9.727  30.580  57.996  1.00  0.00     0.063 A 
HETATM    5  N   UNL     1      10.207  31.737  58.543  1.00  0.00    -0.277 N 
HETATM    6  H   UNL     1      11.092  32.188  58.346  1.00  0.00     0.189 HD
HETATM    7  N   UNL     1       9.381  32.319  59.429  1.00  0.00    -0.168 NA
HETATM    8  C   UNL     1       8.312  31.491  59.466  1.00  0.00     0.156 A 
HETATM    9  C   UNL     1      10.267  29.714  57.043  1.00  0.00     0.034 A 
HETATM   10  C   UNL     1       9.494  28.603  56.686  1.00  0.00     0.032 A 
ENDROOT
BRANCH   1  11
HETATM   11  N   UNL     1       7.555  27.204  56.816  1.00  0.00    -0.327 N 
HETATM   12  C   UNL     1       7.799  25.885  57.157  1.00  0.00     0.226 C 
HETATM   13  O   UNL     1       8.728  25.470  57.844  1.00  0.00    -0.273 OA
HETATM   14  H   UNL     1       6.779  27.370  56.188  1.00  0.00     0.169 HD
BRANCH  12  15
HETATM   15  C   UNL     1       6.820  24.906  56.522  1.00  0.00     0.142 C 
BRANCH  15  16
HETATM   16  C   UNL     1       7.216  24.440  55.134  1.00  0.00    -0.038 A 
HETATM   17  C   UNL     1       7.538  23.080  54.853  1.00  0.00    -0.019 A 
HETATM   18  C   UNL     1       7.884  22.723  53.524  1.00  0.00    -0.025 A 
HETATM   19  C   UNL     1       7.537  22.052  55.824  1.00  0.00     0.013 A 
HETATM   20  C   UNL     1       8.204  21.390  53.213  1.00  0.00     0.012 A 
HETATM   21  C   UNL     1       7.911  23.702  52.520  1.00  0.00     0.012 A 
HETATM   22  C   UNL     1       8.190  20.400  54.194  1.00  0.00     0.001 A 
HETATM   23  C   UNL     1       7.856  20.731  55.499  1.00  0.00     0.001 A 
HETATM   24  C   UNL     1       7.606  25.029  52.807  1.00  0.00     0.001 A 
HETATM   25  C   UNL     1       7.263  25.396  54.103  1.00  0.00     0.008 A 
ENDBRANCH  15  16
ENDBRANCH  12  15
ENDBRANCH   1  11
BRANCH   8  26
HETATM   26  C   UNL     1       7.152  31.786  60.321  1.00  0.00     0.270 C 
HETATM   27  N   UNL     1       7.169  31.138  61.526  1.00  0.00    -0.365 N 
HETATM   28  H   UNL     1       7.956  30.537  61.742  1.00  0.00     0.159 HD
HETATM   29  H   UNL     1       6.427  31.297  62.187  1.00  0.00     0.159 HD
HETATM   30  O   UNL     1       6.236  32.544  60.022  1.00  0.00    -0.266 OA
ENDBRANCH   8  26
TORSDOF 4
ENDMDL
MODEL 2
REMARK VINA RESULT:     -10.7      0.990      2.468
REMARK  4 active torsions:
REMARK  status: ('A' for Active; 'I' for Inactive)
REMARK    1  A    between atoms: C_5  and  C_6 
REMARK    2  A    between atoms: C_6  and  C_7 
REMARK       I    between atoms: C_7  and  N_8 
REMARK    3  A    between atoms: N_8  and  C_9 
REMARK    4  A    between atoms: C_16  and  C_17 
REMARK       I    between atoms: C_17  and  N_18 
ROOT
HETATM    1  C   UNL     1       8.173  28.319  57.344  1.00  0.00     0.035 A 
HETATM    2  C   UNL     1       7.692  29.243  58.281  1.00  0.00     0.046 A 
HETATM    3  C   UNL     1       8.470  30.377  58.607  1.00  0.00     0.030 A 
HETATM    4  C   UNL     1       9.709  30.537  57.999  1.00  0.00     0.063 A 
HETATM    5  N   UNL     1      10.216  31.698  58.509  1.00  0.00    -0.277 N 
HETATM    6  H   UNL     1      11.109  32.125  58.292  1.00  0.00     0.189 HD
HETATM    7  N   UNL     1       9.410  32.322  59.384  1.00  0.00    -0.168 NA
HETATM    8  C   UNL     1       8.325  31.518  59.453  1.00  0.00     0.156 A 
HETATM    9  C   UNL     1      10.223  29.633  57.067  1.00  0.00     0.034 A 
HETATM   10  C   UNL     1       9.424  28.528  56.747  1.00  0.00     0.032 A 
ENDROOT
BRANCH   1  11
HETATM   11  N   UNL     1       7.458  27.174  56.933  1.00  0.00    -0.327 N 
HETATM   12  C   UNL     1       7.561  25.888  57.435  1.00  0.00     0.226 C 
HETATM   13  O   UNL     1       8.370  25.495  58.270  1.00  0.00    -0.273 OA
HETATM   14  H   UNL     1       6.775  27.317  56.200  1.00  0.00     0.169 HD
BRANCH  12  15
HETATM   15  C   UNL     1       6.591  24.907  56.787  1.00  0.00     0.142 C 
BRANCH  15  16
HETATM   16  C   UNL     1       7.001  24.451  55.399  1.00  0.00    -0.038 A 
HETATM   17  C   UNL     1       6.423  25.001  54.218  1.00  0.00    -0.019 A 
HETATM   18  C   UNL     1       6.873  24.530  52.958  1.00  0.00    -0.025 A 
HETATM   19  C   UNL     1       5.417  25.994  54.221  1.00  0.00     0.013 A 
HETATM   20  C   UNL     1       6.325  25.053  51.774  1.00  0.00     0.012 A 
HETATM   21  C   UNL     1       7.863  23.538  52.893  1.00  0.00     0.012 A 
HETATM   22  C   UNL     1       5.337  26.035  51.812  1.00  0.00     0.001 A 
HETATM   23  C   UNL     1       4.883  26.505  53.035  1.00  0.00     0.001 A 
HETATM   24  C   UNL     1       8.413  23.000  54.053  1.00  0.00     0.001 A 
HETATM   25  C   UNL     1       7.986  23.450  55.296  1.00  0.00     0.008 A 
ENDBRANCH  15  16
ENDBRANCH  12  15
ENDBRANCH   1  11
BRANCH   8  26
HETATM   26  C   UNL     1       7.178  31.861  60.308  1.00  0.00     0.270 C 
HETATM   27  N   UNL     1       7.143  31.179  61.494  1.00  0.00    -0.365 N 
HETATM   28  H   UNL     1       7.888  30.523  61.698  1.00  0.00     0.159 HD
HETATM   29  H   UNL     1       6.407  31.366  62.154  1.00  0.00     0.159 HD
HETATM   30  O   UNL     1       6.315  32.684  60.025  1.00  0.00    -0.266 OA
ENDBRANCH   8  26
TORSDOF 4
ENDMDL
MODEL 3
REMARK VINA RESULT:     -10.5      1.686      2.108
REMARK  4 active torsions:
REMARK  status: ('A' for Active; 'I' for Inactive)
REMARK    1  A    between atoms: C_5  and  C_6 
REMARK    2  A    between atoms: C_6  and  C_7 
REMARK       I    between atoms: C_7  and  N_8 
REMARK    3  A    between atoms: N_8  and  C_9 
REMARK    4  A    between atoms: C_16  and  C_17 
REMARK       I    between atoms: C_17  and  N_18 
ROOT
HETATM    1  C   UNL     1       7.273  27.944  57.410  1.00  0.00     0.035 A 
HETATM    2  C   UNL     1       7.977  28.913  58.137  1.00  0.00     0.046 A 
HETATM    3  C   UNL     1       7.403  30.187  58.342  1.00  0.00     0.030 A 
HETATM    4  C   UNL     1       6.153  30.454  57.796  1.00  0.00     0.063 A 
HETATM    5  N   UNL     1       5.871  31.743  58.150  1.00  0.00    -0.277 N 
HETATM    6  H   UNL     1       5.039  32.274  57.920  1.00  0.00     0.189 HD
HETATM    7  N   UNL     1       6.818  32.337  58.895  1.00  0.00    -0.168 NA
HETATM    8  C   UNL     1       7.771  31.386  59.024  1.00  0.00     0.156 A 
HETATM    9  C   UNL     1       5.426  29.516  57.061  1.00  0.00     0.034 A 
HETATM   10  C   UNL     1       6.009  28.255  56.889  1.00  0.00     0.032 A 
ENDROOT
BRANCH   1  11
HETATM   11  N   UNL     1       7.750  26.636  57.178  1.00  0.00    -0.327 N 
HETATM   12  C   UNL     1       7.021  25.459  57.178  1.00  0.00     0.226 C 
HETATM   13  O   UNL     1       5.837  25.335  57.478  1.00  0.00    -0.273 OA
HETATM   14  H   UNL     1       8.735  26.555  56.965  1.00  0.00     0.169 HD
BRANCH  12  15
HETATM   15  C   UNL     1       7.855  24.232  56.832  1.00  0.00     0.142 C 
BRANCH  15  16
HETATM   16  C   UNL     1       7.857  23.875  55.357  1.00  0.00    -0.038 A 
HETATM   17  C   UNL     1       8.117  22.551  54.897  1.00  0.00    -0.019 A 
HETATM   18  C   UNL     1       8.084  22.298  53.502  1.00  0.00    -0.025 A 
HETATM   19  C   UNL     1       8.412  21.464  55.750  1.00  0.00     0.013 A 
HETATM   20  C   UNL     1       8.335  21.003  53.015  1.00  0.00     0.012 A 
HETATM   21  C   UNL     1       7.806  23.340  52.606  1.00  0.00     0.012 A 
HETATM   22  C   UNL     1       8.619  19.951  53.884  1.00  0.00     0.001 A 
HETATM   23  C   UNL     1       8.658  20.181  55.252  1.00  0.00     0.001 A 
HETATM   24  C   UNL     1       7.564  24.632  53.065  1.00  0.00     0.001 A 
HETATM   25  C   UNL     1       7.590  24.898  54.429  1.00  0.00     0.008 A 
ENDBRANCH  15  16
ENDBRANCH  12  15
ENDBRANCH   1  11
BRANCH   8  26
HETATM   26  C   UNL     1       8.995  31.637  59.800  1.00  0.00     0.270 C 
HETATM   27  N   UNL     1       9.054  30.953  60.984  1.00  0.00    -0.365 N 
HETATM   28  H   UNL     1       8.289  30.333  61.224  1.00  0.00     0.159 HD
HETATM   29  H   UNL     1       9.866  31.044  61.572  1.00  0.00     0.159 HD
HETATM   30  O   UNL     1       9.906  32.379  59.452  1.00  0.00    -0.266 OA
ENDBRANCH   8  26
TORSDOF 4
ENDMDL
MODEL 4
REMARK VINA RESULT:     -10.4      5.641      8.778
REMARK  4 active torsions:
REMARK  status: ('A' for Active; 'I' for Inactive)
REMARK    1  A    between atoms: C_5  and  C_6 
REMARK    2  A    between atoms: C_6  and  C_7 
REMARK       I    between atoms: C_7  and  N_8 
REMARK    3  A    between atoms: N_8  and  C_9 
REMARK    4  A    between atoms: C_16  and  C_17 
REMARK       I    between atoms: C_17  and  N_18 
ROOT
HETATM    1  C   UNL     1       5.432  26.839  50.791  1.00  0.00     0.035 A 
HETATM    2  C   UNL     1       4.733  26.173  49.776  1.00  0.00     0.046 A 
HETATM    3  C   UNL     1       3.642  26.812  49.144  1.00  0.00     0.030 A 
HETATM    4  C   UNL     1       3.278  28.085  49.563  1.00  0.00     0.063 A 
HETATM    5  N   UNL     1       2.207  28.430  48.787  1.00  0.00    -0.277 N 
HETATM    6  H   UNL     1       1.679  29.295  48.819  1.00  0.00     0.189 HD
HETATM    7  N   UNL     1       1.851  27.502  47.884  1.00  0.00    -0.168 NA
HETATM    8  C   UNL     1       2.731  26.496  48.091  1.00  0.00     0.156 A 
HETATM    9  C   UNL     1       3.946  28.776  50.576  1.00  0.00     0.034 A 
HETATM   10  C   UNL     1       5.035  28.128  51.172  1.00  0.00     0.032 A 
ENDROOT
BRANCH   1  11
HETATM   11  N   UNL     1       6.551  26.297  51.460  1.00  0.00    -0.327 N 
HETATM   12  C   UNL     1       6.578  25.213  52.320  1.00  0.00     0.226 C 
HETATM   13  O   UNL     1       5.606  24.585  52.731  1.00  0.00    -0.273 OA
HETATM   14  H   UNL     1       7.439  26.741  51.268  1.00  0.00     0.169 HD
BRANCH  12  15
HETATM   15  C   UNL     1       7.976  24.870  52.817  1.00  0.00     0.142 C 
BRANCH  15  16
HETATM   16  C   UNL     1       8.008  24.211  54.183  1.00  0.00    -0.038 A 
HETATM   17  C   UNL     1       8.161  22.803  54.342  1.00  0.00    -0.019 A 
HETATM   18  C   UNL     1       8.196  22.266  55.655  1.00  0.00    -0.025 A 
HETATM   19  C   UNL     1       8.277  21.895  53.264  1.00  0.00     0.013 A 
HETATM   20  C   UNL     1       8.347  20.882  55.847  1.00  0.00     0.012 A 
HETATM   21  C   UNL     1       8.076  23.117  56.763  1.00  0.00     0.012 A 
HETATM   22  C   UNL     1       8.464  20.015  54.762  1.00  0.00     0.001 A 
HETATM   23  C   UNL     1       8.429  20.521  53.471  1.00  0.00     0.001 A 
HETATM   24  C   UNL     1       7.916  24.490  56.597  1.00  0.00     0.001 A 
HETATM   25  C   UNL     1       7.881  25.033  55.318  1.00  0.00     0.008 A 
ENDBRANCH  15  16
ENDBRANCH  12  15
ENDBRANCH   1  11
BRANCH   8  26
HETATM   26  C   UNL     1       2.691  25.272  47.277  1.00  0.00     0.270 C 
HETATM   27  N   UNL     1       2.695  24.115  48.009  1.00  0.00    -0.365 N 
HETATM   28  H   UNL     1       2.709  24.182  49.020  1.00  0.00     0.159 HD
HETATM   29  H   UNL     1       2.646  23.227  47.538  1.00  0.00     0.159 HD
HETATM   30  O   UNL     1       2.648  25.245  46.053  1.00  0.00    -0.266 OA
ENDBRANCH   8  26
TORSDOF 4
ENDMDL
MODEL 5
REMARK VINA RESULT:     -10.2      1.788      2.930
REMARK  4 active torsions:
REMARK  status: ('A' for Active; 'I' for Inactive)
REMARK    1  A    between atoms: C_5  and  C_6 
REMARK    2  A    between atoms: C_6  and  C_7 
REMARK       I    between atoms: C_7  and  N_8 
REMARK    3  A    between atoms: N_8  and  C_9 
REMARK    4  A    between atoms: C_16  and  C_17 
REMARK       I    between atoms: C_17  and  N_18 
ROOT
HETATM    1  C   UNL     1       7.616  27.933  57.198  1.00  0.00     0.035 A 
HETATM    2  C   UNL     1       7.838  29.013  58.063  1.00  0.00     0.046 A 
HETATM    3  C   UNL     1       7.078  30.195  57.914  1.00  0.00     0.030 A 
HETATM    4  C   UNL     1       6.137  30.262  56.894  1.00  0.00     0.063 A 
HETATM    5  N   UNL     1       5.579  31.505  56.997  1.00  0.00    -0.277 N 
HETATM    6  H   UNL     1       4.855  31.903  56.410  1.00  0.00     0.189 HD
HETATM    7  N   UNL     1       6.059  32.250  58.006  1.00  0.00    -0.168 NA
HETATM    8  C   UNL     1       6.986  31.452  58.584  1.00  0.00     0.156 A 
HETATM    9  C   UNL     1       5.894  29.209  56.010  1.00  0.00     0.034 A 
HETATM   10  C   UNL     1       6.647  28.043  56.191  1.00  0.00     0.032 A 
ENDROOT
BRANCH   1  11
HETATM   11  N   UNL     1       8.302  26.703  57.286  1.00  0.00    -0.327 N 
HETATM   12  C   UNL     1       7.756  25.437  57.412  1.00  0.00     0.226 C 
HETATM   13  O   UNL     1       6.568  25.170  57.569  1.00  0.00    -0.273 OA
HETATM   14  H   UNL     1       9.311  26.753  57.226  1.00  0.00     0.169 HD
BRANCH  12  15
HETATM   15  C   UNL     1       8.798  24.327  57.421  1.00  0.00     0.142 C 
BRANCH  15  16
HETATM   16  C   UNL     1       8.444  23.132  56.556  1.00  0.00    -0.038 A 
HETATM   17  C   UNL     1       8.183  23.257  55.160  1.00  0.00    -0.019 A 
HETATM   18  C   UNL     1       7.874  22.088  54.418  1.00  0.00    -0.025 A 
HETATM   19  C   UNL     1       8.210  24.485  54.460  1.00  0.00     0.013 A 
HETATM   20  C   UNL     1       7.613  22.177  53.040  1.00  0.00     0.012 A 
HETATM   21  C   UNL     1       7.824  20.843  55.062  1.00  0.00     0.012 A 
HETATM   22  C   UNL     1       7.652  23.403  52.379  1.00  0.00     0.001 A 
HETATM   23  C   UNL     1       7.950  24.557  53.088  1.00  0.00     0.001 A 
HETATM   24  C   UNL     1       8.069  20.733  56.428  1.00  0.00     0.001 A 
HETATM   25  C   UNL     1       8.376  21.868  57.169  1.00  0.00     0.008 A 
ENDBRANCH  15  16
ENDBRANCH  12  15
ENDBRANCH   1  11
BRANCH   8  26
HETATM   26  C   UNL     1       7.745  31.899  59.761  1.00  0.00     0.270 C 
HETATM   27  N   UNL     1       7.297  31.378  60.945  1.00  0.00    -0.365 N 
HETATM   28  H   UNL     1       6.515  30.734  60.925  1.00  0.00     0.159 HD
HETATM   29  H   UNL     1       7.770  31.610  61.802  1.00  0.00     0.159 HD
HETATM   30  O   UNL     1       8.703  32.663  59.729  1.00  0.00    -0.266 OA
ENDBRANCH   8  26
TORSDOF 4
ENDMDL
MODEL 6
REMARK VINA RESULT:     -10.0      5.643      8.050
REMARK  4 active torsions:
REMARK  status: ('A' for Active; 'I' for Inactive)
REMARK    1  A    between atoms: C_5  and  C_6 
REMARK    2  A    between atoms: C_6  and  C_7 
REMARK       I    between atoms: C_7  and  N_8 
REMARK    3  A    between atoms: N_8  and  C_9 
REMARK    4  A    between atoms: C_16  and  C_17 
REMARK       I    between atoms: C_17  and  N_18 
ROOT
HETATM    1  C   UNL     1       4.878  26.776  50.053  1.00  0.00     0.035 A 
HETATM    2  C   UNL     1       4.314  28.028  50.330  1.00  0.00     0.046 A 
HETATM    3  C   UNL     1       3.157  28.442  49.632  1.00  0.00     0.030 A 
HETATM    4  C   UNL     1       2.617  27.599  48.669  1.00  0.00     0.063 A 
HETATM    5  N   UNL     1       1.531  28.263  48.173  1.00  0.00    -0.277 N 
HETATM    6  H   UNL     1       0.897  27.947  47.448  1.00  0.00     0.189 HD
HETATM    7  N   UNL     1       1.303  29.459  48.740  1.00  0.00    -0.168 NA
HETATM    8  C   UNL     1       2.299  29.583  49.646  1.00  0.00     0.156 A 
HETATM    9  C   UNL     1       3.157  26.348  48.362  1.00  0.00     0.034 A 
HETATM   10  C   UNL     1       4.291  25.953  49.081  1.00  0.00     0.032 A 
ENDROOT
BRANCH   1  11
HETATM   11  N   UNL     1       6.013  26.262  50.716  1.00  0.00    -0.327 N 
HETATM   12  C   UNL     1       6.044  25.341  51.749  1.00  0.00     0.226 C 
HETATM   13  O   UNL     1       5.073  24.877  52.340  1.00  0.00    -0.273 OA
HETATM   14  H   UNL     1       6.909  26.590  50.380  1.00  0.00     0.169 HD
BRANCH  12  15
HETATM   15  C   UNL     1       7.455  24.970  52.187  1.00  0.00     0.142 C 
BRANCH  15  16
HETATM   16  C   UNL     1       7.549  24.445  53.607  1.00  0.00    -0.038 A 
HETATM   17  C   UNL     1       7.729  23.060  53.894  1.00  0.00    -0.019 A 
HETATM   18  C   UNL     1       7.822  22.653  55.250  1.00  0.00    -0.025 A 
HETATM   19  C   UNL     1       7.817  22.055  52.904  1.00  0.00     0.013 A 
HETATM   20  C   UNL     1       8.002  21.295  55.567  1.00  0.00     0.012 A 
HETATM   21  C   UNL     1       7.733  23.605  56.275  1.00  0.00     0.012 A 
HETATM   22  C   UNL     1       8.089  20.329  54.566  1.00  0.00     0.001 A 
HETATM   23  C   UNL     1       7.997  20.709  53.235  1.00  0.00     0.001 A 
HETATM   24  C   UNL     1       7.546  24.954  55.985  1.00  0.00     0.001 A 
HETATM   25  C   UNL     1       7.454  25.371  54.663  1.00  0.00     0.008 A 
ENDBRANCH  15  16
ENDBRANCH  12  15
ENDBRANCH   1  11
BRANCH   8  26
HETATM   26  C   UNL     1       2.400  30.772  50.506  1.00  0.00     0.270 C 
HETATM   27  N   UNL     1       2.313  30.500  51.844  1.00  0.00    -0.365 N 
HETATM   28  H   UNL     1       2.207  29.535  52.137  1.00  0.00     0.159 HD
HETATM   29  H   UNL     1       2.396  31.249  52.511  1.00  0.00     0.159 HD
HETATM   30  O   UNL     1       2.555  31.918  50.102  1.00  0.00    -0.266 OA
ENDBRANCH   8  26
TORSDOF 4
ENDMDL
MODEL 7
REMARK VINA RESULT:      -9.6      2.709      3.102
REMARK  4 active torsions:
REMARK  status: ('A' for Active; 'I' for Inactive)
REMARK    1  A    between atoms: C_5  and  C_6 
REMARK    2  A    between atoms: C_6  and  C_7 
REMARK       I    between atoms: C_7  and  N_8 
REMARK    3  A    between atoms: N_8  and  C_9 
REMARK    4  A    between atoms: C_16  and  C_17 
REMARK       I    between atoms: C_17  and  N_18 
ROOT
HETATM    1  C   UNL     1       7.463  28.218  57.377  1.00  0.00     0.035 A 
HETATM    2  C   UNL     1       6.321  28.718  56.737  1.00  0.00     0.046 A 
HETATM    3  C   UNL     1       5.869  30.023  57.034  1.00  0.00     0.030 A 
HETATM    4  C   UNL     1       6.563  30.774  57.974  1.00  0.00     0.063 A 
HETATM    5  N   UNL     1       5.897  31.965  58.051  1.00  0.00    -0.277 N 
HETATM    6  H   UNL     1       6.122  32.757  58.641  1.00  0.00     0.189 HD
HETATM    7  N   UNL     1       4.838  32.065  57.230  1.00  0.00    -0.168 NA
HETATM    8  C   UNL     1       4.809  30.872  56.593  1.00  0.00     0.156 A 
HETATM    9  C   UNL     1       7.700  30.307  58.636  1.00  0.00     0.034 A 
HETATM   10  C   UNL     1       8.138  29.018  58.309  1.00  0.00     0.032 A 
ENDROOT
BRANCH   1  11
HETATM   11  N   UNL     1       8.008  26.940  57.126  1.00  0.00    -0.327 N 
HETATM   12  C   UNL     1       7.351  25.722  57.144  1.00  0.00     0.226 C 
HETATM   13  O   UNL     1       6.186  25.528  57.480  1.00  0.00    -0.273 OA
HETATM   14  H   UNL     1       8.990  26.918  56.882  1.00  0.00     0.169 HD
BRANCH  12  15
HETATM   15  C   UNL     1       8.245  24.547  56.768  1.00  0.00     0.142 C 
BRANCH  15  16
HETATM   16  C   UNL     1       8.077  24.069  55.338  1.00  0.00    -0.038 A 
HETATM   17  C   UNL     1       8.277  22.708  54.965  1.00  0.00    -0.019 A 
HETATM   18  C   UNL     1       8.085  22.340  53.608  1.00  0.00    -0.025 A 
HETATM   19  C   UNL     1       8.662  21.691  55.868  1.00  0.00     0.013 A 
HETATM   20  C   UNL     1       8.273  21.006  53.207  1.00  0.00     0.012 A 
HETATM   21  C   UNL     1       7.712  23.308  52.665  1.00  0.00     0.012 A 
HETATM   22  C   UNL     1       8.648  20.026  54.124  1.00  0.00     0.001 A 
HETATM   23  C   UNL     1       8.843  20.368  55.455  1.00  0.00     0.001 A 
HETATM   24  C   UNL     1       7.530  24.637  53.038  1.00  0.00     0.001 A 
HETATM   25  C   UNL     1       7.712  25.015  54.363  1.00  0.00     0.008 A 
ENDBRANCH  15  16
ENDBRANCH  12  15
ENDBRANCH   1  11
BRANCH   8  26
HETATM   26  C   UNL     1       3.788  30.578  55.576  1.00  0.00     0.270 C 
HETATM   27  N   UNL     1       2.608  31.246  55.762  1.00  0.00    -0.365 N 
HETATM   28  H   UNL     1       2.531  31.883  56.547  1.00  0.00     0.159 HD
HETATM   29  H   UNL     1       1.858  31.126  55.102  1.00  0.00     0.159 HD
HETATM   30  O   UNL     1       3.941  29.816  54.629  1.00  0.00    -0.266 OA
ENDBRANCH   8  26
TORSDOF 4
ENDMDL
MODEL 8
REMARK VINA RESULT:      -9.5      2.996      8.730
REMARK  4 active torsions:
REMARK  status: ('A' for Active; 'I' for Inactive)
REMARK    1  A    between atoms: C_5  and  C_6 
REMARK    2  A    between atoms: C_6  and  C_7 
REMARK       I    between atoms: C_7  and  N_8 
REMARK    3  A    between atoms: N_8  and  C_9 
REMARK    4  A    between atoms: C_16  and  C_17 
REMARK       I    between atoms: C_17  and  N_18 
ROOT
HETATM    1  C   UNL     1       7.478  25.981  54.271  1.00  0.00     0.035 A 
HETATM    2  C   UNL     1       7.635  24.833  55.059  1.00  0.00     0.046 A 
HETATM    3  C   UNL     1       7.794  23.575  54.437  1.00  0.00     0.030 A 
HETATM    4  C   UNL     1       7.771  23.505  53.049  1.00  0.00     0.063 A 
HETATM    5  N   UNL     1       7.939  22.183  52.749  1.00  0.00    -0.277 N 
HETATM    6  H   UNL     1       7.969  21.762  51.828  1.00  0.00     0.189 HD
HETATM    7  N   UNL     1       8.088  21.383  53.818  1.00  0.00    -0.168 NA
HETATM    8  C   UNL     1       8.003  22.230  54.869  1.00  0.00     0.156 A 
HETATM    9  C   UNL     1       7.610  24.626  52.232  1.00  0.00     0.034 A 
HETATM   10  C   UNL     1       7.474  25.864  52.873  1.00  0.00     0.032 A 
ENDROOT
BRANCH   1  11
HETATM   11  N   UNL     1       7.343  27.283  54.797  1.00  0.00    -0.327 N 
HETATM   12  C   UNL     1       7.025  27.641  56.096  1.00  0.00     0.226 C 
HETATM   13  O   UNL     1       6.709  26.878  57.005  1.00  0.00    -0.273 OA
HETATM   14  H   UNL     1       7.521  28.042  54.152  1.00  0.00     0.169 HD
BRANCH  12  15
HETATM   15  C   UNL     1       7.020  29.147  56.324  1.00  0.00     0.142 C 
BRANCH  15  16
HETATM   16  C   UNL     1       8.328  29.701  56.856  1.00  0.00    -0.038 A 
HETATM   17  C   UNL     1       8.381  30.573  57.983  1.00  0.00    -0.019 A 
HETATM   18  C   UNL     1       9.646  31.036  58.427  1.00  0.00    -0.025 A 
HETATM   19  C   UNL     1       7.240  31.015  58.692  1.00  0.00     0.013 A 
HETATM   20  C   UNL     1       9.733  31.895  59.536  1.00  0.00     0.012 A 
HETATM   21  C   UNL     1      10.812  30.638  57.757  1.00  0.00     0.012 A 
HETATM   22  C   UNL     1       8.588  32.308  60.216  1.00  0.00     0.001 A 
HETATM   23  C   UNL     1       7.342  31.868  59.794  1.00  0.00     0.001 A 
HETATM   24  C   UNL     1      10.749  29.795  56.650  1.00  0.00     0.001 A 
HETATM   25  C   UNL     1       9.518  29.331  56.203  1.00  0.00     0.008 A 
ENDBRANCH  15  16
ENDBRANCH  12  15
ENDBRANCH   1  11
BRANCH   8  26
HETATM   26  C   UNL     1       8.135  21.742  56.250  1.00  0.00     0.270 C 
HETATM   27  N   UNL     1       7.968  20.390  56.382  1.00  0.00    -0.365 N 
HETATM   28  H   UNL     1       7.787  19.841  55.549  1.00  0.00     0.159 HD
HETATM   29  H   UNL     1       8.064  19.962  57.288  1.00  0.00     0.159 HD
HETATM   30  O   UNL     1       8.381  22.447  57.222  1.00  0.00    -0.266 OA
ENDBRANCH   8  26
TORSDOF 4
ENDMDL
MODEL 9
REMARK VINA RESULT:      -9.5      3.886      4.846
REMARK  4 active torsions:
REMARK  status: ('A' for Active; 'I' for Inactive)
REMARK    1  A    between atoms: C_5  and  C_6 
REMARK    2  A    between atoms: C_6  and  C_7 
REMARK       I    between atoms: C_7  and  N_8 
REMARK    3  A    between atoms: N_8  and  C_9 
REMARK    4  A    between atoms: C_16  and  C_17 
REMARK       I    between atoms: C_17  and  N_18 
ROOT
HETATM    1  C   UNL     1       5.799  28.321  56.132  1.00  0.00     0.035 A 
HETATM    2  C   UNL     1       5.172  28.758  54.958  1.00  0.00     0.046 A 
HETATM    3  C   UNL     1       4.240  29.818  55.017  1.00  0.00     0.030 A 
HETATM    4  C   UNL     1       3.953  30.390  56.250  1.00  0.00     0.063 A 
HETATM    5  N   UNL     1       3.030  31.364  55.992  1.00  0.00    -0.277 N 
HETATM    6  H   UNL     1       2.590  31.985  56.661  1.00  0.00     0.189 HD
HETATM    7  N   UNL     1       2.702  31.492  54.696  1.00  0.00    -0.168 NA
HETATM    8  C   UNL     1       3.444  30.543  54.080  1.00  0.00     0.156 A 
HETATM    9  C   UNL     1       4.552  29.975  57.441  1.00  0.00     0.034 A 
HETATM   10  C   UNL     1       5.486  28.936  57.352  1.00  0.00     0.032 A 
ENDROOT
BRANCH   1  11
HETATM   11  N   UNL     1       6.764  27.291  56.171  1.00  0.00    -0.327 N 
HETATM   12  C   UNL     1       6.556  25.948  56.431  1.00  0.00     0.226 C 
HETATM   13  O   UNL     1       5.498  25.427  56.772  1.00  0.00    -0.273 OA
HETATM   14  H   UNL     1       7.715  27.567  55.962  1.00  0.00     0.169 HD
BRANCH  12  15
HETATM   15  C   UNL     1       7.825  25.111  56.335  1.00  0.00     0.142 C 
BRANCH  15  16
HETATM   16  C   UNL     1       7.857  24.159  55.154  1.00  0.00    -0.038 A 
HETATM   17  C   UNL     1       8.059  22.757  55.313  1.00  0.00    -0.019 A 
HETATM   18  C   UNL     1       8.059  21.934  54.158  1.00  0.00    -0.025 A 
HETATM   19  C   UNL     1       8.265  22.128  56.562  1.00  0.00     0.013 A 
HETATM   20  C   UNL     1       8.254  20.547  54.281  1.00  0.00     0.012 A 
HETATM   21  C   UNL     1       7.868  22.504  52.891  1.00  0.00     0.012 A 
HETATM   22  C   UNL     1       8.451  19.957  55.528  1.00  0.00     0.001 A 
HETATM   23  C   UNL     1       8.456  20.747  56.669  1.00  0.00     0.001 A 
HETATM   24  C   UNL     1       7.683  23.876  52.745  1.00  0.00     0.001 A 
HETATM   25  C   UNL     1       7.678  24.698  53.866  1.00  0.00     0.008 A 
ENDBRANCH  15  16
ENDBRANCH  12  15
ENDBRANCH   1  11
BRANCH   8  26
HETATM   26  C   UNL     1       3.387  30.363  52.621  1.00  0.00     0.270 C 
HETATM   27  N   UNL     1       2.624  29.300  52.221  1.00  0.00    -0.365 N 
HETATM   28  H   UNL     1       2.158  28.744  52.928  1.00  0.00     0.159 HD
HETATM   29  H   UNL     1       2.508  29.112  51.239  1.00  0.00     0.159 HD
HETATM   30  O   UNL     1       3.950  31.082  51.803  1.00  0.00    -0.266 OA
ENDBRANCH   8  26
TORSDOF 4
ENDMDL
MODEL 10
REMARK VINA RESULT:      -9.5      2.465      3.328
REMARK  4 active torsions:
REMARK  status: ('A' for Active; 'I' for Inactive)
REMARK    1  A    between atoms: C_5  and  C_6 
REMARK    2  A    between atoms: C_6  and  C_7 
REMARK       I    between atoms: C_7  and  N_8 
REMARK    3  A    between atoms: N_8  and  C_9 
REMARK    4  A    between atoms: C_16  and  C_17 
REMARK       I    between atoms: C_17  and  N_18 
ROOT
HETATM    1  C   UNL     1       5.613  29.075  56.052  1.00  0.00     0.035 A 
HETATM    2  C   UNL     1       6.488  29.668  56.972  1.00  0.00     0.046 A 
HETATM    3  C   UNL     1       6.107  30.857  57.632  1.00  0.00     0.030 A 
HETATM    4  C   UNL     1       4.873  31.422  57.335  1.00  0.00     0.063 A 
HETATM    5  N   UNL     1       4.792  32.545  58.110  1.00  0.00    -0.277 N 
HETATM    6  H   UNL     1       4.027  33.208  58.150  1.00  0.00     0.189 HD
HETATM    7  N   UNL     1       5.857  32.754  58.901  1.00  0.00    -0.168 NA
HETATM    8  C   UNL     1       6.678  31.717  58.618  1.00  0.00     0.156 A 
HETATM    9  C   UNL     1       3.979  30.864  56.419  1.00  0.00     0.034 A 
HETATM   10  C   UNL     1       4.372  29.675  55.793  1.00  0.00     0.032 A 
ENDROOT
BRANCH   1  11
HETATM   11  N   UNL     1       5.891  27.874  55.365  1.00  0.00    -0.327 N 
HETATM   12  C   UNL     1       7.008  27.573  54.606  1.00  0.00     0.226 C 
HETATM   13  O   UNL     1       7.919  28.342  54.315  1.00  0.00    -0.273 OA
HETATM   14  H   UNL     1       5.200  27.140  55.460  1.00  0.00     0.169 HD
BRANCH  12  15
HETATM   15  C   UNL     1       7.000  26.153  54.054  1.00  0.00     0.142 C 
BRANCH  15  16
HETATM   16  C   UNL     1       7.547  25.109  55.010  1.00  0.00    -0.038 A 
HETATM   17  C   UNL     1       7.786  23.763  54.607  1.00  0.00    -0.019 A 
HETATM   18  C   UNL     1       8.314  22.852  55.558  1.00  0.00    -0.025 A 
HETATM   19  C   UNL     1       7.523  23.270  53.308  1.00  0.00     0.013 A 
HETATM   20  C   UNL     1       8.562  21.518  55.193  1.00  0.00     0.012 A 
HETATM   21  C   UNL     1       8.585  23.282  56.865  1.00  0.00     0.012 A 
HETATM   22  C   UNL     1       8.296  21.064  53.902  1.00  0.00     0.001 A 
HETATM   23  C   UNL     1       7.777  21.940  52.960  1.00  0.00     0.001 A 
HETATM   24  C   UNL     1       8.338  24.597  57.251  1.00  0.00     0.001 A 
HETATM   25  C   UNL     1       7.823  25.503  56.332  1.00  0.00     0.008 A 
ENDBRANCH  15  16
ENDBRANCH  12  15
ENDBRANCH   1  11
BRANCH   8  26
HETATM   26  C   UNL     1       7.972  31.564  59.301  1.00  0.00     0.270 C 
HETATM   27  N   UNL     1       8.025  30.504  60.164  1.00  0.00    -0.365 N 
HETATM   28  H   UNL     1       7.206  29.913  60.257  1.00  0.00     0.159 HD
HETATM   29  H   UNL     1       8.879  30.307  60.659  1.00  0.00     0.159 HD
HETATM   30  O   UNL     1       8.942  32.294  59.134  1.00  0.00    -0.266 OA
ENDBRANCH   8  26
TORSDOF 4
ENDMDL
