MODEL 1
REMARK VINA RESULT:     -10.7      0.000      0.000
REMARK  7 active torsions:
REMARK  status: ('A' for Active; 'I' for Inactive)
REMARK    1  A    between atoms: C_3  and  C_4 
REMARK       I    between atoms: C_4  and  N_5 
REMARK    2  A    between atoms: N_8  and  C_9 
REMARK    3  A    between atoms: C_12  and  N_13 
REMARK    4  A    between atoms: N_13  and  C_14 
REMARK    5  A    between atoms: C_14  and  N_15 
REMARK       I    between atoms: N_15  and  C_16 
REMARK    6  A    between atoms: C_16  and  C_17 
REMARK    7  A    between atoms: C_18  and  O_19 
ROOT
HETATM    1  C   UNL     1       6.997  29.463  57.603  1.00  0.00     0.030 A 
HETATM    2  C   UNL     1       6.106  30.545  57.523  1.00  0.00     0.031 A 
HETATM    3  C   UNL     1       6.164  31.624  58.423  1.00  0.00     0.032 A 
HETATM    4  C   UNL     1       7.098  31.630  59.457  1.00  0.00     0.034 A 
HETATM    5  C   UNL     1       8.042  30.610  59.496  1.00  0.00     0.032 A 
HETATM    6  C   UNL     1       7.988  29.547  58.589  1.00  0.00     0.031 A 
ENDROOT
BRANCH   4   7
HETATM    7  N   UNL     1       7.067  32.687  60.391  1.00  0.00    -0.333 N 
HETATM    8  H   UNL     1       7.966  33.094  60.645  1.00  0.00     0.168 HD
BRANCH   7   9
HETATM    9  C   UNL     1       5.984  33.374  60.892  1.00  0.00     0.179 C 
HETATM   10  S   UNL     1       4.599  33.888  60.100  1.00  0.00    -0.040 SA
BRANCH   9  11
HETATM   11  N   UNL     1       6.056  33.697  62.230  1.00  0.00    -0.299 N 
HETATM   12  C   UNL     1       6.615  33.001  63.290  1.00  0.00     0.260 C 
HETATM   13  O   UNL     1       7.477  32.136  63.151  1.00  0.00    -0.267 OA
HETATM   14  H   UNL     1       5.440  34.465  62.474  1.00  0.00     0.171 HD
BRANCH  12  15
HETATM   15  C   UNL     1       6.185  33.451  64.653  1.00  0.00     0.065 A 
HETATM   16  C   UNL     1       4.831  33.593  65.024  1.00  0.00     0.084 A 
HETATM   17  C   UNL     1       4.515  34.039  66.313  1.00  0.00     0.038 A 
HETATM   18  C   UNL     1       5.528  34.319  67.232  1.00  0.00     0.003 A 
HETATM   19  C   UNL     1       6.864  34.156  66.875  1.00  0.00     0.001 A 
HETATM   20  C   UNL     1       7.193  33.720  65.590  1.00  0.00     0.020 A 
BRANCH  16  21
HETATM   21  O   UNL     1       3.878  33.321  64.076  1.00  0.00    -0.355 OA
HETATM   22  C   UNL     1       2.949  34.359  63.776  1.00  0.00     0.210 C 
ENDBRANCH  16  21
ENDBRANCH  12  15
ENDBRANCH   9  11
ENDBRANCH   7   9
ENDBRANCH   4   7
BRANCH   1  23
HETATM   23  N   UNL     1       6.830  28.333  56.797  1.00  0.00    -0.378 N 
HETATM   24  C   UNL     1       5.477  28.026  56.291  1.00  0.00     0.143 C 
HETATM   25  C   UNL     1       5.554  27.099  55.073  1.00  0.00     0.146 C 
HETATM   26  N   UNL     1       6.381  25.911  55.294  1.00  0.00    -0.345 N 
HETATM   27  C   UNL     1       6.112  24.816  54.475  1.00  0.00     0.254 C 
HETATM   28  C   UNL     1       7.675  26.157  55.952  1.00  0.00     0.146 C 
HETATM   29  O   UNL     1       5.086  24.694  53.809  1.00  0.00    -0.267 OA
HETATM   30  C   UNL     1       7.586  27.116  57.161  1.00  0.00     0.143 C 
BRANCH  27  31
HETATM   31  C   UNL     1       7.101  23.725  54.392  1.00  0.00     0.038 A 
HETATM   32  C   UNL     1       7.936  23.568  53.272  1.00  0.00    -0.046 A 
HETATM   33  C   UNL     1       7.931  24.517  52.109  1.00  0.00     0.049 C 
HETATM   34  C   UNL     1       8.826  22.482  53.258  1.00  0.00     0.007 A 
HETATM   35  C   UNL     1       8.847  21.560  54.308  1.00  0.00     0.001 A 
HETATM   36  C   UNL     1       7.985  21.710  55.394  1.00  0.00     0.001 A 
HETATM   37  C   UNL     1       7.110  22.793  55.437  1.00  0.00     0.017 A 
ENDBRANCH  27  31
ENDBRANCH   1  23
TORSDOF 7
ENDMDL
MODEL 2
REMARK VINA RESULT:     -10.3      1.868      2.087
REMARK  7 active torsions:
REMARK  status: ('A' for Active; 'I' for Inactive)
REMARK    1  A    between atoms: C_3  and  C_4 
REMARK       I    between atoms: C_4  and  N_5 
REMARK    2  A    between atoms: N_8  and  C_9 
REMARK    3  A    between atoms: C_12  and  N_13 
REMARK    4  A    between atoms: N_13  and  C_14 
REMARK    5  A    between atoms: C_14  and  N_15 
REMARK       I    between atoms: N_15  and  C_16 
REMARK    6  A    between atoms: C_16  and  C_17 
REMARK    7  A    between atoms: C_18  and  O_19 
ROOT
HETATM    1  C   UNL     1       7.131  29.514  57.555  1.00  0.00     0.030 A 
HETATM    2  C   UNL     1       6.147  30.502  57.725  1.00  0.00     0.031 A 
HETATM    3  C   UNL     1       6.295  31.546  58.655  1.00  0.00     0.032 A 
HETATM    4  C   UNL     1       7.422  31.609  59.472  1.00  0.00     0.034 A 
HETATM    5  C   UNL     1       8.443  30.690  59.254  1.00  0.00     0.032 A 
HETATM    6  C   UNL     1       8.296  29.662  58.318  1.00  0.00     0.031 A 
ENDROOT
BRANCH   4   7
HETATM    7  N   UNL     1       7.493  32.621  60.452  1.00  0.00    -0.333 N 
HETATM    8  H   UNL     1       7.404  33.581  60.120  1.00  0.00     0.168 HD
BRANCH   7   9
HETATM    9  C   UNL     1       7.494  32.505  61.824  1.00  0.00     0.179 C 
HETATM   10  S   UNL     1       8.177  31.313  62.784  1.00  0.00    -0.040 SA
BRANCH   9  11
HETATM   11  N   UNL     1       6.825  33.501  62.503  1.00  0.00    -0.299 N 
HETATM   12  C   UNL     1       5.819  34.354  62.077  1.00  0.00     0.260 C 
HETATM   13  O   UNL     1       5.091  34.114  61.117  1.00  0.00    -0.267 OA
HETATM   14  H   UNL     1       7.285  33.749  63.372  1.00  0.00     0.171 HD
BRANCH  12  15
HETATM   15  C   UNL     1       5.589  35.557  62.939  1.00  0.00     0.065 A 
HETATM   16  C   UNL     1       4.972  35.489  64.206  1.00  0.00     0.084 A 
HETATM   17  C   UNL     1       4.775  36.665  64.940  1.00  0.00     0.038 A 
HETATM   18  C   UNL     1       5.208  37.893  64.435  1.00  0.00     0.003 A 
HETATM   19  C   UNL     1       5.839  37.958  63.196  1.00  0.00     0.001 A 
HETATM   20  C   UNL     1       6.034  36.795  62.450  1.00  0.00     0.020 A 
BRANCH  16  21
HETATM   21  O   UNL     1       4.552  34.259  64.644  1.00  0.00    -0.355 OA
HETATM   22  C   UNL     1       4.914  33.887  65.972  1.00  0.00     0.210 C 
ENDBRANCH  16  21
ENDBRANCH  12  15
ENDBRANCH   9  11
ENDBRANCH   7   9
ENDBRANCH   4   7
BRANCH   1  23
HETATM   23  N   UNL     1       6.902  28.405  56.737  1.00  0.00    -0.378 N 
HETATM   24  C   UNL     1       5.517  28.128  56.301  1.00  0.00     0.143 C 
HETATM   25  C   UNL     1       5.512  27.226  55.061  1.00  0.00     0.146 C 
HETATM   26  N   UNL     1       6.331  26.022  55.211  1.00  0.00    -0.345 N 
HETATM   27  C   UNL     1       5.999  24.949  54.387  1.00  0.00     0.254 C 
HETATM   28  C   UNL     1       7.663  26.235  55.801  1.00  0.00     0.146 C 
HETATM   29  O   UNL     1       4.937  24.857  53.776  1.00  0.00    -0.267 OA
HETATM   30  C   UNL     1       7.657  27.169  57.033  1.00  0.00     0.143 C 
BRANCH  27  31
HETATM   31  C   UNL     1       6.965  23.846  54.226  1.00  0.00     0.038 A 
HETATM   32  C   UNL     1       7.751  23.713  53.068  1.00  0.00    -0.046 A 
HETATM   33  C   UNL     1       7.714  24.701  51.938  1.00  0.00     0.049 C 
HETATM   34  C   UNL     1       8.620  22.614  52.981  1.00  0.00     0.007 A 
HETATM   35  C   UNL     1       8.667  21.656  53.998  1.00  0.00     0.001 A 
HETATM   36  C   UNL     1       7.854  21.784  55.123  1.00  0.00     0.001 A 
HETATM   37  C   UNL     1       7.001  22.879  55.239  1.00  0.00     0.017 A 
ENDBRANCH  27  31
ENDBRANCH   1  23
TORSDOF 7
ENDMDL
MODEL 3
REMARK VINA RESULT:     -10.1      1.294      2.204
REMARK  7 active torsions:
REMARK  status: ('A' for Active; 'I' for Inactive)
REMARK    1  A    between atoms: C_3  and  C_4 
REMARK       I    between atoms: C_4  and  N_5 
REMARK    2  A    between atoms: N_8  and  C_9 
REMARK    3  A    between atoms: C_12  and  N_13 
REMARK    4  A    between atoms: N_13  and  C_14 
REMARK    5  A    between atoms: C_14  and  N_15 
REMARK       I    between atoms: N_15  and  C_16 
REMARK    6  A    between atoms: C_16  and  C_17 
REMARK    7  A    between atoms: C_18  and  O_19 
ROOT
HETATM    1  C   UNL     1       5.255  29.862  57.280  1.00  0.00     0.030 A 
HETATM    2  C   UNL     1       6.367  30.532  57.815  1.00  0.00     0.031 A 
HETATM    3  C   UNL     1       6.240  31.756  58.497  1.00  0.00     0.032 A 
HETATM    4  C   UNL     1       4.993  32.364  58.628  1.00  0.00     0.034 A 
HETATM    5  C   UNL     1       3.874  31.671  58.181  1.00  0.00     0.032 A 
HETATM    6  C   UNL     1       4.005  30.448  57.517  1.00  0.00     0.031 A 
ENDROOT
BRANCH   4   7
HETATM    7  N   UNL     1       4.920  33.633  59.241  1.00  0.00    -0.333 N 
HETATM    8  H   UNL     1       5.328  34.411  58.723  1.00  0.00     0.168 HD
BRANCH   7   9
HETATM    9  C   UNL     1       4.226  34.017  60.366  1.00  0.00     0.179 C 
HETATM   10  S   UNL     1       2.685  34.667  60.488  1.00  0.00    -0.040 SA
BRANCH   9  11
HETATM   11  N   UNL     1       4.898  33.859  61.559  1.00  0.00    -0.299 N 
HETATM   12  C   UNL     1       4.650  33.002  62.619  1.00  0.00     0.260 C 
HETATM   13  O   UNL     1       3.996  31.967  62.513  1.00  0.00    -0.267 OA
HETATM   14  H   UNL     1       5.544  34.620  61.739  1.00  0.00     0.171 HD
BRANCH  12  15
HETATM   15  C   UNL     1       5.335  33.354  63.904  1.00  0.00     0.065 A 
HETATM   16  C   UNL     1       6.738  33.411  64.037  1.00  0.00     0.084 A 
HETATM   17  C   UNL     1       7.299  33.728  65.280  1.00  0.00     0.038 A 
HETATM   18  C   UNL     1       6.478  34.011  66.374  1.00  0.00     0.003 A 
HETATM   19  C   UNL     1       5.093  33.979  66.238  1.00  0.00     0.001 A 
HETATM   20  C   UNL     1       4.521  33.655  65.006  1.00  0.00     0.020 A 
BRANCH  16  21
HETATM   21  O   UNL     1       7.496  33.108  62.935  1.00  0.00    -0.355 OA
HETATM   22  C   UNL     1       8.107  31.820  62.903  1.00  0.00     0.210 C 
ENDBRANCH  16  21
ENDBRANCH  12  15
ENDBRANCH   9  11
ENDBRANCH   7   9
ENDBRANCH   4   7
BRANCH   1  23
HETATM   23  N   UNL     1       5.416  28.728  56.480  1.00  0.00    -0.378 N 
HETATM   24  C   UNL     1       4.257  28.249  55.700  1.00  0.00     0.143 C 
HETATM   25  C   UNL     1       4.717  27.350  54.547  1.00  0.00     0.146 C 
HETATM   26  N   UNL     1       5.624  26.280  54.965  1.00  0.00    -0.345 N 
HETATM   27  C   UNL     1       5.684  25.166  54.131  1.00  0.00     0.254 C 
HETATM   28  C   UNL     1       6.701  26.689  55.883  1.00  0.00     0.146 C 
HETATM   29  O   UNL     1       4.853  24.916  53.261  1.00  0.00    -0.267 OA
HETATM   30  C   UNL     1       6.227  27.618  57.024  1.00  0.00     0.143 C 
BRANCH  27  31
HETATM   31  C   UNL     1       6.802  24.216  54.286  1.00  0.00     0.038 A 
HETATM   32  C   UNL     1       7.767  24.037  53.279  1.00  0.00    -0.046 A 
HETATM   33  C   UNL     1       7.773  24.830  52.004  1.00  0.00     0.049 C 
HETATM   34  C   UNL     1       8.778  23.087  53.494  1.00  0.00     0.007 A 
HETATM   35  C   UNL     1       8.796  22.310  54.655  1.00  0.00     0.001 A 
HETATM   36  C   UNL     1       7.809  22.474  55.627  1.00  0.00     0.001 A 
HETATM   37  C   UNL     1       6.810  23.427  55.444  1.00  0.00     0.017 A 
ENDBRANCH  27  31
ENDBRANCH   1  23
TORSDOF 7
ENDMDL
MODEL 4
REMARK VINA RESULT:      -9.8      2.101     12.195
REMARK  7 active torsions:
REMARK  status: ('A' for Active; 'I' for Inactive)
REMARK    1  A    between atoms: C_3  and  C_4 
REMARK       I    between atoms: C_4  and  N_5 
REMARK    2  A    between atoms: N_8  and  C_9 
REMARK    3  A    between atoms: C_12  and  N_13 
REMARK    4  A    between atoms: N_13  and  C_14 
REMARK    5  A    between atoms: C_14  and  N_15 
REMARK       I    between atoms: N_15  and  C_16 
REMARK    6  A    between atoms: C_16  and  C_17 
REMARK    7  A    between atoms: C_18  and  O_19 
ROOT
HETATM    1  C   UNL     1       6.896  31.344  58.708  1.00  0.00     0.030 A 
HETATM    2  C   UNL     1       7.919  30.444  58.368  1.00  0.00     0.031 A 
HETATM    3  C   UNL     1       7.881  29.689  57.182  1.00  0.00     0.032 A 
HETATM    4  C   UNL     1       6.793  29.790  56.316  1.00  0.00     0.034 A 
HETATM    5  C   UNL     1       5.818  30.740  56.595  1.00  0.00     0.032 A 
HETATM    6  C   UNL     1       5.868  31.497  57.770  1.00  0.00     0.031 A 
ENDROOT
BRANCH   4   7
HETATM    7  N   UNL     1       6.752  28.953  55.181  1.00  0.00    -0.333 N 
HETATM    8  H   UNL     1       7.624  28.844  54.665  1.00  0.00     0.168 HD
BRANCH   7   9
HETATM    9  C   UNL     1       5.745  28.116  54.754  1.00  0.00     0.179 C 
HETATM   10  S   UNL     1       4.173  28.492  54.312  1.00  0.00    -0.040 SA
BRANCH   9  11
HETATM   11  N   UNL     1       6.072  26.778  54.697  1.00  0.00    -0.299 N 
HETATM   12  C   UNL     1       7.142  26.094  55.253  1.00  0.00     0.260 C 
HETATM   13  O   UNL     1       7.788  26.513  56.211  1.00  0.00    -0.267 OA
HETATM   14  H   UNL     1       5.545  26.283  53.986  1.00  0.00     0.171 HD
BRANCH  12  15
HETATM   15  C   UNL     1       7.401  24.733  54.683  1.00  0.00     0.065 A 
HETATM   16  C   UNL     1       7.616  24.503  53.308  1.00  0.00     0.084 A 
HETATM   17  C   UNL     1       7.831  23.197  52.854  1.00  0.00     0.038 A 
HETATM   18  C   UNL     1       7.855  22.131  53.756  1.00  0.00     0.003 A 
HETATM   19  C   UNL     1       7.666  22.359  55.116  1.00  0.00     0.001 A 
HETATM   20  C   UNL     1       7.443  23.656  55.581  1.00  0.00     0.020 A 
BRANCH  16  21
HETATM   21  O   UNL     1       7.565  25.585  52.465  1.00  0.00    -0.355 OA
HETATM   22  C   UNL     1       6.457  25.656  51.571  1.00  0.00     0.210 C 
ENDBRANCH  16  21
ENDBRANCH  12  15
ENDBRANCH   9  11
ENDBRANCH   7   9
ENDBRANCH   4   7
BRANCH   1  23
HETATM   23  N   UNL     1       6.877  31.971  59.957  1.00  0.00    -0.378 N 
HETATM   24  C   UNL     1       7.932  31.627  60.932  1.00  0.00     0.143 C 
HETATM   25  C   UNL     1       8.058  32.719  61.999  1.00  0.00     0.146 C 
HETATM   26  N   UNL     1       6.782  33.079  62.620  1.00  0.00    -0.345 N 
HETATM   27  C   UNL     1       6.857  33.655  63.886  1.00  0.00     0.254 C 
HETATM   28  C   UNL     1       5.658  33.268  61.687  1.00  0.00     0.146 C 
HETATM   29  O   UNL     1       7.859  33.620  64.597  1.00  0.00    -0.267 OA
HETATM   30  C   UNL     1       5.561  32.175  60.599  1.00  0.00     0.143 C 
BRANCH  27  31
HETATM   31  C   UNL     1       5.674  34.352  64.426  1.00  0.00     0.038 A 
HETATM   32  C   UNL     1       5.382  35.685  64.088  1.00  0.00    -0.046 A 
HETATM   33  C   UNL     1       6.205  36.481  63.118  1.00  0.00     0.049 C 
HETATM   34  C   UNL     1       4.255  36.284  64.674  1.00  0.00     0.007 A 
HETATM   35  C   UNL     1       3.475  35.588  65.602  1.00  0.00     0.001 A 
HETATM   36  C   UNL     1       3.802  34.279  65.954  1.00  0.00     0.001 A 
HETATM   37  C   UNL     1       4.902  33.659  65.367  1.00  0.00     0.017 A 
ENDBRANCH  27  31
ENDBRANCH   1  23
TORSDOF 7
ENDMDL
MODEL 5
REMARK VINA RESULT:      -9.8      2.885     12.522
REMARK  7 active torsions:
REMARK  status: ('A' for Active; 'I' for Inactive)
REMARK    1  A    between atoms: C_3  and  C_4 
REMARK       I    between atoms: C_4  and  N_5 
REMARK    2  A    between atoms: N_8  and  C_9 
REMARK    3  A    between atoms: C_12  and  N_13 
REMARK    4  A    between atoms: N_13  and  C_14 
REMARK    5  A    between atoms: C_14  and  N_15 
REMARK       I    between atoms: N_15  and  C_16 
REMARK    6  A    between atoms: C_16  and  C_17 
REMARK    7  A    between atoms: C_18  and  O_19 
ROOT
HETATM    1  C   UNL     1       5.675  30.958  58.158  1.00  0.00     0.030 A 
HETATM    2  C   UNL     1       7.031  30.596  58.210  1.00  0.00     0.031 A 
HETATM    3  C   UNL     1       7.499  29.387  57.664  1.00  0.00     0.032 A 
HETATM    4  C   UNL     1       6.611  28.485  57.082  1.00  0.00     0.034 A 
HETATM    5  C   UNL     1       5.281  28.868  56.944  1.00  0.00     0.032 A 
HETATM    6  C   UNL     1       4.824  30.078  57.477  1.00  0.00     0.031 A 
ENDROOT
BRANCH   4   7
HETATM    7  N   UNL     1       7.106  27.246  56.625  1.00  0.00    -0.333 N 
HETATM    8  H   UNL     1       7.199  26.509  57.324  1.00  0.00     0.168 HD
BRANCH   7   9
HETATM    9  C   UNL     1       7.328  26.819  55.335  1.00  0.00     0.179 C 
HETATM   10  S   UNL     1       7.620  27.727  53.956  1.00  0.00    -0.040 SA
BRANCH   9  11
HETATM   11  N   UNL     1       7.288  25.454  55.148  1.00  0.00    -0.299 N 
HETATM   12  C   UNL     1       8.020  24.446  55.755  1.00  0.00     0.260 C 
HETATM   13  O   UNL     1       8.578  24.577  56.842  1.00  0.00    -0.267 OA
HETATM   14  H   UNL     1       6.779  25.196  54.310  1.00  0.00     0.171 HD
BRANCH  12  15
HETATM   15  C   UNL     1       7.999  23.124  55.052  1.00  0.00     0.065 A 
HETATM   16  C   UNL     1       8.201  22.987  53.662  1.00  0.00     0.084 A 
HETATM   17  C   UNL     1       8.144  21.716  53.080  1.00  0.00     0.038 A 
HETATM   18  C   UNL     1       7.914  20.587  53.870  1.00  0.00     0.003 A 
HETATM   19  C   UNL     1       7.739  20.717  55.245  1.00  0.00     0.001 A 
HETATM   20  C   UNL     1       7.784  21.981  55.837  1.00  0.00     0.020 A 
BRANCH  16  21
HETATM   21  O   UNL     1       8.406  24.131  52.933  1.00  0.00    -0.355 OA
HETATM   22  C   UNL     1       7.453  24.430  51.917  1.00  0.00     0.210 C 
ENDBRANCH  16  21
ENDBRANCH  12  15
ENDBRANCH   9  11
ENDBRANCH   7   9
ENDBRANCH   4   7
BRANCH   1  23
HETATM   23  N   UNL     1       5.206  32.088  58.834  1.00  0.00    -0.378 N 
HETATM   24  C   UNL     1       4.666  33.208  58.036  1.00  0.00     0.143 C 
HETATM   25  C   UNL     1       3.774  34.105  58.902  1.00  0.00     0.146 C 
HETATM   26  N   UNL     1       4.407  34.527  60.152  1.00  0.00    -0.345 N 
HETATM   27  C   UNL     1       3.906  35.692  60.730  1.00  0.00     0.254 C 
HETATM   28  C   UNL     1       5.103  33.464  60.897  1.00  0.00     0.146 C 
HETATM   29  O   UNL     1       3.195  36.500  60.137  1.00  0.00    -0.267 OA
HETATM   30  C   UNL     1       5.977  32.551  60.007  1.00  0.00     0.143 C 
BRANCH  27  31
HETATM   31  C   UNL     1       4.239  35.993  62.135  1.00  0.00     0.038 A 
HETATM   32  C   UNL     1       3.475  35.489  63.202  1.00  0.00    -0.046 A 
HETATM   33  C   UNL     1       2.307  34.566  63.005  1.00  0.00     0.049 C 
HETATM   34  C   UNL     1       3.840  35.853  64.507  1.00  0.00     0.007 A 
HETATM   35  C   UNL     1       4.904  36.729  64.735  1.00  0.00     0.001 A 
HETATM   36  C   UNL     1       5.628  37.250  63.663  1.00  0.00     0.001 A 
HETATM   37  C   UNL     1       5.296  36.884  62.361  1.00  0.00     0.017 A 
ENDBRANCH  27  31
ENDBRANCH   1  23
TORSDOF 7
ENDMDL
MODEL 6
REMARK VINA RESULT:      -9.7      3.013     12.236
REMARK  7 active torsions:
REMARK  status: ('A' for Active; 'I' for Inactive)
REMARK    1  A    between atoms: C_3  and  C_4 
REMARK       I    between atoms: C_4  and  N_5 
REMARK    2  A    between atoms: N_8  and  C_9 
REMARK    3  A    between atoms: C_12  and  N_13 
REMARK    4  A    between atoms: N_13  and  C_14 
REMARK    5  A    between atoms: C_14  and  N_15 
REMARK       I    between atoms: N_15  and  C_16 
REMARK    6  A    between atoms: C_16  and  C_17 
REMARK    7  A    between atoms: C_18  and  O_19 
ROOT
HETATM    1  C   UNL     1       5.636  29.958  57.249  1.00  0.00     0.030 A 
HETATM    2  C   UNL     1       4.771  29.073  56.585  1.00  0.00     0.031 A 
HETATM    3  C   UNL     1       5.216  28.240  55.543  1.00  0.00     0.032 A 
HETATM    4  C   UNL     1       6.540  28.298  55.111  1.00  0.00     0.034 A 
HETATM    5  C   UNL     1       7.427  29.103  55.816  1.00  0.00     0.032 A 
HETATM    6  C   UNL     1       6.981  29.919  56.861  1.00  0.00     0.031 A 
ENDROOT
BRANCH   4   7
HETATM    7  N   UNL     1       6.926  27.511  54.005  1.00  0.00    -0.333 N 
HETATM    8  H   UNL     1       7.807  27.760  53.557  1.00  0.00     0.168 HD
BRANCH   7   9
HETATM    9  C   UNL     1       6.376  26.339  53.537  1.00  0.00     0.179 C 
HETATM   10  S   UNL     1       4.994  26.113  52.615  1.00  0.00    -0.040 SA
BRANCH   9  11
HETATM   11  N   UNL     1       7.046  25.187  53.891  1.00  0.00    -0.299 N 
HETATM   12  C   UNL     1       7.821  24.332  53.123  1.00  0.00     0.260 C 
HETATM   13  O   UNL     1       8.347  24.664  52.064  1.00  0.00    -0.267 OA
HETATM   14  H   UNL     1       6.760  24.839  54.799  1.00  0.00     0.171 HD
BRANCH  12  15
HETATM   15  C   UNL     1       8.082  22.986  53.727  1.00  0.00     0.065 A 
HETATM   16  C   UNL     1       8.557  22.812  55.044  1.00  0.00     0.084 A 
HETATM   17  C   UNL     1       8.794  21.519  55.524  1.00  0.00     0.038 A 
HETATM   18  C   UNL     1       8.541  20.407  54.717  1.00  0.00     0.003 A 
HETATM   19  C   UNL     1       8.048  20.577  53.426  1.00  0.00     0.001 A 
HETATM   20  C   UNL     1       7.816  21.861  52.932  1.00  0.00     0.020 A 
BRANCH  16  21
HETATM   21  O   UNL     1       8.805  23.939  55.785  1.00  0.00    -0.355 OA
HETATM   22  C   UNL     1       8.593  23.847  57.192  1.00  0.00     0.210 C 
ENDBRANCH  16  21
ENDBRANCH  12  15
ENDBRANCH   9  11
ENDBRANCH   7   9
ENDBRANCH   4   7
BRANCH   1  23
HETATM   23  N   UNL     1       5.147  30.881  58.177  1.00  0.00    -0.378 N 
HETATM   24  C   UNL     1       3.683  31.037  58.306  1.00  0.00     0.143 C 
HETATM   25  C   UNL     1       3.326  31.680  59.650  1.00  0.00     0.146 C 
HETATM   26  N   UNL     1       4.073  32.908  59.929  1.00  0.00    -0.345 N 
HETATM   27  C   UNL     1       3.485  33.793  60.830  1.00  0.00     0.254 C 
HETATM   28  C   UNL     1       5.518  32.843  59.653  1.00  0.00     0.146 C 
HETATM   29  O   UNL     1       2.305  33.741  61.170  1.00  0.00    -0.267 OA
HETATM   30  C   UNL     1       5.865  32.166  58.306  1.00  0.00     0.143 C 
BRANCH  27  31
HETATM   31  C   UNL     1       4.309  34.863  61.422  1.00  0.00     0.038 A 
HETATM   32  C   UNL     1       5.026  34.672  62.616  1.00  0.00    -0.046 A 
HETATM   33  C   UNL     1       5.060  33.361  63.347  1.00  0.00     0.049 C 
HETATM   34  C   UNL     1       5.758  35.755  63.129  1.00  0.00     0.007 A 
HETATM   35  C   UNL     1       5.734  36.999  62.494  1.00  0.00     0.001 A 
HETATM   36  C   UNL     1       4.988  37.182  61.331  1.00  0.00     0.001 A 
HETATM   37  C   UNL     1       4.272  36.115  60.793  1.00  0.00     0.017 A 
ENDBRANCH  27  31
ENDBRANCH   1  23
TORSDOF 7
ENDMDL
MODEL 7
REMARK VINA RESULT:      -9.7      2.675     12.140
REMARK  7 active torsions:
REMARK  status: ('A' for Active; 'I' for Inactive)
REMARK    1  A    between atoms: C_3  and  C_4 
REMARK       I    between atoms: C_4  and  N_5 
REMARK    2  A    between atoms: N_8  and  C_9 
REMARK    3  A    between atoms: C_12  and  N_13 
REMARK    4  A    between atoms: N_13  and  C_14 
REMARK    5  A    between atoms: C_14  and  N_15 
REMARK       I    between atoms: N_15  and  C_16 
REMARK    6  A    between atoms: C_16  and  C_17 
REMARK    7  A    between atoms: C_18  and  O_19 
ROOT
HETATM    1  C   UNL     1       5.871  30.335  57.372  1.00  0.00     0.030 A 
HETATM    2  C   UNL     1       7.091  29.645  57.451  1.00  0.00     0.031 A 
HETATM    3  C   UNL     1       7.530  28.790  56.424  1.00  0.00     0.032 A 
HETATM    4  C   UNL     1       6.736  28.575  55.299  1.00  0.00     0.034 A 
HETATM    5  C   UNL     1       5.569  29.319  55.166  1.00  0.00     0.032 A 
HETATM    6  C   UNL     1       5.144  30.177  56.185  1.00  0.00     0.031 A 
ENDROOT
BRANCH   4   7
HETATM    7  N   UNL     1       7.171  27.644  54.331  1.00  0.00    -0.333 N 
HETATM    8  H   UNL     1       8.136  27.736  54.016  1.00  0.00     0.168 HD
BRANCH   7   9
HETATM    9  C   UNL     1       6.538  26.514  53.866  1.00  0.00     0.179 C 
HETATM   10  S   UNL     1       5.072  26.376  53.064  1.00  0.00    -0.040 SA
BRANCH   9  11
HETATM   11  N   UNL     1       7.196  25.326  54.106  1.00  0.00    -0.299 N 
HETATM   12  C   UNL     1       7.877  24.488  53.237  1.00  0.00     0.260 C 
HETATM   13  O   UNL     1       8.327  24.859  52.156  1.00  0.00    -0.267 OA
HETATM   14  H   UNL     1       6.972  24.941  55.017  1.00  0.00     0.171 HD
BRANCH  12  15
HETATM   15  C   UNL     1       8.139  23.106  53.751  1.00  0.00     0.065 A 
HETATM   16  C   UNL     1       8.683  22.850  55.027  1.00  0.00     0.084 A 
HETATM   17  C   UNL     1       8.917  21.528  55.423  1.00  0.00     0.038 A 
HETATM   18  C   UNL     1       8.592  20.468  54.573  1.00  0.00     0.003 A 
HETATM   19  C   UNL     1       8.032  20.719  53.323  1.00  0.00     0.001 A 
HETATM   20  C   UNL     1       7.802  22.033  52.913  1.00  0.00     0.020 A 
BRANCH  16  21
HETATM   21  O   UNL     1       8.999  23.929  55.814  1.00  0.00    -0.355 OA
HETATM   22  C   UNL     1       8.625  23.859  57.187  1.00  0.00     0.210 C 
ENDBRANCH  16  21
ENDBRANCH  12  15
ENDBRANCH   9  11
ENDBRANCH   7   9
ENDBRANCH   4   7
BRANCH   1  23
HETATM   23  N   UNL     1       5.383  31.059  58.463  1.00  0.00    -0.378 N 
HETATM   24  C   UNL     1       4.038  31.661  58.361  1.00  0.00     0.143 C 
HETATM   25  C   UNL     1       3.477  31.969  59.753  1.00  0.00     0.146 C 
HETATM   26  N   UNL     1       4.397  32.731  60.599  1.00  0.00    -0.345 N 
HETATM   27  C   UNL     1       3.817  33.463  61.633  1.00  0.00     0.254 C 
HETATM   28  C   UNL     1       5.793  32.260  60.597  1.00  0.00     0.146 C 
HETATM   29  O   UNL     1       2.617  33.721  61.700  1.00  0.00    -0.267 OA
HETATM   30  C   UNL     1       6.335  31.927  59.189  1.00  0.00     0.143 C 
BRANCH  27  31
HETATM   31  C   UNL     1       4.675  33.968  62.721  1.00  0.00     0.038 A 
HETATM   32  C   UNL     1       5.224  35.261  62.691  1.00  0.00    -0.046 A 
HETATM   33  C   UNL     1       4.938  36.245  61.593  1.00  0.00     0.049 C 
HETATM   34  C   UNL     1       6.059  35.650  63.750  1.00  0.00     0.007 A 
HETATM   35  C   UNL     1       6.372  34.759  64.780  1.00  0.00     0.001 A 
HETATM   36  C   UNL     1       5.849  33.467  64.775  1.00  0.00     0.001 A 
HETATM   37  C   UNL     1       5.001  33.068  63.745  1.00  0.00     0.017 A 
ENDBRANCH  27  31
ENDBRANCH   1  23
TORSDOF 7
ENDMDL
MODEL 8
REMARK VINA RESULT:      -9.5      2.390     11.890
REMARK  7 active torsions:
REMARK  status: ('A' for Active; 'I' for Inactive)
REMARK    1  A    between atoms: C_3  and  C_4 
REMARK       I    between atoms: C_4  and  N_5 
REMARK    2  A    between atoms: N_8  and  C_9 
REMARK    3  A    between atoms: C_12  and  N_13 
REMARK    4  A    between atoms: N_13  and  C_14 
REMARK    5  A    between atoms: C_14  and  N_15 
REMARK       I    between atoms: N_15  and  C_16 
REMARK    6  A    between atoms: C_16  and  C_17 
REMARK    7  A    between atoms: C_18  and  O_19 
ROOT
HETATM    1  C   UNL     1       7.797  30.401  58.269  1.00  0.00     0.030 A 
HETATM    2  C   UNL     1       6.693  30.042  57.480  1.00  0.00     0.031 A 
HETATM    3  C   UNL     1       6.842  29.370  56.253  1.00  0.00     0.032 A 
HETATM    4  C   UNL     1       8.112  29.070  55.764  1.00  0.00     0.034 A 
HETATM    5  C   UNL     1       9.209  29.340  56.574  1.00  0.00     0.032 A 
HETATM    6  C   UNL     1       9.053  29.996  57.799  1.00  0.00     0.031 A 
ENDROOT
BRANCH   4   7
HETATM    7  N   UNL     1       8.223  28.475  54.489  1.00  0.00    -0.333 N 
HETATM    8  H   UNL     1       9.167  28.374  54.117  1.00  0.00     0.168 HD
BRANCH   7   9
HETATM    9  C   UNL     1       7.257  27.847  53.735  1.00  0.00     0.179 C 
HETATM   10  S   UNL     1       5.996  28.520  52.860  1.00  0.00    -0.040 SA
BRANCH   9  11
HETATM   11  N   UNL     1       7.329  26.471  53.710  1.00  0.00    -0.299 N 
HETATM   12  C   UNL     1       6.623  25.524  54.435  1.00  0.00     0.260 C 
HETATM   13  O   UNL     1       5.539  25.751  54.967  1.00  0.00    -0.267 OA
HETATM   14  H   UNL     1       8.153  26.138  53.221  1.00  0.00     0.171 HD
BRANCH  12  15
HETATM   15  C   UNL     1       7.212  24.147  54.439  1.00  0.00     0.065 A 
HETATM   16  C   UNL     1       7.612  23.484  55.618  1.00  0.00     0.084 A 
HETATM   17  C   UNL     1       8.173  22.205  55.532  1.00  0.00     0.038 A 
HETATM   18  C   UNL     1       8.315  21.578  54.292  1.00  0.00     0.003 A 
HETATM   19  C   UNL     1       7.898  22.221  53.130  1.00  0.00     0.001 A 
HETATM   20  C   UNL     1       7.345  23.500  53.201  1.00  0.00     0.020 A 
BRANCH  16  21
HETATM   21  O   UNL     1       7.465  24.154  56.807  1.00  0.00    -0.355 OA
HETATM   22  C   UNL     1       8.624  24.793  57.336  1.00  0.00     0.210 C 
ENDBRANCH  16  21
ENDBRANCH  12  15
ENDBRANCH   9  11
ENDBRANCH   7   9
ENDBRANCH   4   7
BRANCH   1  23
HETATM   23  N   UNL     1       7.639  31.196  59.407  1.00  0.00    -0.378 N 
HETATM   24  C   UNL     1       8.344  30.800  60.644  1.00  0.00     0.143 C 
HETATM   25  C   UNL     1       8.468  31.992  61.599  1.00  0.00     0.146 C 
HETATM   26  N   UNL     1       7.199  32.680  61.843  1.00  0.00    -0.345 N 
HETATM   27  C   UNL     1       7.115  33.411  63.026  1.00  0.00     0.254 C 
HETATM   28  C   UNL     1       6.385  32.946  60.644  1.00  0.00     0.146 C 
HETATM   29  O   UNL     1       7.898  33.286  63.965  1.00  0.00    -0.267 OA
HETATM   30  C   UNL     1       6.293  31.744  59.676  1.00  0.00     0.143 C 
BRANCH  27  31
HETATM   31  C   UNL     1       6.029  34.396  63.183  1.00  0.00     0.038 A 
HETATM   32  C   UNL     1       4.725  34.010  63.538  1.00  0.00    -0.046 A 
HETATM   33  C   UNL     1       4.348  32.589  63.841  1.00  0.00     0.049 C 
HETATM   34  C   UNL     1       3.742  35.008  63.631  1.00  0.00     0.007 A 
HETATM   35  C   UNL     1       4.043  36.340  63.334  1.00  0.00     0.001 A 
HETATM   36  C   UNL     1       5.333  36.700  62.947  1.00  0.00     0.001 A 
HETATM   37  C   UNL     1       6.328  35.729  62.869  1.00  0.00     0.017 A 
ENDBRANCH  27  31
ENDBRANCH   1  23
TORSDOF 7
ENDMDL
MODEL 9
REMARK VINA RESULT:      -9.0      3.392     11.253
REMARK  7 active torsions:
REMARK  status: ('A' for Active; 'I' for Inactive)
REMARK    1  A    between atoms: C_3  and  C_4 
REMARK       I    between atoms: C_4  and  N_5 
REMARK    2  A    between atoms: N_8  and  C_9 
REMARK    3  A    between atoms: C_12  and  N_13 
REMARK    4  A    between atoms: N_13  and  C_14 
REMARK    5  A    between atoms: C_14  and  N_15 
REMARK       I    between atoms: N_15  and  C_16 
REMARK    6  A    between atoms: C_16  and  C_17 
REMARK    7  A    between atoms: C_18  and  O_19 
ROOT
HETATM    1  C   UNL     1       5.447  29.643  55.033  1.00  0.00     0.030 A 
HETATM    2  C   UNL     1       4.426  29.823  54.086  1.00  0.00     0.031 A 
HETATM    3  C   UNL     1       4.456  29.188  52.831  1.00  0.00     0.032 A 
HETATM    4  C   UNL     1       5.534  28.380  52.475  1.00  0.00     0.034 A 
HETATM    5  C   UNL     1       6.507  28.122  53.434  1.00  0.00     0.032 A 
HETATM    6  C   UNL     1       6.465  28.746  54.685  1.00  0.00     0.031 A 
ENDROOT
BRANCH   4   7
HETATM    7  N   UNL     1       5.569  27.832  51.175  1.00  0.00    -0.333 N 
HETATM    8  H   UNL     1       5.924  28.438  50.437  1.00  0.00     0.168 HD
BRANCH   7   9
HETATM    9  C   UNL     1       5.353  26.533  50.773  1.00  0.00     0.179 C 
HETATM   10  S   UNL     1       4.417  25.960  49.506  1.00  0.00    -0.040 SA
BRANCH   9  11
HETATM   11  N   UNL     1       5.983  25.567  51.528  1.00  0.00    -0.299 N 
HETATM   12  C   UNL     1       5.523  24.838  52.613  1.00  0.00     0.260 C 
HETATM   13  O   UNL     1       4.330  24.667  52.855  1.00  0.00    -0.267 OA
HETATM   14  H   UNL     1       6.984  25.544  51.364  1.00  0.00     0.171 HD
BRANCH  12  15
HETATM   15  C   UNL     1       6.582  24.158  53.426  1.00  0.00     0.065 A 
HETATM   16  C   UNL     1       6.761  24.392  54.805  1.00  0.00     0.084 A 
HETATM   17  C   UNL     1       7.789  23.730  55.487  1.00  0.00     0.038 A 
HETATM   18  C   UNL     1       8.616  22.827  54.815  1.00  0.00     0.003 A 
HETATM   19  C   UNL     1       8.424  22.578  53.459  1.00  0.00     0.001 A 
HETATM   20  C   UNL     1       7.409  23.237  52.765  1.00  0.00     0.020 A 
BRANCH  16  21
HETATM   21  O   UNL     1       5.932  25.301  55.411  1.00  0.00    -0.355 OA
HETATM   22  C   UNL     1       5.750  25.174  56.819  1.00  0.00     0.210 C 
ENDBRANCH  16  21
ENDBRANCH  12  15
ENDBRANCH   9  11
ENDBRANCH   7   9
ENDBRANCH   4   7
BRANCH   1  23
HETATM   23  N   UNL     1       5.476  30.395  56.210  1.00  0.00    -0.378 N 
HETATM   24  C   UNL     1       4.962  31.780  56.171  1.00  0.00     0.143 C 
HETATM   25  C   UNL     1       4.611  32.265  57.581  1.00  0.00     0.146 C 
HETATM   26  N   UNL     1       5.689  32.067  58.552  1.00  0.00    -0.345 N 
HETATM   27  C   UNL     1       5.664  32.895  59.673  1.00  0.00     0.254 C 
HETATM   28  C   UNL     1       6.342  30.749  58.510  1.00  0.00     0.146 C 
HETATM   29  O   UNL     1       4.991  33.921  59.752  1.00  0.00    -0.267 OA
HETATM   30  C   UNL     1       6.664  30.260  57.079  1.00  0.00     0.143 C 
BRANCH  27  31
HETATM   31  C   UNL     1       6.488  32.540  60.843  1.00  0.00     0.038 A 
HETATM   32  C   UNL     1       5.912  32.185  62.075  1.00  0.00    -0.046 A 
HETATM   33  C   UNL     1       4.429  32.082  62.283  1.00  0.00     0.049 C 
HETATM   34  C   UNL     1       6.770  31.895  63.147  1.00  0.00     0.007 A 
HETATM   35  C   UNL     1       8.156  32.002  63.005  1.00  0.00     0.001 A 
HETATM   36  C   UNL     1       8.710  32.392  61.786  1.00  0.00     0.001 A 
HETATM   37  C   UNL     1       7.877  32.663  60.703  1.00  0.00     0.017 A 
ENDBRANCH  27  31
ENDBRANCH   1  23
TORSDOF 7
ENDMDL
MODEL 10
REMARK VINA RESULT:      -9.0      2.262      3.801
REMARK  7 active torsions:
REMARK  status: ('A' for Active; 'I' for Inactive)
REMARK    1  A    between atoms: C_3  and  C_4 
REMARK       I    between atoms: C_4  and  N_5 
REMARK    2  A    between atoms: N_8  and  C_9 
REMARK    3  A    between atoms: C_12  and  N_13 
REMARK    4  A    between atoms: N_13  and  C_14 
REMARK    5  A    between atoms: C_14  and  N_15 
REMARK       I    between atoms: N_15  and  C_16 
REMARK    6  A    between atoms: C_16  and  C_17 
REMARK    7  A    between atoms: C_18  and  O_19 
ROOT
HETATM    1  C   UNL     1       5.316  31.978  58.938  1.00  0.00     0.030 A 
HETATM    2  C   UNL     1       4.079  32.486  58.510  1.00  0.00     0.031 A 
HETATM    3  C   UNL     1       3.430  33.533  59.190  1.00  0.00     0.032 A 
HETATM    4  C   UNL     1       3.988  34.076  60.346  1.00  0.00     0.034 A 
HETATM    5  C   UNL     1       5.253  33.645  60.730  1.00  0.00     0.032 A 
HETATM    6  C   UNL     1       5.899  32.613  60.042  1.00  0.00     0.031 A 
ENDROOT
BRANCH   4   7
HETATM    7  N   UNL     1       3.265  35.064  61.047  1.00  0.00    -0.333 N 
HETATM    8  H   UNL     1       2.250  35.036  60.951  1.00  0.00     0.168 HD
BRANCH   7   9
HETATM    9  C   UNL     1       3.711  35.965  61.987  1.00  0.00     0.179 C 
HETATM   10  S   UNL     1       3.588  37.637  61.991  1.00  0.00    -0.040 SA
BRANCH   9  11
HETATM   11  N   UNL     1       4.363  35.417  63.071  1.00  0.00    -0.299 N 
HETATM   12  C   UNL     1       3.898  34.559  64.055  1.00  0.00     0.260 C 
HETATM   13  O   UNL     1       2.909  33.843  63.916  1.00  0.00    -0.267 OA
HETATM   14  H   UNL     1       5.251  35.871  63.255  1.00  0.00     0.171 HD
BRANCH  12  15
HETATM   15  C   UNL     1       4.752  34.466  65.282  1.00  0.00     0.065 A 
HETATM   16  C   UNL     1       6.118  34.116  65.244  1.00  0.00     0.084 A 
HETATM   17  C   UNL     1       6.841  34.031  66.440  1.00  0.00     0.038 A 
HETATM   18  C   UNL     1       6.223  34.313  67.660  1.00  0.00     0.003 A 
HETATM   19  C   UNL     1       4.881  34.682  67.697  1.00  0.00     0.001 A 
HETATM   20  C   UNL     1       4.147  34.762  66.512  1.00  0.00     0.020 A 
BRANCH  16  21
HETATM   21  O   UNL     1       6.669  33.833  64.020  1.00  0.00    -0.355 OA
HETATM   22  C   UNL     1       7.759  32.914  63.997  1.00  0.00     0.210 C 
ENDBRANCH  16  21
ENDBRANCH  12  15
ENDBRANCH   9  11
ENDBRANCH   7   9
ENDBRANCH   4   7
BRANCH   1  23
HETATM   23  N   UNL     1       5.872  30.843  58.341  1.00  0.00    -0.378 N 
HETATM   24  C   UNL     1       7.314  30.586  58.531  1.00  0.00     0.143 C 
HETATM   25  C   UNL     1       7.640  29.114  58.255  1.00  0.00     0.146 C 
HETATM   26  N   UNL     1       7.122  28.631  56.974  1.00  0.00    -0.345 N 
HETATM   27  C   UNL     1       7.769  27.523  56.429  1.00  0.00     0.254 C 
HETATM   28  C   UNL     1       5.732  29.011  56.671  1.00  0.00     0.146 C 
HETATM   29  O   UNL     1       8.871  27.123  56.799  1.00  0.00    -0.267 OA
HETATM   30  C   UNL     1       5.410  30.491  56.981  1.00  0.00     0.143 C 
BRANCH  27  31
HETATM   31  C   UNL     1       7.111  26.773  55.343  1.00  0.00     0.038 A 
HETATM   32  C   UNL     1       6.239  25.702  55.605  1.00  0.00    -0.046 A 
HETATM   33  C   UNL     1       5.864  25.275  56.995  1.00  0.00     0.049 C 
HETATM   34  C   UNL     1       5.682  25.020  54.511  1.00  0.00     0.007 A 
HETATM   35  C   UNL     1       6.023  25.368  53.202  1.00  0.00     0.001 A 
HETATM   36  C   UNL     1       6.919  26.409  52.961  1.00  0.00     0.001 A 
HETATM   37  C   UNL     1       7.465  27.113  54.031  1.00  0.00     0.017 A 
ENDBRANCH  27  31
ENDBRANCH   1  23
TORSDOF 7
ENDMDL
