MODEL 1
REMARK VINA RESULT:      -9.2      0.000      0.000
REMARK  4 active torsions:
REMARK  status: ('A' for Active; 'I' for Inactive)
REMARK    1  A    between atoms: C_6  and  N_7 
REMARK       I    between atoms: N_7  and  C_8 
REMARK    2  A    between atoms: C_8  and  C_9 
REMARK    3  A    between atoms: C_10  and  C_11 
REMARK    4  A    between atoms: C_14  and  O_15 
ROOT
HETATM    1  C   UNL     1       5.473  27.198  53.506  1.00  0.00     0.131 C 
HETATM    2  C   UNL     1       5.360  27.931  54.869  1.00  0.00     0.177 C 
HETATM    3  N   UNL     1       4.511  29.110  54.730  1.00  0.00    -0.088 N 
HETATM    4  C   UNL     1       4.197  29.713  53.545  1.00  0.00     0.721 A 
HETATM    5  N   UNL     1       4.621  29.218  52.370  1.00  0.00    -0.218 N 
HETATM    6  C   UNL     1       5.642  28.173  52.315  1.00  0.00     0.111 C 
HETATM    7  C   UNL     1       5.476  27.457  50.967  1.00  0.00     0.034 C 
HETATM    8  N   UNL     1       3.848  29.675  55.761  1.00  0.00    -0.149 NA
HETATM    9  C   UNL     1       3.238  30.687  55.132  1.00  0.00     0.275 A 
HETATM   10  N   UNL     1       3.423  30.740  53.777  1.00  0.00    -0.055 NA
HETATM   11  H   UNL     1       4.540  29.833  51.563  1.00  0.00     0.178 HD
ENDROOT
BRANCH   1  12
HETATM   12  C   UNL     1       6.561  26.133  53.549  1.00  0.00     0.230 C 
HETATM   13  N   UNL     1       6.097  24.909  54.006  1.00  0.00    -0.326 N 
HETATM   14  H   UNL     1       5.105  24.828  54.176  1.00  0.00     0.169 HD
HETATM   15  O   UNL     1       7.708  26.392  53.199  1.00  0.00    -0.273 OA
BRANCH  13  16
HETATM   16  C   UNL     1       6.842  23.720  54.211  1.00  0.00     0.040 A 
HETATM   17  C   UNL     1       7.261  23.397  55.520  1.00  0.00    -0.035 A 
HETATM   18  C   UNL     1       7.993  22.214  55.743  1.00  0.00     0.015 A 
HETATM   19  C   UNL     1       6.951  24.269  56.709  1.00  0.00     0.050 C 
HETATM   20  C   UNL     1       8.328  21.358  54.690  1.00  0.00    -0.061 A 
HETATM   21  C   UNL     1       9.075  20.083  54.942  1.00  0.00     0.048 C 
HETATM   22  C   UNL     1       7.908  21.685  53.402  1.00  0.00     0.009 A 
HETATM   23  C   UNL     1       7.179  22.854  53.165  1.00  0.00     0.030 A 
ENDBRANCH  13  16
ENDBRANCH   1  12
BRANCH   2  24
HETATM   24  C   UNL     1       6.625  28.295  55.643  1.00  0.00    -0.032 A 
HETATM   25  C   UNL     1       7.682  29.044  55.112  1.00  0.00     0.012 A 
HETATM   26  C   UNL     1       8.809  29.343  55.886  1.00  0.00     0.037 A 
HETATM   27  C   UNL     1       8.906  28.920  57.211  1.00  0.00     0.068 A 
HETATM   28  C   UNL     1       7.856  28.192  57.762  1.00  0.00     0.037 A 
HETATM   29  C   UNL     1       6.731  27.886  56.986  1.00  0.00     0.012 A 
BRANCH  27  30
HETATM   30  O   UNL     1      10.059  29.284  57.849  1.00  0.00    -0.356 OA
HETATM   31  C   UNL     1      11.131  29.732  57.030  1.00  0.00     0.210 C 
ENDBRANCH  27  30
ENDBRANCH   2  24
TORSDOF 4
ENDMDL
MODEL 2
REMARK VINA RESULT:      -9.0      2.721      7.464
REMARK  4 active torsions:
REMARK  status: ('A' for Active; 'I' for Inactive)
REMARK    1  A    between atoms: C_6  and  N_7 
REMARK       I    between atoms: N_7  and  C_8 
REMARK    2  A    between atoms: C_8  and  C_9 
REMARK    3  A    between atoms: C_10  and  C_11 
REMARK    4  A    between atoms: C_14  and  O_15 
ROOT
HETATM    1  C   UNL     1       6.906  24.145  56.168  1.00  0.00     0.131 C 
HETATM    2  C   UNL     1       6.638  23.572  54.751  1.00  0.00     0.177 C 
HETATM    3  N   UNL     1       7.716  22.666  54.369  1.00  0.00    -0.088 N 
HETATM    4  C   UNL     1       8.950  22.629  54.953  1.00  0.00     0.721 A 
HETATM    5  N   UNL     1       9.260  23.418  55.996  1.00  0.00    -0.218 N 
HETATM    6  C   UNL     1       8.391  24.527  56.387  1.00  0.00     0.111 C 
HETATM    7  C   UNL     1       8.688  24.827  57.864  1.00  0.00     0.034 C 
HETATM    8  N   UNL     1       7.572  21.681  53.457  1.00  0.00    -0.149 NA
HETATM    9  C   UNL     1       8.804  21.159  53.467  1.00  0.00     0.275 A 
HETATM   10  N   UNL     1       9.673  21.707  54.372  1.00  0.00    -0.055 NA
HETATM   11  H   UNL     1      10.248  23.495  56.229  1.00  0.00     0.178 HD
ENDROOT
BRANCH   1  12
HETATM   12  C   UNL     1       5.955  25.292  56.481  1.00  0.00     0.230 C 
HETATM   13  N   UNL     1       6.411  26.513  56.008  1.00  0.00    -0.326 N 
HETATM   14  H   UNL     1       7.253  26.504  55.449  1.00  0.00     0.169 HD
HETATM   15  O   UNL     1       4.909  25.093  57.090  1.00  0.00    -0.273 OA
BRANCH  13  16
HETATM   16  C   UNL     1       5.803  27.785  56.160  1.00  0.00     0.040 A 
HETATM   17  C   UNL     1       6.373  28.707  57.064  1.00  0.00    -0.035 A 
HETATM   18  C   UNL     1       5.788  29.979  57.220  1.00  0.00     0.015 A 
HETATM   19  C   UNL     1       7.600  28.391  57.879  1.00  0.00     0.050 C 
HETATM   20  C   UNL     1       4.642  30.344  56.507  1.00  0.00    -0.061 A 
HETATM   21  C   UNL     1       4.048  31.713  56.651  1.00  0.00     0.048 C 
HETATM   22  C   UNL     1       4.088  29.427  55.615  1.00  0.00     0.009 A 
HETATM   23  C   UNL     1       4.659  28.161  55.449  1.00  0.00     0.030 A 
ENDBRANCH  13  16
ENDBRANCH   1  12
BRANCH   2  24
HETATM   24  C   UNL     1       6.326  24.520  53.595  1.00  0.00    -0.032 A 
HETATM   25  C   UNL     1       7.301  25.169  52.828  1.00  0.00     0.012 A 
HETATM   26  C   UNL     1       6.938  26.020  51.778  1.00  0.00     0.037 A 
HETATM   27  C   UNL     1       5.599  26.235  51.455  1.00  0.00     0.068 A 
HETATM   28  C   UNL     1       4.617  25.582  52.193  1.00  0.00     0.037 A 
HETATM   29  C   UNL     1       4.979  24.736  53.248  1.00  0.00     0.012 A 
BRANCH  27  30
HETATM   30  O   UNL     1       5.390  27.088  50.407  1.00  0.00    -0.356 OA
HETATM   31  C   UNL     1       4.621  26.591  49.319  1.00  0.00     0.210 C 
ENDBRANCH  27  30
ENDBRANCH   2  24
TORSDOF 4
ENDMDL
MODEL 3
REMARK VINA RESULT:      -8.8      1.590      1.839
REMARK  4 active torsions:
REMARK  status: ('A' for Active; 'I' for Inactive)
REMARK    1  A    between atoms: C_6  and  N_7 
REMARK       I    between atoms: N_7  and  C_8 
REMARK    2  A    between atoms: C_8  and  C_9 
REMARK    3  A    between atoms: C_10  and  C_11 
REMARK    4  A    between atoms: C_14  and  O_15 
ROOT
HETATM    1  C   UNL     1       4.564  26.922  52.563  1.00  0.00     0.131 C 
HETATM    2  C   UNL     1       4.358  28.012  53.648  1.00  0.00     0.177 C 
HETATM    3  N   UNL     1       4.261  29.326  53.022  1.00  0.00    -0.088 N 
HETATM    4  C   UNL     1       4.682  29.622  51.757  1.00  0.00     0.721 A 
HETATM    5  N   UNL     1       5.190  28.680  50.945  1.00  0.00    -0.218 N 
HETATM    6  C   UNL     1       5.556  27.360  51.457  1.00  0.00     0.111 C 
HETATM    7  C   UNL     1       5.535  26.396  50.262  1.00  0.00     0.034 C 
HETATM    8  N   UNL     1       3.639  30.378  53.594  1.00  0.00    -0.149 NA
HETATM    9  C   UNL     1       3.823  31.310  52.651  1.00  0.00     0.275 A 
HETATM   10  N   UNL     1       4.451  30.886  51.512  1.00  0.00    -0.055 NA
HETATM   11  H   UNL     1       5.681  29.011  50.117  1.00  0.00     0.178 HD
ENDROOT
BRANCH   1  12
HETATM   12  C   UNL     1       4.942  25.589  53.193  1.00  0.00     0.230 C 
HETATM   13  N   UNL     1       6.311  25.371  53.209  1.00  0.00    -0.326 N 
HETATM   14  H   UNL     1       6.900  26.127  52.893  1.00  0.00     0.169 HD
HETATM   15  O   UNL     1       4.079  24.831  53.626  1.00  0.00    -0.273 OA
BRANCH  13  16
HETATM   16  C   UNL     1       7.002  24.225  53.679  1.00  0.00     0.040 A 
HETATM   17  C   UNL     1       6.995  23.947  55.063  1.00  0.00    -0.035 A 
HETATM   18  C   UNL     1       7.668  22.807  55.545  1.00  0.00     0.015 A 
HETATM   19  C   UNL     1       6.284  24.822  56.062  1.00  0.00     0.050 C 
HETATM   20  C   UNL     1       8.359  21.952  54.682  1.00  0.00    -0.061 A 
HETATM   21  C   UNL     1       9.041  20.721  55.200  1.00  0.00     0.048 C 
HETATM   22  C   UNL     1       8.358  22.234  53.317  1.00  0.00     0.009 A 
HETATM   23  C   UNL     1       7.693  23.361  52.823  1.00  0.00     0.030 A 
ENDBRANCH  13  16
ENDBRANCH   1  12
BRANCH   2  24
HETATM   24  C   UNL     1       5.306  28.080  54.845  1.00  0.00    -0.032 A 
HETATM   25  C   UNL     1       6.688  28.275  54.741  1.00  0.00     0.012 A 
HETATM   26  C   UNL     1       7.491  28.331  55.886  1.00  0.00     0.037 A 
HETATM   27  C   UNL     1       6.940  28.213  57.160  1.00  0.00     0.068 A 
HETATM   28  C   UNL     1       5.565  28.039  57.283  1.00  0.00     0.037 A 
HETATM   29  C   UNL     1       4.761  27.975  56.139  1.00  0.00     0.012 A 
BRANCH  27  30
HETATM   30  O   UNL     1       7.840  28.289  58.187  1.00  0.00    -0.356 OA
HETATM   31  C   UNL     1       8.179  29.590  58.648  1.00  0.00     0.210 C 
ENDBRANCH  27  30
ENDBRANCH   2  24
TORSDOF 4
ENDMDL
MODEL 4
REMARK VINA RESULT:      -8.7      4.464      8.404
REMARK  4 active torsions:
REMARK  status: ('A' for Active; 'I' for Inactive)
REMARK    1  A    between atoms: C_6  and  N_7 
REMARK       I    between atoms: N_7  and  C_8 
REMARK    2  A    between atoms: C_8  and  C_9 
REMARK    3  A    between atoms: C_10  and  C_11 
REMARK    4  A    between atoms: C_14  and  O_15 
ROOT
HETATM    1  C   UNL     1       8.006  29.562  57.894  1.00  0.00     0.131 C 
HETATM    2  C   UNL     1       6.534  29.195  57.568  1.00  0.00     0.177 C 
HETATM    3  N   UNL     1       6.492  28.231  56.474  1.00  0.00    -0.088 N 
HETATM    4  C   UNL     1       7.516  27.992  55.602  1.00  0.00     0.721 A 
HETATM    5  N   UNL     1       8.702  28.612  55.723  1.00  0.00    -0.218 N 
HETATM    6  C   UNL     1       8.870  29.752  56.622  1.00  0.00     0.111 C 
HETATM    7  C   UNL     1      10.366  29.839  56.959  1.00  0.00     0.034 C 
HETATM    8  N   UNL     1       5.461  27.385  56.268  1.00  0.00    -0.149 NA
HETATM    9  C   UNL     1       5.894  26.736  55.180  1.00  0.00     0.275 A 
HETATM   10  N   UNL     1       7.147  27.075  54.747  1.00  0.00    -0.055 NA
HETATM   11  H   UNL     1       9.328  28.555  54.922  1.00  0.00     0.178 HD
ENDROOT
BRANCH   1  12
HETATM   12  C   UNL     1       8.076  30.758  58.833  1.00  0.00     0.230 C 
HETATM   13  N   UNL     1       7.559  30.486  60.090  1.00  0.00    -0.326 N 
HETATM   14  H   UNL     1       7.278  29.533  60.275  1.00  0.00     0.169 HD
HETATM   15  O   UNL     1       8.555  31.824  58.459  1.00  0.00    -0.273 OA
BRANCH  13  16
HETATM   16  C   UNL     1       7.428  31.375  61.187  1.00  0.00     0.040 A 
HETATM   17  C   UNL     1       8.349  31.280  62.252  1.00  0.00    -0.035 A 
HETATM   18  C   UNL     1       8.240  32.162  63.345  1.00  0.00     0.015 A 
HETATM   19  C   UNL     1       9.464  30.268  62.272  1.00  0.00     0.050 C 
HETATM   20  C   UNL     1       7.226  33.123  63.405  1.00  0.00    -0.061 A 
HETATM   21  C   UNL     1       7.140  34.082  64.554  1.00  0.00     0.048 C 
HETATM   22  C   UNL     1       6.323  33.210  62.347  1.00  0.00     0.009 A 
HETATM   23  C   UNL     1       6.419  32.342  61.255  1.00  0.00     0.030 A 
ENDBRANCH  13  16
ENDBRANCH   1  12
BRANCH   2  24
HETATM   24  C   UNL     1       5.513  30.303  57.320  1.00  0.00    -0.032 A 
HETATM   25  C   UNL     1       5.510  31.129  56.190  1.00  0.00     0.012 A 
HETATM   26  C   UNL     1       4.536  32.121  56.029  1.00  0.00     0.037 A 
HETATM   27  C   UNL     1       3.533  32.306  56.978  1.00  0.00     0.068 A 
HETATM   28  C   UNL     1       3.508  31.482  58.098  1.00  0.00     0.037 A 
HETATM   29  C   UNL     1       4.485  30.494  58.264  1.00  0.00     0.012 A 
BRANCH  27  30
HETATM   30  O   UNL     1       2.648  33.309  56.693  1.00  0.00    -0.356 OA
HETATM   31  C   UNL     1       2.944  34.595  57.220  1.00  0.00     0.210 C 
ENDBRANCH  27  30
ENDBRANCH   2  24
TORSDOF 4
ENDMDL
MODEL 5
REMARK VINA RESULT:      -8.5      2.890      5.916
REMARK  4 active torsions:
REMARK  status: ('A' for Active; 'I' for Inactive)
REMARK    1  A    between atoms: C_6  and  N_7 
REMARK       I    between atoms: N_7  and  C_8 
REMARK    2  A    between atoms: C_8  and  C_9 
REMARK    3  A    between atoms: C_10  and  C_11 
REMARK    4  A    between atoms: C_14  and  O_15 
ROOT
HETATM    1  C   UNL     1       5.365  28.830  52.792  1.00  0.00     0.131 C 
HETATM    2  C   UNL     1       5.402  29.207  51.288  1.00  0.00     0.177 C 
HETATM    3  N   UNL     1       5.143  30.634  51.126  1.00  0.00    -0.088 N 
HETATM    4  C   UNL     1       4.564  31.435  52.068  1.00  0.00     0.721 A 
HETATM    5  N   UNL     1       4.222  30.964  53.280  1.00  0.00    -0.218 N 
HETATM    6  C   UNL     1       4.213  29.529  53.556  1.00  0.00     0.111 C 
HETATM    7  C   UNL     1       4.357  29.365  55.076  1.00  0.00     0.034 C 
HETATM    8  N   UNL     1       5.551  31.347  50.056  1.00  0.00    -0.149 NA
HETATM    9  C   UNL     1       5.082  32.558  50.378  1.00  0.00     0.275 A 
HETATM   10  N   UNL     1       4.478  32.654  51.602  1.00  0.00    -0.055 NA
HETATM   11  H   UNL     1       3.602  31.550  53.836  1.00  0.00     0.178 HD
ENDROOT
BRANCH   1  12
HETATM   12  C   UNL     1       5.357  27.318  52.976  1.00  0.00     0.230 C 
HETATM   13  N   UNL     1       6.618  26.800  53.229  1.00  0.00    -0.326 N 
HETATM   14  H   UNL     1       7.371  27.463  53.347  1.00  0.00     0.169 HD
HETATM   15  O   UNL     1       4.311  26.682  52.901  1.00  0.00    -0.273 OA
BRANCH  13  16
HETATM   16  C   UNL     1       6.978  25.441  53.406  1.00  0.00     0.040 A 
HETATM   17  C   UNL     1       6.779  24.844  54.670  1.00  0.00    -0.035 A 
HETATM   18  C   UNL     1       7.122  23.491  54.861  1.00  0.00     0.015 A 
HETATM   19  C   UNL     1       6.201  25.597  55.840  1.00  0.00     0.050 C 
HETATM   20  C   UNL     1       7.673  22.728  53.828  1.00  0.00    -0.061 A 
HETATM   21  C   UNL     1       8.001  21.279  54.030  1.00  0.00     0.048 C 
HETATM   22  C   UNL     1       7.864  23.326  52.583  1.00  0.00     0.009 A 
HETATM   23  C   UNL     1       7.526  24.667  52.378  1.00  0.00     0.030 A 
ENDBRANCH  13  16
ENDBRANCH   1  12
BRANCH   2  24
HETATM   24  C   UNL     1       4.565  28.414  50.286  1.00  0.00    -0.032 A 
HETATM   25  C   UNL     1       3.214  28.665  50.020  1.00  0.00     0.012 A 
HETATM   26  C   UNL     1       2.514  27.898  49.082  1.00  0.00     0.037 A 
HETATM   27  C   UNL     1       3.142  26.875  48.373  1.00  0.00     0.068 A 
HETATM   28  C   UNL     1       4.490  26.625  48.610  1.00  0.00     0.037 A 
HETATM   29  C   UNL     1       5.190  27.386  49.553  1.00  0.00     0.012 A 
BRANCH  27  30
HETATM   30  O   UNL     1       2.340  26.210  47.489  1.00  0.00    -0.356 OA
HETATM   31  C   UNL     1       1.304  26.962  46.871  1.00  0.00     0.210 C 
ENDBRANCH  27  30
ENDBRANCH   2  24
TORSDOF 4
ENDMDL
MODEL 6
REMARK VINA RESULT:      -8.1      5.311      9.207
REMARK  4 active torsions:
REMARK  status: ('A' for Active; 'I' for Inactive)
REMARK    1  A    between atoms: C_6  and  N_7 
REMARK       I    between atoms: N_7  and  C_8 
REMARK    2  A    between atoms: C_8  and  C_9 
REMARK    3  A    between atoms: C_10  and  C_11 
REMARK    4  A    between atoms: C_14  and  O_15 
ROOT
HETATM    1  C   UNL     1       7.266  30.493  58.731  1.00  0.00     0.131 C 
HETATM    2  C   UNL     1       5.832  30.523  58.139  1.00  0.00     0.177 C 
HETATM    3  N   UNL     1       5.774  29.702  56.934  1.00  0.00    -0.088 N 
HETATM    4  C   UNL     1       6.859  29.304  56.206  1.00  0.00     0.721 A 
HETATM    5  N   UNL     1       8.112  29.607  56.587  1.00  0.00    -0.218 N 
HETATM    6  C   UNL     1       8.364  30.586  57.642  1.00  0.00     0.111 C 
HETATM    7  C   UNL     1       9.757  30.280  58.212  1.00  0.00     0.034 C 
HETATM    8  N   UNL     1       4.636  29.151  56.464  1.00  0.00    -0.149 NA
HETATM    9  C   UNL     1       5.102  28.520  55.380  1.00  0.00     0.275 A 
HETATM   10  N   UNL     1       6.456  28.586  55.191  1.00  0.00    -0.055 NA
HETATM   11  H   UNL     1       8.843  29.474  55.890  1.00  0.00     0.178 HD
ENDROOT
BRANCH   1  12
HETATM   12  C   UNL     1       7.430  31.546  59.818  1.00  0.00     0.230 C 
HETATM   13  N   UNL     1       6.940  31.131  61.047  1.00  0.00    -0.326 N 
HETATM   14  H   UNL     1       6.616  30.177  61.113  1.00  0.00     0.169 HD
HETATM   15  O   UNL     1       7.952  32.629  59.571  1.00  0.00    -0.273 OA
BRANCH  13  16
HETATM   16  C   UNL     1       6.892  31.869  62.257  1.00  0.00     0.040 A 
HETATM   17  C   UNL     1       5.632  32.185  62.811  1.00  0.00    -0.035 A 
HETATM   18  C   UNL     1       5.567  32.908  64.018  1.00  0.00     0.015 A 
HETATM   19  C   UNL     1       4.336  31.771  62.165  1.00  0.00     0.050 C 
HETATM   20  C   UNL     1       6.725  33.336  64.673  1.00  0.00    -0.061 A 
HETATM   21  C   UNL     1       6.646  34.073  65.976  1.00  0.00     0.048 C 
HETATM   22  C   UNL     1       7.964  33.018  64.118  1.00  0.00     0.009 A 
HETATM   23  C   UNL     1       8.045  32.299  62.922  1.00  0.00     0.030 A 
ENDBRANCH  13  16
ENDBRANCH   1  12
BRANCH   2  24
HETATM   24  C   UNL     1       5.143  31.862  57.885  1.00  0.00    -0.032 A 
HETATM   25  C   UNL     1       5.388  32.671  56.769  1.00  0.00     0.012 A 
HETATM   26  C   UNL     1       4.712  33.885  56.601  1.00  0.00     0.037 A 
HETATM   27  C   UNL     1       3.766  34.317  57.529  1.00  0.00     0.068 A 
HETATM   28  C   UNL     1       3.495  33.516  58.634  1.00  0.00     0.037 A 
HETATM   29  C   UNL     1       4.176  32.305  58.807  1.00  0.00     0.012 A 
BRANCH  27  30
HETATM   30  O   UNL     1       3.182  35.519  57.239  1.00  0.00    -0.356 OA
HETATM   31  C   UNL     1       1.792  35.639  57.511  1.00  0.00     0.210 C 
ENDBRANCH  27  30
ENDBRANCH   2  24
TORSDOF 4
ENDMDL
MODEL 7
REMARK VINA RESULT:      -7.9      2.176      4.907
REMARK  4 active torsions:
REMARK  status: ('A' for Active; 'I' for Inactive)
REMARK    1  A    between atoms: C_6  and  N_7 
REMARK       I    between atoms: N_7  and  C_8 
REMARK    2  A    between atoms: C_8  and  C_9 
REMARK    3  A    between atoms: C_10  and  C_11 
REMARK    4  A    between atoms: C_14  and  O_15 
ROOT
HETATM    1  C   UNL     1       5.711  28.867  55.208  1.00  0.00     0.131 C 
HETATM    2  C   UNL     1       5.148  29.801  54.105  1.00  0.00     0.177 C 
HETATM    3  N   UNL     1       4.082  30.633  54.653  1.00  0.00    -0.088 N 
HETATM    4  C   UNL     1       3.402  30.372  55.809  1.00  0.00     0.721 A 
HETATM    5  N   UNL     1       3.710  29.318  56.584  1.00  0.00    -0.218 N 
HETATM    6  C   UNL     1       4.600  28.263  56.104  1.00  0.00     0.111 C 
HETATM    7  C   UNL     1       5.185  27.573  57.346  1.00  0.00     0.034 C 
HETATM    8  N   UNL     1       3.721  31.822  54.127  1.00  0.00    -0.149 NA
HETATM    9  C   UNL     1       2.736  32.169  54.964  1.00  0.00     0.275 A 
HETATM   10  N   UNL     1       2.515  31.312  56.007  1.00  0.00    -0.055 NA
HETATM   11  H   UNL     1       3.028  29.064  57.296  1.00  0.00     0.178 HD
ENDROOT
BRANCH   1  12
HETATM   12  C   UNL     1       6.623  27.805  54.611  1.00  0.00     0.230 C 
HETATM   13  N   UNL     1       6.132  26.519  54.778  1.00  0.00    -0.326 N 
HETATM   14  H   UNL     1       5.212  26.428  55.185  1.00  0.00     0.169 HD
HETATM   15  O   UNL     1       7.669  28.117  54.052  1.00  0.00    -0.273 OA
BRANCH  13  16
HETATM   16  C   UNL     1       6.740  25.300  54.386  1.00  0.00     0.040 A 
HETATM   17  C   UNL     1       6.341  24.701  53.171  1.00  0.00    -0.035 A 
HETATM   18  C   UNL     1       6.943  23.495  52.761  1.00  0.00     0.015 A 
HETATM   19  C   UNL     1       5.292  25.305  52.275  1.00  0.00     0.050 C 
HETATM   20  C   UNL     1       7.917  22.866  53.542  1.00  0.00    -0.061 A 
HETATM   21  C   UNL     1       8.578  21.602  53.081  1.00  0.00     0.048 C 
HETATM   22  C   UNL     1       8.305  23.467  54.739  1.00  0.00     0.009 A 
HETATM   23  C   UNL     1       7.719  24.665  55.158  1.00  0.00     0.030 A 
ENDBRANCH  13  16
ENDBRANCH   1  12
BRANCH   2  24
HETATM   24  C   UNL     1       4.707  29.214  52.766  1.00  0.00    -0.032 A 
HETATM   25  C   UNL     1       3.451  28.640  52.536  1.00  0.00     0.012 A 
HETATM   26  C   UNL     1       3.116  28.127  51.278  1.00  0.00     0.037 A 
HETATM   27  C   UNL     1       4.014  28.186  50.213  1.00  0.00     0.068 A 
HETATM   28  C   UNL     1       5.260  28.771  50.418  1.00  0.00     0.037 A 
HETATM   29  C   UNL     1       5.599  29.278  51.678  1.00  0.00     0.012 A 
BRANCH  27  30
HETATM   30  O   UNL     1       3.555  27.650  49.043  1.00  0.00    -0.356 OA
HETATM   31  C   UNL     1       4.494  26.929  48.255  1.00  0.00     0.210 C 
ENDBRANCH  27  30
ENDBRANCH   2  24
TORSDOF 4
ENDMDL
MODEL 8
REMARK VINA RESULT:      -7.8      7.373     11.194
REMARK  4 active torsions:
REMARK  status: ('A' for Active; 'I' for Inactive)
REMARK    1  A    between atoms: C_6  and  N_7 
REMARK       I    between atoms: N_7  and  C_8 
REMARK    2  A    between atoms: C_8  and  C_9 
REMARK    3  A    between atoms: C_10  and  C_11 
REMARK    4  A    between atoms: C_14  and  O_15 
ROOT
HETATM    1  C   UNL     1       5.544  32.210  60.480  1.00  0.00     0.131 C 
HETATM    2  C   UNL     1       4.114  32.245  59.878  1.00  0.00     0.177 C 
HETATM    3  N   UNL     1       4.091  31.529  58.607  1.00  0.00    -0.088 N 
HETATM    4  C   UNL     1       5.194  31.231  57.858  1.00  0.00     0.721 A 
HETATM    5  N   UNL     1       6.433  31.539  58.276  1.00  0.00    -0.218 N 
HETATM    6  C   UNL     1       6.646  32.431  59.414  1.00  0.00     0.111 C 
HETATM    7  C   UNL     1       8.044  32.121  59.970  1.00  0.00     0.034 C 
HETATM    8  N   UNL     1       2.975  30.985  58.080  1.00  0.00    -0.149 NA
HETATM    9  C   UNL     1       3.468  30.465  56.950  1.00  0.00     0.275 A 
HETATM   10  N   UNL     1       4.821  30.589  56.782  1.00  0.00    -0.055 NA
HETATM   11  H   UNL     1       7.173  31.490  57.578  1.00  0.00     0.178 HD
ENDROOT
BRANCH   1  12
HETATM   12  C   UNL     1       5.665  33.170  61.655  1.00  0.00     0.230 C 
HETATM   13  N   UNL     1       5.479  32.548  62.880  1.00  0.00    -0.326 N 
HETATM   14  H   UNL     1       5.373  31.543  62.873  1.00  0.00     0.169 HD
HETATM   15  O   UNL     1       5.907  34.359  61.473  1.00  0.00    -0.273 OA
BRANCH  13  16
HETATM   16  C   UNL     1       5.482  33.144  64.166  1.00  0.00     0.040 A 
HETATM   17  C   UNL     1       6.719  33.378  64.805  1.00  0.00    -0.035 A 
HETATM   18  C   UNL     1       6.741  33.979  66.078  1.00  0.00     0.015 A 
HETATM   19  C   UNL     1       8.038  33.016  64.174  1.00  0.00     0.050 C 
HETATM   20  C   UNL     1       5.558  34.334  66.734  1.00  0.00    -0.061 A 
HETATM   21  C   UNL     1       5.592  35.007  68.074  1.00  0.00     0.048 C 
HETATM   22  C   UNL     1       4.342  34.101  66.095  1.00  0.00     0.009 A 
HETATM   23  C   UNL     1       4.305  33.507  64.829  1.00  0.00     0.030 A 
ENDBRANCH  13  16
ENDBRANCH   1  12
BRANCH   2  24
HETATM   24  C   UNL     1       3.384  33.579  59.733  1.00  0.00    -0.032 A 
HETATM   25  C   UNL     1       3.657  34.517  58.731  1.00  0.00     0.012 A 
HETATM   26  C   UNL     1       2.940  35.717  58.659  1.00  0.00     0.037 A 
HETATM   27  C   UNL     1       1.925  36.007  59.569  1.00  0.00     0.068 A 
HETATM   28  C   UNL     1       1.626  35.076  60.559  1.00  0.00     0.037 A 
HETATM   29  C   UNL     1       2.347  33.879  60.638  1.00  0.00     0.012 A 
BRANCH  27  30
HETATM   30  O   UNL     1       1.308  37.212  59.379  1.00  0.00    -0.356 OA
HETATM   31  C   UNL     1       2.116  38.374  59.507  1.00  0.00     0.210 C 
ENDBRANCH  27  30
ENDBRANCH   2  24
TORSDOF 4
ENDMDL
MODEL 9
REMARK VINA RESULT:      -7.7      2.840      6.256
REMARK  4 active torsions:
REMARK  status: ('A' for Active; 'I' for Inactive)
REMARK    1  A    between atoms: C_6  and  N_7 
REMARK       I    between atoms: N_7  and  C_8 
REMARK    2  A    between atoms: C_8  and  C_9 
REMARK    3  A    between atoms: C_10  and  C_11 
REMARK    4  A    between atoms: C_14  and  O_15 
ROOT
HETATM    1  C   UNL     1       6.513  26.951  54.076  1.00  0.00     0.131 C 
HETATM    2  C   UNL     1       6.676  28.388  54.636  1.00  0.00     0.177 C 
HETATM    3  N   UNL     1       7.570  28.375  55.789  1.00  0.00    -0.088 N 
HETATM    4  C   UNL     1       7.891  27.264  56.517  1.00  0.00     0.721 A 
HETATM    5  N   UNL     1       7.431  26.047  56.183  1.00  0.00    -0.218 N 
HETATM    6  C   UNL     1       6.368  25.887  55.193  1.00  0.00     0.111 C 
HETATM    7  C   UNL     1       6.485  24.460  54.637  1.00  0.00     0.034 C 
HETATM    8  N   UNL     1       8.269  29.453  56.200  1.00  0.00    -0.149 NA
HETATM    9  C   UNL     1       8.911  28.938  57.255  1.00  0.00     0.275 A 
HETATM   10  N   UNL     1       8.710  27.603  57.478  1.00  0.00    -0.055 NA
HETATM   11  H   UNL     1       7.526  25.317  56.887  1.00  0.00     0.178 HD
ENDROOT
BRANCH   1  12
HETATM   12  C   UNL     1       5.383  26.886  53.057  1.00  0.00     0.230 C 
HETATM   13  N   UNL     1       5.821  27.082  51.756  1.00  0.00    -0.326 N 
HETATM   14  H   UNL     1       6.818  27.158  51.614  1.00  0.00     0.169 HD
HETATM   15  O   UNL     1       4.228  26.677  53.412  1.00  0.00    -0.273 OA
BRANCH  13  16
HETATM   16  C   UNL     1       5.039  27.128  50.575  1.00  0.00     0.040 A 
HETATM   17  C   UNL     1       4.759  28.385  49.994  1.00  0.00    -0.035 A 
HETATM   18  C   UNL     1       3.992  28.448  48.814  1.00  0.00     0.015 A 
HETATM   19  C   UNL     1       5.256  29.679  50.583  1.00  0.00     0.050 C 
HETATM   20  C   UNL     1       3.487  27.292  48.212  1.00  0.00    -0.061 A 
HETATM   21  C   UNL     1       2.703  27.367  46.937  1.00  0.00     0.048 C 
HETATM   22  C   UNL     1       3.770  26.057  48.792  1.00  0.00     0.009 A 
HETATM   23  C   UNL     1       4.532  25.977  49.963  1.00  0.00     0.030 A 
ENDBRANCH  13  16
ENDBRANCH   1  12
BRANCH   2  24
HETATM   24  C   UNL     1       5.437  29.224  54.954  1.00  0.00    -0.032 A 
HETATM   25  C   UNL     1       4.845  30.120  54.056  1.00  0.00     0.012 A 
HETATM   26  C   UNL     1       3.705  30.848  54.418  1.00  0.00     0.037 A 
HETATM   27  C   UNL     1       3.117  30.692  55.672  1.00  0.00     0.068 A 
HETATM   28  C   UNL     1       3.681  29.790  56.569  1.00  0.00     0.037 A 
HETATM   29  C   UNL     1       4.825  29.067  56.212  1.00  0.00     0.012 A 
BRANCH  27  30
HETATM   30  O   UNL     1       2.010  31.463  55.889  1.00  0.00    -0.356 OA
HETATM   31  C   UNL     1       1.833  32.587  55.037  1.00  0.00     0.210 C 
ENDBRANCH  27  30
ENDBRANCH   2  24
TORSDOF 4
ENDMDL
MODEL 10
REMARK VINA RESULT:      -7.4      3.028      6.238
REMARK  4 active torsions:
REMARK  status: ('A' for Active; 'I' for Inactive)
REMARK    1  A    between atoms: C_6  and  N_7 
REMARK       I    between atoms: N_7  and  C_8 
REMARK    2  A    between atoms: C_8  and  C_9 
REMARK    3  A    between atoms: C_10  and  C_11 
REMARK    4  A    between atoms: C_14  and  O_15 
ROOT
HETATM    1  C   UNL     1       6.344  27.796  54.940  1.00  0.00     0.131 C 
HETATM    2  C   UNL     1       6.337  29.257  55.462  1.00  0.00     0.177 C 
HETATM    3  N   UNL     1       7.039  29.333  56.739  1.00  0.00    -0.088 N 
HETATM    4  C   UNL     1       7.302  28.266  57.551  1.00  0.00     0.721 A 
HETATM    5  N   UNL     1       6.968  27.013  57.197  1.00  0.00    -0.218 N 
HETATM    6  C   UNL     1       6.084  26.760  56.062  1.00  0.00     0.111 C 
HETATM    7  C   UNL     1       6.366  25.327  55.587  1.00  0.00     0.034 C 
HETATM    8  N   UNL     1       7.604  30.463  57.211  1.00  0.00    -0.149 NA
HETATM    9  C   UNL     1       8.100  30.020  58.372  1.00  0.00     0.275 A 
HETATM   10  N   UNL     1       7.941  28.682  58.613  1.00  0.00    -0.055 NA
HETATM   11  H   UNL     1       6.992  26.312  57.936  1.00  0.00     0.178 HD
ENDROOT
BRANCH   1  12
HETATM   12  C   UNL     1       5.394  27.633  53.761  1.00  0.00     0.230 C 
HETATM   13  N   UNL     1       6.042  27.687  52.537  1.00  0.00    -0.326 N 
HETATM   14  H   UNL     1       7.050  27.740  52.553  1.00  0.00     0.169 HD
HETATM   15  O   UNL     1       4.191  27.471  53.942  1.00  0.00    -0.273 OA
BRANCH  13  16
HETATM   16  C   UNL     1       5.463  27.614  51.245  1.00  0.00     0.040 A 
HETATM   17  C   UNL     1       5.050  26.356  50.755  1.00  0.00    -0.035 A 
HETATM   18  C   UNL     1       4.464  26.266  49.477  1.00  0.00     0.015 A 
HETATM   19  C   UNL     1       5.203  25.086  51.551  1.00  0.00     0.050 C 
HETATM   20  C   UNL     1       4.297  27.398  48.673  1.00  0.00    -0.061 A 
HETATM   21  C   UNL     1       3.639  27.299  47.330  1.00  0.00     0.048 C 
HETATM   22  C   UNL     1       4.707  28.636  49.167  1.00  0.00     0.009 A 
HETATM   23  C   UNL     1       5.289  28.741  50.434  1.00  0.00     0.030 A 
ENDBRANCH  13  16
ENDBRANCH   1  12
BRANCH   2  24
HETATM   24  C   UNL     1       5.020  30.026  55.551  1.00  0.00    -0.032 A 
HETATM   25  C   UNL     1       4.145  29.960  56.642  1.00  0.00     0.012 A 
HETATM   26  C   UNL     1       2.957  30.699  56.653  1.00  0.00     0.037 A 
HETATM   27  C   UNL     1       2.617  31.534  55.590  1.00  0.00     0.068 A 
HETATM   28  C   UNL     1       3.484  31.627  54.506  1.00  0.00     0.037 A 
HETATM   29  C   UNL     1       4.669  30.883  54.490  1.00  0.00     0.012 A 
BRANCH  27  30
HETATM   30  O   UNL     1       1.430  32.197  55.735  1.00  0.00    -0.356 OA
HETATM   31  C   UNL     1       1.335  33.482  55.134  1.00  0.00     0.210 C 
ENDBRANCH  27  30
ENDBRANCH   2  24
TORSDOF 4
ENDMDL
