MODEL 1
REMARK VINA RESULT:      -8.4      0.000      0.000
REMARK  2 active torsions:
REMARK  status: ('A' for Active; 'I' for Inactive)
REMARK    1  A    between atoms: S_2  and  N_3 
REMARK    2  A    between atoms: C_10  and  N_11 
ROOT
HETATM    1  N   UNL     1       6.970  26.643  57.381  1.00  0.00    -0.311 N 
HETATM    2  C   UNL     1       5.768  25.787  57.400  1.00  0.00     0.138 C 
HETATM    3  C   UNL     1       5.392  25.418  55.973  1.00  0.00     0.059 C 
HETATM    4  C   UNL     1       6.551  24.726  55.214  1.00  0.00     0.073 C 
HETATM    5  O   UNL     1       6.740  23.440  55.828  1.00  0.00    -0.339 OA
HETATM    6  C   UNL     1       7.412  22.491  55.110  1.00  0.00     0.078 A 
HETATM    7  C   UNL     1       7.582  22.535  53.723  1.00  0.00     0.005 A 
HETATM    8  C   UNL     1       7.011  23.662  52.920  1.00  0.00     0.222 C 
HETATM    9  C   UNL     1       6.096  24.555  53.750  1.00  0.00     0.076 C 
HETATM   10  C   UNL     1       7.912  21.422  55.853  1.00  0.00     0.037 A 
HETATM   11  C   UNL     1       8.605  20.393  55.220  1.00  0.00     0.003 A 
HETATM   12  C   UNL     1       8.786  20.424  53.840  1.00  0.00     0.001 A 
HETATM   13  C   UNL     1       8.273  21.485  53.092  1.00  0.00     0.012 A 
HETATM   14  C   UNL     1       7.857  25.542  55.360  1.00  0.00     0.059 C 
HETATM   15  C   UNL     1       8.142  25.960  56.807  1.00  0.00     0.138 C 
ENDROOT
BRANCH   8  16
HETATM   16  N   UNL     1       8.070  24.480  52.267  1.00  0.00    -0.071 N 
HETATM   17  H   UNL     1       7.682  25.165  51.609  1.00  0.00     0.275 HD
HETATM   18  H   UNL     1       8.593  25.018  52.970  1.00  0.00     0.275 HD
HETATM   19  H   UNL     1       8.751  23.899  51.761  1.00  0.00     0.275 HD
ENDBRANCH   8  16
BRANCH   1  20
HETATM   20  S   UNL     1       6.774  28.302  57.083  1.00  0.00     0.224 S 
HETATM   21  C   UNL     1       7.944  28.997  58.230  1.00  0.00     0.186 C 
HETATM   22  O   UNL     1       5.446  28.686  57.505  1.00  0.00    -0.206 OA
HETATM   23  O   UNL     1       7.229  28.554  55.731  1.00  0.00    -0.206 OA
ENDBRANCH   1  20
TORSDOF 2
ENDMDL
MODEL 2
REMARK VINA RESULT:      -7.9      2.478      3.668
REMARK  2 active torsions:
REMARK  status: ('A' for Active; 'I' for Inactive)
REMARK    1  A    between atoms: S_2  and  N_3 
REMARK    2  A    between atoms: C_10  and  N_11 
ROOT
HETATM    1  N   UNL     1       5.213  26.395  52.682  1.00  0.00    -0.311 N 
HETATM    2  C   UNL     1       6.574  26.408  52.111  1.00  0.00     0.138 C 
HETATM    3  C   UNL     1       7.592  26.297  53.237  1.00  0.00     0.059 C 
HETATM    4  C   UNL     1       7.372  25.038  54.113  1.00  0.00     0.073 C 
HETATM    5  O   UNL     1       7.689  23.901  53.293  1.00  0.00    -0.339 OA
HETATM    6  C   UNL     1       7.960  22.722  53.928  1.00  0.00     0.078 A 
HETATM    7  C   UNL     1       8.328  22.625  55.274  1.00  0.00     0.005 A 
HETATM    8  C   UNL     1       8.456  23.853  56.119  1.00  0.00     0.222 C 
HETATM    9  C   UNL     1       8.356  25.133  55.297  1.00  0.00     0.076 C 
HETATM   10  C   UNL     1       7.878  21.581  53.131  1.00  0.00     0.037 A 
HETATM   11  C   UNL     1       8.144  20.326  53.674  1.00  0.00     0.003 A 
HETATM   12  C   UNL     1       8.507  20.212  55.013  1.00  0.00     0.001 A 
HETATM   13  C   UNL     1       8.606  21.355  55.810  1.00  0.00     0.012 A 
HETATM   14  C   UNL     1       5.892  24.935  54.551  1.00  0.00     0.059 C 
HETATM   15  C   UNL     1       4.910  25.142  53.392  1.00  0.00     0.138 C 
ENDROOT
BRANCH   8  16
HETATM   16  N   UNL     1       7.460  23.879  57.227  1.00  0.00    -0.071 N 
HETATM   17  H   UNL     1       7.445  24.781  57.716  1.00  0.00     0.275 HD
HETATM   18  H   UNL     1       6.511  23.731  56.860  1.00  0.00     0.275 HD
HETATM   19  H   UNL     1       7.636  23.141  57.922  1.00  0.00     0.275 HD
ENDBRANCH   8  16
BRANCH   1  20
HETATM   20  S   UNL     1       4.583  27.846  53.295  1.00  0.00     0.224 S 
HETATM   21  C   UNL     1       5.358  29.036  52.223  1.00  0.00     0.186 C 
HETATM   22  O   UNL     1       5.099  28.038  54.631  1.00  0.00    -0.206 OA
HETATM   23  O   UNL     1       3.156  27.838  53.041  1.00  0.00    -0.206 OA
ENDBRANCH   1  20
TORSDOF 2
ENDMDL
MODEL 3
REMARK VINA RESULT:      -7.2      3.374      4.430
REMARK  2 active torsions:
REMARK  status: ('A' for Active; 'I' for Inactive)
REMARK    1  A    between atoms: S_2  and  N_3 
REMARK    2  A    between atoms: C_10  and  N_11 
ROOT
HETATM    1  N   UNL     1       5.451  28.601  52.669  1.00  0.00    -0.311 N 
HETATM    2  C   UNL     1       4.383  27.949  53.452  1.00  0.00     0.138 C 
HETATM    3  C   UNL     1       4.479  26.441  53.273  1.00  0.00     0.059 C 
HETATM    4  C   UNL     1       5.870  25.884  53.665  1.00  0.00     0.073 C 
HETATM    5  O   UNL     1       5.992  26.036  55.089  1.00  0.00    -0.339 OA
HETATM    6  C   UNL     1       6.933  25.275  55.725  1.00  0.00     0.078 A 
HETATM    7  C   UNL     1       7.496  24.115  55.185  1.00  0.00     0.005 A 
HETATM    8  C   UNL     1       7.080  23.623  53.835  1.00  0.00     0.222 C 
HETATM    9  C   UNL     1       5.882  24.389  53.285  1.00  0.00     0.076 C 
HETATM   10  C   UNL     1       7.292  25.713  56.999  1.00  0.00     0.037 A 
HETATM   11  C   UNL     1       8.235  25.006  57.742  1.00  0.00     0.003 A 
HETATM   12  C   UNL     1       8.809  23.852  57.217  1.00  0.00     0.001 A 
HETATM   13  C   UNL     1       8.439  23.403  55.948  1.00  0.00     0.012 A 
HETATM   14  C   UNL     1       6.992  26.700  52.981  1.00  0.00     0.059 C 
HETATM   15  C   UNL     1       6.799  28.214  53.119  1.00  0.00     0.138 C 
ENDROOT
BRANCH   8  16
HETATM   16  N   UNL     1       8.202  23.657  52.854  1.00  0.00    -0.071 N 
HETATM   17  H   UNL     1       8.873  24.406  53.056  1.00  0.00     0.275 HD
HETATM   18  H   UNL     1       8.731  22.777  52.885  1.00  0.00     0.275 HD
HETATM   19  H   UNL     1       7.868  23.778  51.889  1.00  0.00     0.275 HD
ENDBRANCH   8  16
BRANCH   1  20
HETATM   20  S   UNL     1       5.193  28.857  51.012  1.00  0.00     0.224 S 
HETATM   21  C   UNL     1       3.472  29.307  50.999  1.00  0.00     0.186 C 
HETATM   22  O   UNL     1       5.334  27.591  50.328  1.00  0.00    -0.206 OA
HETATM   23  O   UNL     1       5.986  30.006  50.625  1.00  0.00    -0.206 OA
ENDBRANCH   1  20
TORSDOF 2
ENDMDL
MODEL 4
REMARK VINA RESULT:      -7.2      2.749      6.217
REMARK  2 active torsions:
REMARK  status: ('A' for Active; 'I' for Inactive)
REMARK    1  A    between atoms: S_2  and  N_3 
REMARK    2  A    between atoms: C_10  and  N_11 
ROOT
HETATM    1  N   UNL     1       8.995  22.625  54.850  1.00  0.00    -0.311 N 
HETATM    2  C   UNL     1       8.625  23.277  53.579  1.00  0.00     0.138 C 
HETATM    3  C   UNL     1       7.179  23.745  53.657  1.00  0.00     0.059 C 
HETATM    4  C   UNL     1       6.926  24.692  54.857  1.00  0.00     0.073 C 
HETATM    5  O   UNL     1       7.633  25.911  54.580  1.00  0.00    -0.339 OA
HETATM    6  C   UNL     1       7.256  27.029  55.270  1.00  0.00     0.078 A 
HETATM    7  C   UNL     1       6.022  27.172  55.913  1.00  0.00     0.005 A 
HETATM    8  C   UNL     1       5.010  26.070  55.873  1.00  0.00     0.222 C 
HETATM    9  C   UNL     1       5.407  24.956  54.911  1.00  0.00     0.076 C 
HETATM   10  C   UNL     1       8.183  28.070  55.275  1.00  0.00     0.037 A 
HETATM   11  C   UNL     1       7.898  29.260  55.940  1.00  0.00     0.003 A 
HETATM   12  C   UNL     1       6.676  29.416  56.589  1.00  0.00     0.001 A 
HETATM   13  C   UNL     1       5.738  28.381  56.572  1.00  0.00     0.012 A 
HETATM   14  C   UNL     1       7.489  24.076  56.159  1.00  0.00     0.059 C 
HETATM   15  C   UNL     1       8.917  23.543  55.999  1.00  0.00     0.138 C 
ENDROOT
BRANCH   8  16
HETATM   16  N   UNL     1       4.740  25.506  57.225  1.00  0.00    -0.071 N 
HETATM   17  H   UNL     1       3.757  25.608  57.500  1.00  0.00     0.275 HD
HETATM   18  H   UNL     1       4.942  24.498  57.240  1.00  0.00     0.275 HD
HETATM   19  H   UNL     1       5.322  25.944  57.951  1.00  0.00     0.275 HD
ENDBRANCH   8  16
BRANCH   1  20
HETATM   20  S   UNL     1       8.560  21.002  55.080  1.00  0.00     0.224 S 
HETATM   21  C   UNL     1       8.598  20.397  53.407  1.00  0.00     0.186 C 
HETATM   22  O   UNL     1       7.191  20.958  55.545  1.00  0.00    -0.206 OA
HETATM   23  O   UNL     1       9.625  20.373  55.835  1.00  0.00    -0.206 OA
ENDBRANCH   1  20
TORSDOF 2
ENDMDL
MODEL 5
REMARK VINA RESULT:      -6.9      2.862      3.779
REMARK  2 active torsions:
REMARK  status: ('A' for Active; 'I' for Inactive)
REMARK    1  A    between atoms: S_2  and  N_3 
REMARK    2  A    between atoms: C_10  and  N_11 
ROOT
HETATM    1  N   UNL     1       8.663  28.991  57.784  1.00  0.00    -0.311 N 
HETATM    2  C   UNL     1       7.636  28.014  58.196  1.00  0.00     0.138 C 
HETATM    3  C   UNL     1       6.435  28.127  57.268  1.00  0.00     0.059 C 
HETATM    4  C   UNL     1       6.816  27.934  55.778  1.00  0.00     0.073 C 
HETATM    5  O   UNL     1       7.201  26.558  55.623  1.00  0.00    -0.339 OA
HETATM    6  C   UNL     1       7.196  26.042  54.357  1.00  0.00     0.078 A 
HETATM    7  C   UNL     1       6.493  26.604  53.287  1.00  0.00     0.005 A 
HETATM    8  C   UNL     1       5.675  27.842  53.478  1.00  0.00     0.222 C 
HETATM    9  C   UNL     1       5.551  28.231  54.947  1.00  0.00     0.076 C 
HETATM   10  C   UNL     1       7.927  24.867  54.188  1.00  0.00     0.037 A 
HETATM   11  C   UNL     1       7.981  24.249  52.941  1.00  0.00     0.003 A 
HETATM   12  C   UNL     1       7.290  24.797  51.864  1.00  0.00     0.001 A 
HETATM   13  C   UNL     1       6.544  25.966  52.035  1.00  0.00     0.012 A 
HETATM   14  C   UNL     1       8.020  28.832  55.408  1.00  0.00     0.059 C 
HETATM   15  C   UNL     1       9.165  28.744  56.422  1.00  0.00     0.138 C 
ENDROOT
BRANCH   8  16
HETATM   16  N   UNL     1       6.200  28.990  52.687  1.00  0.00    -0.071 N 
HETATM   17  H   UNL     1       5.654  29.158  51.835  1.00  0.00     0.275 HD
HETATM   18  H   UNL     1       6.152  29.857  53.238  1.00  0.00     0.275 HD
HETATM   19  H   UNL     1       7.183  28.856  52.416  1.00  0.00     0.275 HD
ENDBRANCH   8  16
BRANCH   1  20
HETATM   20  S   UNL     1       8.502  30.596  58.308  1.00  0.00     0.224 S 
HETATM   21  C   UNL     1       8.454  30.377  60.074  1.00  0.00     0.186 C 
HETATM   22  O   UNL     1       7.212  31.089  57.880  1.00  0.00    -0.206 OA
HETATM   23  O   UNL     1       9.723  31.291  57.950  1.00  0.00    -0.206 OA
ENDBRANCH   1  20
TORSDOF 2
ENDMDL
MODEL 6
REMARK VINA RESULT:      -6.9      7.733     10.469
REMARK  2 active torsions:
REMARK  status: ('A' for Active; 'I' for Inactive)
REMARK    1  A    between atoms: S_2  and  N_3 
REMARK    2  A    between atoms: C_10  and  N_11 
ROOT
HETATM    1  N   UNL     1       3.896  33.832  62.638  1.00  0.00    -0.311 N 
HETATM    2  C   UNL     1       4.745  34.773  61.880  1.00  0.00     0.138 C 
HETATM    3  C   UNL     1       6.208  34.409  62.090  1.00  0.00     0.059 C 
HETATM    4  C   UNL     1       6.517  32.943  61.694  1.00  0.00     0.073 C 
HETATM    5  O   UNL     1       6.378  32.860  60.266  1.00  0.00    -0.339 OA
HETATM    6  C   UNL     1       6.973  31.805  59.635  1.00  0.00     0.078 A 
HETATM    7  C   UNL     1       8.002  31.040  60.192  1.00  0.00     0.005 A 
HETATM    8  C   UNL     1       8.530  31.352  61.557  1.00  0.00     0.222 C 
HETATM    9  C   UNL     1       7.978  32.663  62.104  1.00  0.00     0.076 C 
HETATM   10  C   UNL     1       6.507  31.538  58.348  1.00  0.00     0.037 A 
HETATM   11  C   UNL     1       7.051  30.489  57.609  1.00  0.00     0.003 A 
HETATM   12  C   UNL     1       8.073  29.716  58.152  1.00  0.00     0.001 A 
HETATM   13  C   UNL     1       8.553  29.991  59.434  1.00  0.00     0.012 A 
HETATM   14  C   UNL     1       5.500  31.980  62.349  1.00  0.00     0.059 C 
HETATM   15  C   UNL     1       4.048  32.441  62.181  1.00  0.00     0.138 C 
ENDROOT
BRANCH   8  16
HETATM   16  N   UNL     1       8.276  30.247  62.524  1.00  0.00    -0.071 N 
HETATM   17  H   UNL     1       7.566  29.588  62.185  1.00  0.00     0.275 HD
HETATM   18  H   UNL     1       9.132  29.699  62.676  1.00  0.00     0.275 HD
HETATM   19  H   UNL     1       7.974  30.599  63.442  1.00  0.00     0.275 HD
ENDBRANCH   8  16
BRANCH   1  20
HETATM   20  S   UNL     1       3.654  34.120  64.292  1.00  0.00     0.224 S 
HETATM   21  C   UNL     1       4.074  35.845  64.405  1.00  0.00     0.186 C 
HETATM   22  O   UNL     1       4.639  33.366  65.035  1.00  0.00    -0.206 OA
HETATM   23  O   UNL     1       2.238  33.958  64.555  1.00  0.00    -0.206 OA
ENDBRANCH   1  20
TORSDOF 2
ENDMDL
MODEL 7
REMARK VINA RESULT:      -6.8     12.002     13.574
REMARK  2 active torsions:
REMARK  status: ('A' for Active; 'I' for Inactive)
REMARK    1  A    between atoms: S_2  and  N_3 
REMARK    2  A    between atoms: C_10  and  N_11 
ROOT
HETATM    1  N   UNL     1       2.688  35.051  59.426  1.00  0.00    -0.311 N 
HETATM    2  C   UNL     1       3.925  35.829  59.219  1.00  0.00     0.138 C 
HETATM    3  C   UNL     1       4.192  36.682  60.451  1.00  0.00     0.059 C 
HETATM    4  C   UNL     1       4.280  35.840  61.748  1.00  0.00     0.073 C 
HETATM    5  O   UNL     1       5.476  35.050  61.651  1.00  0.00    -0.339 OA
HETATM    6  C   UNL     1       5.986  34.534  62.809  1.00  0.00     0.078 A 
HETATM    7  C   UNL     1       5.677  35.019  64.084  1.00  0.00     0.005 A 
HETATM    8  C   UNL     1       4.742  36.175  64.254  1.00  0.00     0.222 C 
HETATM    9  C   UNL     1       4.390  36.832  62.924  1.00  0.00     0.076 C 
HETATM   10  C   UNL     1       6.887  33.482  62.648  1.00  0.00     0.037 A 
HETATM   11  C   UNL     1       7.476  32.888  63.762  1.00  0.00     0.003 A 
HETATM   12  C   UNL     1       7.176  33.356  65.038  1.00  0.00     0.001 A 
HETATM   13  C   UNL     1       6.286  34.420  65.201  1.00  0.00     0.012 A 
HETATM   14  C   UNL     1       3.065  34.889  61.858  1.00  0.00     0.059 C 
HETATM   15  C   UNL     1       2.789  34.120  60.562  1.00  0.00     0.138 C 
ENDROOT
BRANCH   8  16
HETATM   16  N   UNL     1       3.499  35.790  64.979  1.00  0.00    -0.071 N 
HETATM   17  H   UNL     1       3.695  35.404  65.910  1.00  0.00     0.275 HD
HETATM   18  H   UNL     1       2.900  36.612  65.126  1.00  0.00     0.275 HD
HETATM   19  H   UNL     1       2.945  35.099  64.457  1.00  0.00     0.275 HD
ENDBRANCH   8  16
BRANCH   1  20
HETATM   20  S   UNL     1       1.200  35.810  59.132  1.00  0.00     0.224 S 
HETATM   21  C   UNL     1       1.057  35.614  57.369  1.00  0.00     0.186 C 
HETATM   22  O   UNL     1       1.343  37.220  59.419  1.00  0.00    -0.206 OA
HETATM   23  O   UNL     1       0.175  35.017  59.781  1.00  0.00    -0.206 OA
ENDBRANCH   1  20
TORSDOF 2
ENDMDL
MODEL 8
REMARK VINA RESULT:      -6.8      3.189      6.029
REMARK  2 active torsions:
REMARK  status: ('A' for Active; 'I' for Inactive)
REMARK    1  A    between atoms: S_2  and  N_3 
REMARK    2  A    between atoms: C_10  and  N_11 
ROOT
HETATM    1  N   UNL     1       8.477  22.363  55.526  1.00  0.00    -0.311 N 
HETATM    2  C   UNL     1       9.292  23.062  54.514  1.00  0.00     0.138 C 
HETATM    3  C   UNL     1       8.397  23.495  53.361  1.00  0.00     0.059 C 
HETATM    4  C   UNL     1       7.215  24.381  53.828  1.00  0.00     0.073 C 
HETATM    5  O   UNL     1       7.779  25.627  54.269  1.00  0.00    -0.339 OA
HETATM    6  C   UNL     1       6.942  26.705  54.349  1.00  0.00     0.078 A 
HETATM    7  C   UNL     1       5.714  26.792  53.686  1.00  0.00     0.005 A 
HETATM    8  C   UNL     1       5.237  25.672  52.816  1.00  0.00     0.222 C 
HETATM    9  C   UNL     1       6.310  24.611  52.600  1.00  0.00     0.076 C 
HETATM   10  C   UNL     1       7.404  27.764  55.129  1.00  0.00     0.037 A 
HETATM   11  C   UNL     1       6.635  28.917  55.272  1.00  0.00     0.003 A 
HETATM   12  C   UNL     1       5.409  29.017  54.621  1.00  0.00     0.001 A 
HETATM   13  C   UNL     1       4.950  27.964  53.827  1.00  0.00     0.012 A 
HETATM   14  C   UNL     1       6.481  23.720  55.018  1.00  0.00     0.059 C 
HETATM   15  C   UNL     1       7.436  23.226  56.110  1.00  0.00     0.138 C 
ENDROOT
BRANCH   8  16
HETATM   16  N   UNL     1       3.993  25.042  53.343  1.00  0.00    -0.071 N 
HETATM   17  H   UNL     1       3.613  24.336  52.702  1.00  0.00     0.275 HD
HETATM   18  H   UNL     1       4.185  24.556  54.228  1.00  0.00     0.275 HD
HETATM   19  H   UNL     1       3.257  25.735  53.529  1.00  0.00     0.275 HD
ENDBRANCH   8  16
BRANCH   1  20
HETATM   20  S   UNL     1       8.123  20.722  55.282  1.00  0.00     0.224 S 
HETATM   21  C   UNL     1       9.630  19.960  55.844  1.00  0.00     0.186 C 
HETATM   22  O   UNL     1       8.003  20.488  53.860  1.00  0.00    -0.206 OA
HETATM   23  O   UNL     1       7.049  20.372  56.189  1.00  0.00    -0.206 OA
ENDBRANCH   1  20
TORSDOF 2
ENDMDL
MODEL 9
REMARK VINA RESULT:      -6.7      3.223      6.956
REMARK  2 active torsions:
REMARK  status: ('A' for Active; 'I' for Inactive)
REMARK    1  A    between atoms: S_2  and  N_3 
REMARK    2  A    between atoms: C_10  and  N_11 
ROOT
HETATM    1  N   UNL     1       7.494  25.755  54.263  1.00  0.00    -0.311 N 
HETATM    2  C   UNL     1       7.862  26.972  53.513  1.00  0.00     0.138 C 
HETATM    3  C   UNL     1       6.879  28.084  53.848  1.00  0.00     0.059 C 
HETATM    4  C   UNL     1       6.807  28.374  55.369  1.00  0.00     0.073 C 
HETATM    5  O   UNL     1       8.070  28.950  55.742  1.00  0.00    -0.339 OA
HETATM    6  C   UNL     1       8.121  29.650  56.915  1.00  0.00     0.078 A 
HETATM    7  C   UNL     1       6.997  30.170  57.564  1.00  0.00     0.005 A 
HETATM    8  C   UNL     1       5.629  29.986  56.986  1.00  0.00     0.222 C 
HETATM    9  C   UNL     1       5.671  29.395  55.581  1.00  0.00     0.076 C 
HETATM   10  C   UNL     1       9.399  29.854  57.434  1.00  0.00     0.037 A 
HETATM   11  C   UNL     1       9.568  30.564  58.620  1.00  0.00     0.003 A 
HETATM   12  C   UNL     1       8.459  31.085  59.281  1.00  0.00     0.001 A 
HETATM   13  C   UNL     1       7.179  30.895  58.755  1.00  0.00     0.012 A 
HETATM   14  C   UNL     1       6.609  27.060  56.160  1.00  0.00     0.059 C 
HETATM   15  C   UNL     1       7.566  25.947  55.722  1.00  0.00     0.138 C 
ENDROOT
BRANCH   8  16
HETATM   16  N   UNL     1       4.755  29.158  57.863  1.00  0.00    -0.071 N 
HETATM   17  H   UNL     1       3.817  29.562  57.970  1.00  0.00     0.275 HD
HETATM   18  H   UNL     1       4.623  28.223  57.458  1.00  0.00     0.275 HD
HETATM   19  H   UNL     1       5.157  29.030  58.800  1.00  0.00     0.275 HD
ENDBRANCH   8  16
BRANCH   1  20
HETATM   20  S   UNL     1       6.270  24.762  53.638  1.00  0.00     0.224 S 
HETATM   21  C   UNL     1       6.322  25.199  51.914  1.00  0.00     0.186 C 
HETATM   22  O   UNL     1       5.004  25.204  54.177  1.00  0.00    -0.206 OA
HETATM   23  O   UNL     1       6.708  23.389  53.791  1.00  0.00    -0.206 OA
ENDBRANCH   1  20
TORSDOF 2
ENDMDL
MODEL 10
REMARK VINA RESULT:      -6.3      9.512     11.544
REMARK  2 active torsions:
REMARK  status: ('A' for Active; 'I' for Inactive)
REMARK    1  A    between atoms: S_2  and  N_3 
REMARK    2  A    between atoms: C_10  and  N_11 
ROOT
HETATM    1  N   UNL     1       5.522  34.898  64.778  1.00  0.00    -0.311 N 
HETATM    2  C   UNL     1       5.614  33.457  65.086  1.00  0.00     0.138 C 
HETATM    3  C   UNL     1       5.014  32.659  63.937  1.00  0.00     0.059 C 
HETATM    4  C   UNL     1       5.686  32.977  62.578  1.00  0.00     0.073 C 
HETATM    5  O   UNL     1       7.026  32.463  62.647  1.00  0.00    -0.339 OA
HETATM    6  C   UNL     1       7.685  32.259  61.467  1.00  0.00     0.078 A 
HETATM    7  C   UNL     1       7.048  32.140  60.228  1.00  0.00     0.005 A 
HETATM    8  C   UNL     1       5.558  32.226  60.124  1.00  0.00     0.222 C 
HETATM    9  C   UNL     1       4.884  32.232  61.492  1.00  0.00     0.076 C 
HETATM   10  C   UNL     1       9.070  32.142  61.569  1.00  0.00     0.037 A 
HETATM   11  C   UNL     1       9.840  31.922  60.428  1.00  0.00     0.003 A 
HETATM   12  C   UNL     1       9.222  31.805  59.186  1.00  0.00     0.001 A 
HETATM   13  C   UNL     1       7.833  31.907  59.084  1.00  0.00     0.012 A 
HETATM   14  C   UNL     1       5.752  34.506  62.353  1.00  0.00     0.059 C 
HETATM   15  C   UNL     1       6.283  35.268  63.572  1.00  0.00     0.138 C 
ENDROOT
BRANCH   8  16
HETATM   16  N   UNL     1       5.117  33.407  59.331  1.00  0.00    -0.071 N 
HETATM   17  H   UNL     1       4.202  33.261  58.891  1.00  0.00     0.275 HD
HETATM   18  H   UNL     1       5.018  34.230  59.939  1.00  0.00     0.275 HD
HETATM   19  H   UNL     1       5.791  33.653  58.595  1.00  0.00     0.275 HD
ENDBRANCH   8  16
BRANCH   1  20
HETATM   20  S   UNL     1       4.058  35.696  65.087  1.00  0.00     0.224 S 
HETATM   21  C   UNL     1       4.346  36.317  66.729  1.00  0.00     0.186 C 
HETATM   22  O   UNL     1       3.006  34.706  65.157  1.00  0.00    -0.206 OA
HETATM   23  O   UNL     1       3.972  36.812  64.166  1.00  0.00    -0.206 OA
ENDBRANCH   1  20
TORSDOF 2
ENDMDL
