MODEL 1
REMARK VINA RESULT:      -9.8      0.000      0.000
REMARK  5 active torsions:
REMARK  status: ('A' for Active; 'I' for Inactive)
REMARK    1  A    between atoms: C_4  and  C_5 
REMARK       I    between atoms: N_6  and  C_7 
REMARK    2  A    between atoms: C_7  and  C_8 
REMARK    3  A    between atoms: C_8  and  C_9 
REMARK    4  A    between atoms: C_11  and  O_12 
REMARK    5  A    between atoms: C_14  and  O_15 
ROOT
HETATM    1  C   UNL     1       6.638  28.947  56.991  1.00  0.00     0.189 C 
HETATM    2  N   UNL     1       6.510  27.824  56.031  1.00  0.00    -0.336 N 
HETATM    3  C   UNL     1       6.348  26.549  56.543  1.00  0.00     0.225 C 
HETATM    4  O   UNL     1       6.586  26.283  57.724  1.00  0.00    -0.273 OA
HETATM    5  C   UNL     1       6.511  28.179  54.595  1.00  0.00     0.132 C 
HETATM    6  C   UNL     1       5.303  29.048  54.211  1.00  0.00     0.061 C 
HETATM    7  C   UNL     1       5.045  30.063  55.269  1.00  0.00    -0.019 A 
HETATM    8  C   UNL     1       5.652  29.996  56.512  1.00  0.00     0.046 A 
HETATM    9  N   UNL     1       5.117  30.996  57.283  1.00  0.00    -0.356 N 
HETATM   10  H   UNL     1       5.319  31.168  58.256  1.00  0.00     0.166 HD
HETATM   11  C   UNL     1       4.206  31.727  56.549  1.00  0.00     0.043 A 
HETATM   12  C   UNL     1       4.146  31.162  55.275  1.00  0.00    -0.001 A 
HETATM   13  C   UNL     1       3.421  32.823  56.925  1.00  0.00     0.030 A 
HETATM   14  C   UNL     1       2.552  33.356  55.965  1.00  0.00     0.002 A 
HETATM   15  C   UNL     1       2.474  32.813  54.685  1.00  0.00     0.001 A 
HETATM   16  C   UNL     1       3.263  31.715  54.327  1.00  0.00     0.014 A 
ENDROOT
BRANCH   1  17
HETATM   17  C   UNL     1       8.075  29.468  57.181  1.00  0.00     0.063 A 
HETATM   18  N   UNL     1       8.340  30.380  58.158  1.00  0.00    -0.256 NA
HETATM   19  C   UNL     1       9.607  30.850  58.277  1.00  0.00     0.031 A 
HETATM   20  C   UNL     1       9.865  31.891  59.323  1.00  0.00     0.070 C 
HETATM   21  C   UNL     1      10.647  30.430  57.456  1.00  0.00     0.027 A 
HETATM   22  C   UNL     1      10.377  29.499  56.465  1.00  0.00     0.004 A 
HETATM   23  C   UNL     1       9.080  29.021  56.317  1.00  0.00     0.030 A 
ENDBRANCH   1  17
BRANCH   3  24
HETATM   24  C   UNL     1       5.722  25.495  55.646  1.00  0.00     0.141 C 
BRANCH  24  25
HETATM   25  C   UNL     1       6.597  24.405  55.074  1.00  0.00    -0.047 A 
HETATM   26  C   UNL     1       7.351  23.514  55.849  1.00  0.00     0.047 A 
HETATM   27  C   UNL     1       8.187  22.566  55.237  1.00  0.00     0.102 A 
HETATM   28  C   UNL     1       8.246  22.479  53.832  1.00  0.00     0.101 A 
HETATM   29  C   UNL     1       7.471  23.343  53.060  1.00  0.00     0.040 A 
HETATM   30  C   UNL     1       6.661  24.299  53.676  1.00  0.00     0.010 A 
BRANCH  27  31
HETATM   31  O   UNL     1       8.972  21.675  55.928  1.00  0.00    -0.353 OA
HETATM   32  C   UNL     1       8.294  20.664  56.662  1.00  0.00     0.210 C 
ENDBRANCH  27  31
BRANCH  28  33
HETATM   33  O   UNL     1       9.088  21.524  53.315  1.00  0.00    -0.353 OA
HETATM   34  C   UNL     1       8.495  20.335  52.813  1.00  0.00     0.210 C 
ENDBRANCH  28  33
ENDBRANCH  24  25
ENDBRANCH   3  24
TORSDOF 5
ENDMDL
MODEL 2
REMARK VINA RESULT:      -9.7      3.193      7.451
REMARK  5 active torsions:
REMARK  status: ('A' for Active; 'I' for Inactive)
REMARK    1  A    between atoms: C_4  and  C_5 
REMARK       I    between atoms: N_6  and  C_7 
REMARK    2  A    between atoms: C_7  and  C_8 
REMARK    3  A    between atoms: C_8  and  C_9 
REMARK    4  A    between atoms: C_11  and  O_12 
REMARK    5  A    between atoms: C_14  and  O_15 
ROOT
HETATM    1  C   UNL     1       6.363  24.626  54.077  1.00  0.00     0.189 C 
HETATM    2  N   UNL     1       6.363  25.138  52.684  1.00  0.00    -0.336 N 
HETATM    3  C   UNL     1       5.204  24.993  51.943  1.00  0.00     0.225 C 
HETATM    4  O   UNL     1       4.299  24.227  52.283  1.00  0.00    -0.273 OA
HETATM    5  C   UNL     1       7.597  25.813  52.229  1.00  0.00     0.132 C 
HETATM    6  C   UNL     1       7.885  27.096  53.024  1.00  0.00     0.061 C 
HETATM    7  C   UNL     1       7.599  26.877  54.469  1.00  0.00    -0.019 A 
HETATM    8  C   UNL     1       6.911  25.763  54.919  1.00  0.00     0.046 A 
HETATM    9  N   UNL     1       6.712  25.922  56.267  1.00  0.00    -0.356 N 
HETATM   10  H   UNL     1       6.192  25.300  56.867  1.00  0.00     0.166 HD
HETATM   11  C   UNL     1       7.291  27.097  56.698  1.00  0.00     0.043 A 
HETATM   12  C   UNL     1       7.862  27.715  55.584  1.00  0.00    -0.001 A 
HETATM   13  C   UNL     1       7.332  27.664  57.977  1.00  0.00     0.030 A 
HETATM   14  C   UNL     1       7.978  28.897  58.119  1.00  0.00     0.002 A 
HETATM   15  C   UNL     1       8.557  29.536  57.025  1.00  0.00     0.001 A 
HETATM   16  C   UNL     1       8.504  28.957  55.752  1.00  0.00     0.014 A 
ENDROOT
BRANCH   1  17
HETATM   17  C   UNL     1       7.097  23.286  54.267  1.00  0.00     0.063 A 
HETATM   18  N   UNL     1       7.339  22.820  55.525  1.00  0.00    -0.256 NA
HETATM   19  C   UNL     1       8.021  21.656  55.663  1.00  0.00     0.031 A 
HETATM   20  C   UNL     1       8.322  21.189  57.055  1.00  0.00     0.070 C 
HETATM   21  C   UNL     1       8.472  20.913  54.578  1.00  0.00     0.027 A 
HETATM   22  C   UNL     1       8.222  21.386  53.299  1.00  0.00     0.004 A 
HETATM   23  C   UNL     1       7.540  22.587  53.139  1.00  0.00     0.030 A 
ENDBRANCH   1  17
BRANCH   3  24
HETATM   24  C   UNL     1       4.999  25.921  50.756  1.00  0.00     0.141 C 
BRANCH  24  25
HETATM   25  C   UNL     1       4.926  27.411  50.994  1.00  0.00    -0.047 A 
HETATM   26  C   UNL     1       4.374  27.998  52.139  1.00  0.00     0.047 A 
HETATM   27  C   UNL     1       4.290  29.395  52.256  1.00  0.00     0.102 A 
HETATM   28  C   UNL     1       4.795  30.221  51.232  1.00  0.00     0.101 A 
HETATM   29  C   UNL     1       5.374  29.637  50.107  1.00  0.00     0.040 A 
HETATM   30  C   UNL     1       5.432  28.248  49.987  1.00  0.00     0.010 A 
BRANCH  27  31
HETATM   31  O   UNL     1       3.744  30.044  53.337  1.00  0.00    -0.353 OA
HETATM   32  C   UNL     1       4.193  29.634  54.621  1.00  0.00     0.210 C 
ENDBRANCH  27  31
BRANCH  28  33
HETATM   33  O   UNL     1       4.674  31.576  51.426  1.00  0.00    -0.353 OA
HETATM   34  C   UNL     1       5.441  32.426  50.585  1.00  0.00     0.210 C 
ENDBRANCH  28  33
ENDBRANCH  24  25
ENDBRANCH   3  24
TORSDOF 5
ENDMDL
MODEL 3
REMARK VINA RESULT:      -9.2      4.800      8.032
REMARK  5 active torsions:
REMARK  status: ('A' for Active; 'I' for Inactive)
REMARK    1  A    between atoms: C_4  and  C_5 
REMARK       I    between atoms: N_6  and  C_7 
REMARK    2  A    between atoms: C_7  and  C_8 
REMARK    3  A    between atoms: C_8  and  C_9 
REMARK    4  A    between atoms: C_11  and  O_12 
REMARK    5  A    between atoms: C_14  and  O_15 
ROOT
HETATM    1  C   UNL     1       5.822  28.210  53.904  1.00  0.00     0.189 C 
HETATM    2  N   UNL     1       5.239  27.623  52.673  1.00  0.00    -0.336 N 
HETATM    3  C   UNL     1       5.567  28.205  51.461  1.00  0.00     0.225 C 
HETATM    4  O   UNL     1       6.076  29.327  51.390  1.00  0.00    -0.273 OA
HETATM    5  C   UNL     1       4.396  26.421  52.849  1.00  0.00     0.132 C 
HETATM    6  C   UNL     1       5.190  25.231  53.407  1.00  0.00     0.061 C 
HETATM    7  C   UNL     1       6.127  25.693  54.468  1.00  0.00    -0.019 A 
HETATM    8  C   UNL     1       6.400  27.035  54.672  1.00  0.00     0.046 A 
HETATM    9  N   UNL     1       7.379  27.113  55.629  1.00  0.00    -0.356 N 
HETATM   10  H   UNL     1       7.826  27.958  55.951  1.00  0.00     0.166 HD
HETATM   11  C   UNL     1       7.714  25.851  56.071  1.00  0.00     0.043 A 
HETATM   12  C   UNL     1       6.936  24.938  55.358  1.00  0.00    -0.001 A 
HETATM   13  C   UNL     1       8.658  25.453  57.025  1.00  0.00     0.030 A 
HETATM   14  C   UNL     1       8.806  24.081  57.257  1.00  0.00     0.002 A 
HETATM   15  C   UNL     1       8.041  23.148  56.562  1.00  0.00     0.001 A 
HETATM   16  C   UNL     1       7.103  23.562  55.608  1.00  0.00     0.014 A 
ENDROOT
BRANCH   1  17
HETATM   17  C   UNL     1       4.850  29.083  54.720  1.00  0.00     0.063 A 
HETATM   18  N   UNL     1       4.208  30.123  54.118  1.00  0.00    -0.256 NA
HETATM   19  C   UNL     1       3.388  30.899  54.870  1.00  0.00     0.031 A 
HETATM   20  C   UNL     1       2.733  32.068  54.201  1.00  0.00     0.070 C 
HETATM   21  C   UNL     1       3.164  30.669  56.223  1.00  0.00     0.027 A 
HETATM   22  C   UNL     1       3.815  29.608  56.833  1.00  0.00     0.004 A 
HETATM   23  C   UNL     1       4.674  28.815  56.081  1.00  0.00     0.030 A 
ENDBRANCH   1  17
BRANCH   3  24
HETATM   24  C   UNL     1       5.422  27.363  50.205  1.00  0.00     0.141 C 
BRANCH  24  25
HETATM   25  C   UNL     1       4.098  27.352  49.477  1.00  0.00    -0.047 A 
HETATM   26  C   UNL     1       3.158  28.388  49.542  1.00  0.00     0.047 A 
HETATM   27  C   UNL     1       1.923  28.274  48.883  1.00  0.00     0.102 A 
HETATM   28  C   UNL     1       1.634  27.126  48.118  1.00  0.00     0.101 A 
HETATM   29  C   UNL     1       2.583  26.109  48.027  1.00  0.00     0.040 A 
HETATM   30  C   UNL     1       3.798  26.219  48.705  1.00  0.00     0.010 A 
BRANCH  27  31
HETATM   31  O   UNL     1       0.942  29.236  48.916  1.00  0.00    -0.353 OA
HETATM   32  C   UNL     1       1.282  30.471  49.532  1.00  0.00     0.210 C 
ENDBRANCH  27  31
BRANCH  28  33
HETATM   33  O   UNL     1       0.405  27.095  47.505  1.00  0.00    -0.353 OA
HETATM   34  C   UNL     1       0.347  27.482  46.140  1.00  0.00     0.210 C 
ENDBRANCH  28  33
ENDBRANCH  24  25
ENDBRANCH   3  24
TORSDOF 5
ENDMDL
MODEL 4
REMARK VINA RESULT:      -9.0      3.496      7.221
REMARK  5 active torsions:
REMARK  status: ('A' for Active; 'I' for Inactive)
REMARK    1  A    between atoms: C_4  and  C_5 
REMARK       I    between atoms: N_6  and  C_7 
REMARK    2  A    between atoms: C_7  and  C_8 
REMARK    3  A    between atoms: C_8  and  C_9 
REMARK    4  A    between atoms: C_11  and  O_12 
REMARK    5  A    between atoms: C_14  and  O_15 
ROOT
HETATM    1  C   UNL     1       5.810  28.835  53.081  1.00  0.00     0.189 C 
HETATM    2  N   UNL     1       6.145  28.145  54.350  1.00  0.00    -0.336 N 
HETATM    3  C   UNL     1       7.482  28.021  54.685  1.00  0.00     0.225 C 
HETATM    4  O   UNL     1       8.383  28.198  53.861  1.00  0.00    -0.273 OA
HETATM    5  C   UNL     1       5.006  27.697  55.180  1.00  0.00     0.132 C 
HETATM    6  C   UNL     1       4.159  28.875  55.687  1.00  0.00     0.061 C 
HETATM    7  C   UNL     1       3.993  29.888  54.609  1.00  0.00    -0.019 A 
HETATM    8  C   UNL     1       4.747  29.854  53.448  1.00  0.00     0.046 A 
HETATM    9  N   UNL     1       4.440  30.979  52.728  1.00  0.00    -0.356 N 
HETATM   10  H   UNL     1       4.869  31.263  51.860  1.00  0.00     0.166 HD
HETATM   11  C   UNL     1       3.476  31.716  53.383  1.00  0.00     0.043 A 
HETATM   12  C   UNL     1       3.173  31.047  54.570  1.00  0.00    -0.001 A 
HETATM   13  C   UNL     1       2.872  32.927  53.026  1.00  0.00     0.030 A 
HETATM   14  C   UNL     1       1.929  33.466  53.909  1.00  0.00     0.002 A 
HETATM   15  C   UNL     1       1.607  32.818  55.100  1.00  0.00     0.001 A 
HETATM   16  C   UNL     1       2.223  31.609  55.443  1.00  0.00     0.014 A 
ENDROOT
BRANCH   1  17
HETATM   17  C   UNL     1       5.414  27.896  51.926  1.00  0.00     0.063 A 
HETATM   18  N   UNL     1       4.934  28.419  50.763  1.00  0.00    -0.256 NA
HETATM   19  C   UNL     1       4.557  27.566  49.778  1.00  0.00     0.031 A 
HETATM   20  C   UNL     1       3.984  28.161  48.528  1.00  0.00     0.070 C 
HETATM   21  C   UNL     1       4.652  26.185  49.899  1.00  0.00     0.027 A 
HETATM   22  C   UNL     1       5.144  25.654  51.081  1.00  0.00     0.004 A 
HETATM   23  C   UNL     1       5.517  26.513  52.109  1.00  0.00     0.030 A 
ENDBRANCH   1  17
BRANCH   3  24
HETATM   24  C   UNL     1       7.831  27.800  56.147  1.00  0.00     0.141 C 
BRANCH  24  25
HETATM   25  C   UNL     1       8.172  28.994  57.008  1.00  0.00    -0.047 A 
HETATM   26  C   UNL     1       7.238  29.944  57.440  1.00  0.00     0.047 A 
HETATM   27  C   UNL     1       7.647  31.059  58.189  1.00  0.00     0.102 A 
HETATM   28  C   UNL     1       9.002  31.213  58.545  1.00  0.00     0.101 A 
HETATM   29  C   UNL     1       9.927  30.250  58.143  1.00  0.00     0.040 A 
HETATM   30  C   UNL     1       9.516  29.158  57.378  1.00  0.00     0.010 A 
BRANCH  27  31
HETATM   31  O   UNL     1       6.795  32.043  58.630  1.00  0.00    -0.353 OA
HETATM   32  C   UNL     1       5.436  31.936  58.229  1.00  0.00     0.210 C 
ENDBRANCH  27  31
BRANCH  28  33
HETATM   33  O   UNL     1       9.317  32.331  59.278  1.00  0.00    -0.353 OA
HETATM   34  C   UNL     1       9.595  32.147  60.659  1.00  0.00     0.210 C 
ENDBRANCH  28  33
ENDBRANCH  24  25
ENDBRANCH   3  24
TORSDOF 5
ENDMDL
MODEL 5
REMARK VINA RESULT:      -8.9      3.333      7.930
REMARK  5 active torsions:
REMARK  status: ('A' for Active; 'I' for Inactive)
REMARK    1  A    between atoms: C_4  and  C_5 
REMARK       I    between atoms: N_6  and  C_7 
REMARK    2  A    between atoms: C_7  and  C_8 
REMARK    3  A    between atoms: C_8  and  C_9 
REMARK    4  A    between atoms: C_11  and  O_12 
REMARK    5  A    between atoms: C_14  and  O_15 
ROOT
HETATM    1  C   UNL     1       6.994  28.367  55.460  1.00  0.00     0.189 C 
HETATM    2  N   UNL     1       6.270  29.105  56.523  1.00  0.00    -0.336 N 
HETATM    3  C   UNL     1       6.965  30.068  57.231  1.00  0.00     0.225 C 
HETATM    4  O   UNL     1       8.197  30.136  57.209  1.00  0.00    -0.273 OA
HETATM    5  C   UNL     1       4.837  28.778  56.695  1.00  0.00     0.132 C 
HETATM    6  C   UNL     1       4.007  29.139  55.454  1.00  0.00     0.061 C 
HETATM    7  C   UNL     1       4.750  28.775  54.216  1.00  0.00    -0.019 A 
HETATM    8  C   UNL     1       6.093  28.436  54.241  1.00  0.00     0.046 A 
HETATM    9  N   UNL     1       6.498  28.275  52.941  1.00  0.00    -0.356 N 
HETATM   10  H   UNL     1       7.439  28.079  52.633  1.00  0.00     0.166 HD
HETATM   11  C   UNL     1       5.436  28.468  52.084  1.00  0.00     0.043 A 
HETATM   12  C   UNL     1       4.321  28.780  52.863  1.00  0.00    -0.001 A 
HETATM   13  C   UNL     1       5.386  28.412  50.686  1.00  0.00     0.030 A 
HETATM   14  C   UNL     1       4.157  28.681  50.070  1.00  0.00     0.002 A 
HETATM   15  C   UNL     1       3.028  28.993  50.824  1.00  0.00     0.001 A 
HETATM   16  C   UNL     1       3.096  29.047  52.221  1.00  0.00     0.014 A 
ENDROOT
BRANCH   1  17
HETATM   17  C   UNL     1       7.426  26.941  55.849  1.00  0.00     0.063 A 
HETATM   18  N   UNL     1       7.213  25.910  54.983  1.00  0.00    -0.256 NA
HETATM   19  C   UNL     1       7.568  24.659  55.368  1.00  0.00     0.031 A 
HETATM   20  C   UNL     1       7.277  23.534  54.422  1.00  0.00     0.070 C 
HETATM   21  C   UNL     1       8.152  24.386  56.600  1.00  0.00     0.027 A 
HETATM   22  C   UNL     1       8.371  25.436  57.478  1.00  0.00     0.004 A 
HETATM   23  C   UNL     1       7.996  26.722  57.107  1.00  0.00     0.030 A 
ENDBRANCH   1  17
BRANCH   3  24
HETATM   24  C   UNL     1       6.164  31.153  57.932  1.00  0.00     0.141 C 
BRANCH  24  25
HETATM   25  C   UNL     1       6.636  31.662  59.274  1.00  0.00    -0.047 A 
HETATM   26  C   UNL     1       7.871  31.335  59.849  1.00  0.00     0.047 A 
HETATM   27  C   UNL     1       8.209  31.803  61.129  1.00  0.00     0.102 A 
HETATM   28  C   UNL     1       7.320  32.637  61.834  1.00  0.00     0.101 A 
HETATM   29  C   UNL     1       6.104  32.989  61.249  1.00  0.00     0.040 A 
HETATM   30  C   UNL     1       5.765  32.501  59.986  1.00  0.00     0.010 A 
BRANCH  27  31
HETATM   31  O   UNL     1       9.391  31.509  61.767  1.00  0.00    -0.353 OA
HETATM   32  C   UNL     1       9.579  30.159  62.169  1.00  0.00     0.210 C 
ENDBRANCH  27  31
BRANCH  28  33
HETATM   33  O   UNL     1       7.727  33.051  63.079  1.00  0.00    -0.353 OA
HETATM   34  C   UNL     1       6.747  33.093  64.106  1.00  0.00     0.210 C 
ENDBRANCH  28  33
ENDBRANCH  24  25
ENDBRANCH   3  24
TORSDOF 5
ENDMDL
MODEL 6
REMARK VINA RESULT:      -8.9      4.572      7.037
REMARK  5 active torsions:
REMARK  status: ('A' for Active; 'I' for Inactive)
REMARK    1  A    between atoms: C_4  and  C_5 
REMARK       I    between atoms: N_6  and  C_7 
REMARK    2  A    between atoms: C_7  and  C_8 
REMARK    3  A    between atoms: C_8  and  C_9 
REMARK    4  A    between atoms: C_11  and  O_12 
REMARK    5  A    between atoms: C_14  and  O_15 
ROOT
HETATM    1  C   UNL     1       5.180  27.762  50.091  1.00  0.00     0.189 C 
HETATM    2  N   UNL     1       4.937  27.325  51.487  1.00  0.00    -0.336 N 
HETATM    3  C   UNL     1       5.746  26.330  52.004  1.00  0.00     0.225 C 
HETATM    4  O   UNL     1       6.449  25.617  51.283  1.00  0.00    -0.273 OA
HETATM    5  C   UNL     1       3.874  28.041  52.227  1.00  0.00     0.132 C 
HETATM    6  C   UNL     1       4.206  29.527  52.427  1.00  0.00     0.061 C 
HETATM    7  C   UNL     1       4.810  30.088  51.187  1.00  0.00    -0.019 A 
HETATM    8  C   UNL     1       5.245  29.277  50.152  1.00  0.00     0.046 A 
HETATM    9  N   UNL     1       5.852  30.086  49.226  1.00  0.00    -0.356 N 
HETATM   10  H   UNL     1       6.318  29.779  48.385  1.00  0.00     0.166 HD
HETATM   11  C   UNL     1       5.783  31.403  49.627  1.00  0.00     0.043 A 
HETATM   12  C   UNL     1       5.127  31.433  50.858  1.00  0.00    -0.001 A 
HETATM   13  C   UNL     1       6.270  32.560  49.005  1.00  0.00     0.030 A 
HETATM   14  C   UNL     1       6.076  33.779  49.663  1.00  0.00     0.002 A 
HETATM   15  C   UNL     1       5.422  33.838  50.892  1.00  0.00     0.001 A 
HETATM   16  C   UNL     1       4.944  32.671  51.501  1.00  0.00     0.014 A 
ENDROOT
BRANCH   1  17
HETATM   17  C   UNL     1       4.175  27.212  49.062  1.00  0.00     0.063 A 
HETATM   18  N   UNL     1       3.328  28.066  48.421  1.00  0.00    -0.256 NA
HETATM   19  C   UNL     1       2.427  27.550  47.548  1.00  0.00     0.031 A 
HETATM   20  C   UNL     1       1.472  28.500  46.894  1.00  0.00     0.070 C 
HETATM   21  C   UNL     1       2.340  26.190  47.271  1.00  0.00     0.027 A 
HETATM   22  C   UNL     1       3.204  25.323  47.922  1.00  0.00     0.004 A 
HETATM   23  C   UNL     1       4.122  25.834  48.833  1.00  0.00     0.030 A 
ENDBRANCH   1  17
BRANCH   3  24
HETATM   24  C   UNL     1       5.868  26.225  53.515  1.00  0.00     0.141 C 
BRANCH  24  25
HETATM   25  C   UNL     1       6.761  25.159  54.107  1.00  0.00    -0.047 A 
HETATM   26  C   UNL     1       7.355  24.131  53.365  1.00  0.00     0.047 A 
HETATM   27  C   UNL     1       8.124  23.143  54.002  1.00  0.00     0.102 A 
HETATM   28  C   UNL     1       8.333  23.199  55.394  1.00  0.00     0.101 A 
HETATM   29  C   UNL     1       7.768  24.241  56.129  1.00  0.00     0.040 A 
HETATM   30  C   UNL     1       6.985  25.205  55.492  1.00  0.00     0.010 A 
BRANCH  27  31
HETATM   31  O   UNL     1       8.720  22.093  53.347  1.00  0.00    -0.353 OA
HETATM   32  C   UNL     1       7.877  21.012  52.973  1.00  0.00     0.210 C 
ENDBRANCH  27  31
BRANCH  28  33
HETATM   33  O   UNL     1       9.097  22.195  55.938  1.00  0.00    -0.353 OA
HETATM   34  C   UNL     1       8.420  21.186  56.674  1.00  0.00     0.210 C 
ENDBRANCH  28  33
ENDBRANCH  24  25
ENDBRANCH   3  24
TORSDOF 5
ENDMDL
MODEL 7
REMARK VINA RESULT:      -8.7      1.366      2.236
REMARK  5 active torsions:
REMARK  status: ('A' for Active; 'I' for Inactive)
REMARK    1  A    between atoms: C_4  and  C_5 
REMARK       I    between atoms: N_6  and  C_7 
REMARK    2  A    between atoms: C_7  and  C_8 
REMARK    3  A    between atoms: C_8  and  C_9 
REMARK    4  A    between atoms: C_11  and  O_12 
REMARK    5  A    between atoms: C_14  and  O_15 
ROOT
HETATM    1  C   UNL     1       5.170  28.889  56.487  1.00  0.00     0.189 C 
HETATM    2  N   UNL     1       5.688  27.784  55.645  1.00  0.00    -0.336 N 
HETATM    3  C   UNL     1       5.422  26.487  56.044  1.00  0.00     0.225 C 
HETATM    4  O   UNL     1       5.032  26.219  57.184  1.00  0.00    -0.273 OA
HETATM    5  C   UNL     1       6.404  28.174  54.410  1.00  0.00     0.132 C 
HETATM    6  C   UNL     1       5.491  28.910  53.418  1.00  0.00     0.061 C 
HETATM    7  C   UNL     1       4.608  29.863  54.146  1.00  0.00    -0.019 A 
HETATM    8  C   UNL     1       4.475  29.833  55.524  1.00  0.00     0.046 A 
HETATM    9  N   UNL     1       3.510  30.747  55.861  1.00  0.00    -0.356 N 
HETATM   10  H   UNL     1       3.151  30.915  56.790  1.00  0.00     0.166 HD
HETATM   11  C   UNL     1       3.046  31.389  54.733  1.00  0.00     0.043 A 
HETATM   12  C   UNL     1       3.726  30.853  53.638  1.00  0.00    -0.001 A 
HETATM   13  C   UNL     1       2.067  32.380  54.600  1.00  0.00     0.030 A 
HETATM   14  C   UNL     1       1.778  32.837  53.308  1.00  0.00     0.002 A 
HETATM   15  C   UNL     1       2.443  32.321  52.198  1.00  0.00     0.001 A 
HETATM   16  C   UNL     1       3.417  31.328  52.349  1.00  0.00     0.014 A 
ENDROOT
BRANCH   1  17
HETATM   17  C   UNL     1       6.227  29.563  57.382  1.00  0.00     0.063 A 
HETATM   18  N   UNL     1       5.881  30.638  58.145  1.00  0.00    -0.256 NA
HETATM   19  C   UNL     1       6.841  31.235  58.894  1.00  0.00     0.031 A 
HETATM   20  C   UNL     1       6.451  32.446  59.685  1.00  0.00     0.070 C 
HETATM   21  C   UNL     1       8.158  30.789  58.927  1.00  0.00     0.027 A 
HETATM   22  C   UNL     1       8.507  29.694  58.154  1.00  0.00     0.004 A 
HETATM   23  C   UNL     1       7.540  29.081  57.365  1.00  0.00     0.030 A 
ENDBRANCH   1  17
BRANCH   3  24
HETATM   24  C   UNL     1       5.479  25.392  54.991  1.00  0.00     0.141 C 
BRANCH  24  25
HETATM   25  C   UNL     1       6.597  24.378  55.047  1.00  0.00    -0.047 A 
HETATM   26  C   UNL     1       7.028  23.622  53.950  1.00  0.00     0.047 A 
HETATM   27  C   UNL     1       8.035  22.654  54.100  1.00  0.00     0.102 A 
HETATM   28  C   UNL     1       8.648  22.462  55.354  1.00  0.00     0.101 A 
HETATM   29  C   UNL     1       8.242  23.237  56.439  1.00  0.00     0.040 A 
HETATM   30  C   UNL     1       7.223  24.179  56.287  1.00  0.00     0.010 A 
BRANCH  27  31
HETATM   31  O   UNL     1       8.496  21.860  53.077  1.00  0.00    -0.353 OA
HETATM   32  C   UNL     1       7.828  20.622  52.881  1.00  0.00     0.210 C 
ENDBRANCH  27  31
BRANCH  28  33
HETATM   33  O   UNL     1       9.624  21.497  55.414  1.00  0.00    -0.353 OA
HETATM   34  C   UNL     1       9.345  20.333  56.178  1.00  0.00     0.210 C 
ENDBRANCH  28  33
ENDBRANCH  24  25
ENDBRANCH   3  24
TORSDOF 5
ENDMDL
MODEL 8
REMARK VINA RESULT:      -8.7      4.662      7.523
REMARK  5 active torsions:
REMARK  status: ('A' for Active; 'I' for Inactive)
REMARK    1  A    between atoms: C_4  and  C_5 
REMARK       I    between atoms: N_6  and  C_7 
REMARK    2  A    between atoms: C_7  and  C_8 
REMARK    3  A    between atoms: C_8  and  C_9 
REMARK    4  A    between atoms: C_11  and  O_12 
REMARK    5  A    between atoms: C_14  and  O_15 
ROOT
HETATM    1  C   UNL     1       4.975  27.951  50.177  1.00  0.00     0.189 C 
HETATM    2  N   UNL     1       4.570  27.464  51.518  1.00  0.00    -0.336 N 
HETATM    3  C   UNL     1       5.301  26.432  52.079  1.00  0.00     0.225 C 
HETATM    4  O   UNL     1       6.068  25.733  51.412  1.00  0.00    -0.273 OA
HETATM    5  C   UNL     1       3.444  28.171  52.166  1.00  0.00     0.132 C 
HETATM    6  C   UNL     1       3.775  29.641  52.463  1.00  0.00     0.061 C 
HETATM    7  C   UNL     1       4.523  30.238  51.322  1.00  0.00    -0.019 A 
HETATM    8  C   UNL     1       5.057  29.460  50.309  1.00  0.00     0.046 A 
HETATM    9  N   UNL     1       5.777  30.293  49.490  1.00  0.00    -0.356 N 
HETATM   10  H   UNL     1       6.328  30.010  48.694  1.00  0.00     0.166 HD
HETATM   11  C   UNL     1       5.685  31.594  49.936  1.00  0.00     0.043 A 
HETATM   12  C   UNL     1       4.896  31.588  51.087  1.00  0.00    -0.001 A 
HETATM   13  C   UNL     1       6.257  32.764  49.421  1.00  0.00     0.030 A 
HETATM   14  C   UNL     1       6.010  33.960  50.105  1.00  0.00     0.002 A 
HETATM   15  C   UNL     1       5.225  33.983  51.255  1.00  0.00     0.001 A 
HETATM   16  C   UNL     1       4.663  32.804  51.758  1.00  0.00     0.014 A 
ENDROOT
BRANCH   1  17
HETATM   17  C   UNL     1       4.082  27.464  49.021  1.00  0.00     0.063 A 
HETATM   18  N   UNL     1       3.285  28.351  48.362  1.00  0.00    -0.256 NA
HETATM   19  C   UNL     1       2.480  27.887  47.374  1.00  0.00     0.031 A 
HETATM   20  C   UNL     1       1.574  28.871  46.698  1.00  0.00     0.070 C 
HETATM   21  C   UNL     1       2.444  26.550  46.997  1.00  0.00     0.027 A 
HETATM   22  C   UNL     1       3.257  25.649  47.666  1.00  0.00     0.004 A 
HETATM   23  C   UNL     1       4.075  26.104  48.694  1.00  0.00     0.030 A 
ENDBRANCH   1  17
BRANCH   3  24
HETATM   24  C   UNL     1       5.252  26.264  53.589  1.00  0.00     0.141 C 
BRANCH  24  25
HETATM   25  C   UNL     1       6.360  26.856  54.429  1.00  0.00    -0.047 A 
HETATM   26  C   UNL     1       6.811  26.306  55.636  1.00  0.00     0.047 A 
HETATM   27  C   UNL     1       7.806  26.952  56.388  1.00  0.00     0.102 A 
HETATM   28  C   UNL     1       8.386  28.145  55.914  1.00  0.00     0.101 A 
HETATM   29  C   UNL     1       7.961  28.676  54.697  1.00  0.00     0.040 A 
HETATM   30  C   UNL     1       6.954  28.041  53.968  1.00  0.00     0.010 A 
BRANCH  27  31
HETATM   31  O   UNL     1       8.285  26.486  57.588  1.00  0.00    -0.353 OA
HETATM   32  C   UNL     1       8.488  25.084  57.693  1.00  0.00     0.210 C 
ENDBRANCH  27  31
BRANCH  28  33
HETATM   33  O   UNL     1       9.353  28.711  56.710  1.00  0.00    -0.353 OA
HETATM   34  C   UNL     1      10.171  29.715  56.127  1.00  0.00     0.210 C 
ENDBRANCH  28  33
ENDBRANCH  24  25
ENDBRANCH   3  24
TORSDOF 5
ENDMDL
MODEL 9
REMARK VINA RESULT:      -8.6      4.511      7.542
REMARK  5 active torsions:
REMARK  status: ('A' for Active; 'I' for Inactive)
REMARK    1  A    between atoms: C_4  and  C_5 
REMARK       I    between atoms: N_6  and  C_7 
REMARK    2  A    between atoms: C_7  and  C_8 
REMARK    3  A    between atoms: C_8  and  C_9 
REMARK    4  A    between atoms: C_11  and  O_12 
REMARK    5  A    between atoms: C_14  and  O_15 
ROOT
HETATM    1  C   UNL     1       3.971  29.997  51.469  1.00  0.00     0.189 C 
HETATM    2  N   UNL     1       4.614  29.254  52.580  1.00  0.00    -0.336 N 
HETATM    3  C   UNL     1       4.099  29.421  53.853  1.00  0.00     0.225 C 
HETATM    4  O   UNL     1       3.338  30.350  54.136  1.00  0.00    -0.273 OA
HETATM    5  C   UNL     1       5.725  28.349  52.214  1.00  0.00     0.132 C 
HETATM    6  C   UNL     1       5.261  27.199  51.307  1.00  0.00     0.061 C 
HETATM    7  C   UNL     1       4.296  27.704  50.293  1.00  0.00    -0.019 A 
HETATM    8  C   UNL     1       3.725  28.963  50.387  1.00  0.00     0.046 A 
HETATM    9  N   UNL     1       2.803  29.070  49.377  1.00  0.00    -0.356 N 
HETATM   10  H   UNL     1       2.186  29.852  49.219  1.00  0.00     0.166 HD
HETATM   11  C   UNL     1       2.796  27.922  48.614  1.00  0.00     0.043 A 
HETATM   12  C   UNL     1       3.732  27.047  49.167  1.00  0.00    -0.001 A 
HETATM   13  C   UNL     1       2.021  27.588  47.497  1.00  0.00     0.030 A 
HETATM   14  C   UNL     1       2.212  26.323  46.931  1.00  0.00     0.002 A 
HETATM   15  C   UNL     1       3.140  25.430  47.461  1.00  0.00     0.001 A 
HETATM   16  C   UNL     1       3.906  25.779  48.580  1.00  0.00     0.014 A 
ENDROOT
BRANCH   1  17
HETATM   17  C   UNL     1       4.749  31.238  50.993  1.00  0.00     0.063 A 
HETATM   18  N   UNL     1       4.671  32.399  51.704  1.00  0.00    -0.256 NA
HETATM   19  C   UNL     1       5.336  33.486  51.240  1.00  0.00     0.031 A 
HETATM   20  C   UNL     1       5.194  34.765  52.009  1.00  0.00     0.070 C 
HETATM   21  C   UNL     1       6.103  33.464  50.081  1.00  0.00     0.027 A 
HETATM   22  C   UNL     1       6.184  32.282  49.361  1.00  0.00     0.004 A 
HETATM   23  C   UNL     1       5.494  31.163  49.812  1.00  0.00     0.030 A 
ENDBRANCH   1  17
BRANCH   3  24
HETATM   24  C   UNL     1       4.377  28.337  54.881  1.00  0.00     0.141 C 
BRANCH  24  25
HETATM   25  C   UNL     1       5.458  28.562  55.912  1.00  0.00    -0.047 A 
HETATM   26  C   UNL     1       6.443  27.619  56.237  1.00  0.00     0.047 A 
HETATM   27  C   UNL     1       7.377  27.884  57.251  1.00  0.00     0.102 A 
HETATM   28  C   UNL     1       7.355  29.119  57.928  1.00  0.00     0.101 A 
HETATM   29  C   UNL     1       6.396  30.070  57.582  1.00  0.00     0.040 A 
HETATM   30  C   UNL     1       5.455  29.790  56.590  1.00  0.00     0.010 A 
BRANCH  27  31
HETATM   31  O   UNL     1       8.357  27.003  57.641  1.00  0.00    -0.353 OA
HETATM   32  C   UNL     1       8.065  25.620  57.499  1.00  0.00     0.210 C 
ENDBRANCH  27  31
BRANCH  28  33
HETATM   33  O   UNL     1       8.304  29.297  58.905  1.00  0.00    -0.353 OA
HETATM   34  C   UNL     1       8.267  30.514  59.637  1.00  0.00     0.210 C 
ENDBRANCH  28  33
ENDBRANCH  24  25
ENDBRANCH   3  24
TORSDOF 5
ENDMDL
MODEL 10
REMARK VINA RESULT:      -8.5      4.456      6.884
REMARK  5 active torsions:
REMARK  status: ('A' for Active; 'I' for Inactive)
REMARK    1  A    between atoms: C_4  and  C_5 
REMARK       I    between atoms: N_6  and  C_7 
REMARK    2  A    between atoms: C_7  and  C_8 
REMARK    3  A    between atoms: C_8  and  C_9 
REMARK    4  A    between atoms: C_11  and  O_12 
REMARK    5  A    between atoms: C_14  and  O_15 
ROOT
HETATM    1  C   UNL     1       4.744  28.106  50.308  1.00  0.00     0.189 C 
HETATM    2  N   UNL     1       4.681  27.555  51.683  1.00  0.00    -0.336 N 
HETATM    3  C   UNL     1       5.525  26.506  51.999  1.00  0.00     0.225 C 
HETATM    4  O   UNL     1       6.102  25.846  51.132  1.00  0.00    -0.273 OA
HETATM    5  C   UNL     1       3.749  28.222  52.620  1.00  0.00     0.132 C 
HETATM    6  C   UNL     1       4.146  29.680  52.894  1.00  0.00     0.061 C 
HETATM    7  C   UNL     1       4.592  30.335  51.633  1.00  0.00    -0.019 A 
HETATM    8  C   UNL     1       4.859  29.609  50.485  1.00  0.00     0.046 A 
HETATM    9  N   UNL     1       5.357  30.484  49.554  1.00  0.00    -0.356 N 
HETATM   10  H   UNL     1       5.694  30.244  48.634  1.00  0.00     0.166 HD
HETATM   11  C   UNL     1       5.380  31.764  50.068  1.00  0.00     0.043 A 
HETATM   12  C   UNL     1       4.898  31.698  51.376  1.00  0.00    -0.001 A 
HETATM   13  C   UNL     1       5.810  32.961  49.483  1.00  0.00     0.030 A 
HETATM   14  C   UNL     1       5.741  34.123  50.261  1.00  0.00     0.002 A 
HETATM   15  C   UNL     1       5.263  34.086  51.569  1.00  0.00     0.001 A 
HETATM   16  C   UNL     1       4.840  32.879  52.139  1.00  0.00     0.014 A 
ENDROOT
BRANCH   1  17
HETATM   17  C   UNL     1       3.593  27.664  49.386  1.00  0.00     0.063 A 
HETATM   18  N   UNL     1       3.700  26.503  48.680  1.00  0.00    -0.256 NA
HETATM   19  C   UNL     1       2.687  26.157  47.847  1.00  0.00     0.031 A 
HETATM   20  C   UNL     1       2.849  24.904  47.041  1.00  0.00     0.070 C 
HETATM   21  C   UNL     1       1.541  26.928  47.693  1.00  0.00     0.027 A 
HETATM   22  C   UNL     1       1.431  28.106  48.415  1.00  0.00     0.004 A 
HETATM   23  C   UNL     1       2.468  28.485  49.260  1.00  0.00     0.030 A 
ENDBRANCH   1  17
BRANCH   3  24
HETATM   24  C   UNL     1       5.849  26.270  53.465  1.00  0.00     0.141 C 
BRANCH  24  25
HETATM   25  C   UNL     1       6.712  25.089  53.845  1.00  0.00    -0.047 A 
HETATM   26  C   UNL     1       7.500  25.031  55.002  1.00  0.00     0.047 A 
HETATM   27  C   UNL     1       8.322  23.920  55.251  1.00  0.00     0.102 A 
HETATM   28  C   UNL     1       8.332  22.834  54.354  1.00  0.00     0.101 A 
HETATM   29  C   UNL     1       7.523  22.877  53.220  1.00  0.00     0.040 A 
HETATM   30  C   UNL     1       6.728  23.995  52.966  1.00  0.00     0.010 A 
BRANCH  27  31
HETATM   31  O   UNL     1       9.137  23.800  56.351  1.00  0.00    -0.353 OA
HETATM   32  C   UNL     1       8.844  24.641  57.457  1.00  0.00     0.210 C 
ENDBRANCH  27  31
BRANCH  28  33
HETATM   33  O   UNL     1       9.163  21.787  54.673  1.00  0.00    -0.353 OA
HETATM   34  C   UNL     1       8.570  20.503  54.812  1.00  0.00     0.210 C 
ENDBRANCH  28  33
ENDBRANCH  24  25
ENDBRANCH   3  24
TORSDOF 5
ENDMDL
