MODEL 1
REMARK VINA RESULT:     -11.5      0.000      0.000
REMARK  9 active torsions:
REMARK  status: ('A' for Active; 'I' for Inactive)
REMARK    1  A    between atoms: C_2  and  O_3 
REMARK    2  A    between atoms: O_3  and  C_4 
REMARK    3  A    between atoms: C_4  and  C_5 
REMARK    4  A    between atoms: C_8  and  N_9 
REMARK       I    between atoms: N_9  and  C_10 
REMARK    5  A    between atoms: C_10  and  C_11 
REMARK    6  A    between atoms: C_13  and  N_14 
REMARK    7  A    between atoms: N_17  and  C_19 
REMARK    8  A    between atoms: C_19  and  C_20 
REMARK    9  A    between atoms: C_19  and  C_26 
ROOT
HETATM    1  C   UNL     1       7.448  30.654  58.356  1.00  0.00     0.200 C 
HETATM    2  N   UNL     1       6.897  29.331  58.108  1.00  0.00    -0.211 N 
HETATM    3  C   UNL     1       7.737  28.292  57.884  1.00  0.00     0.702 C 
HETATM    4  N   UNL     1       9.000  28.383  57.648  1.00  0.00    -0.028 NA
HETATM    5  C   UNL     1       9.574  29.632  57.695  1.00  0.00     0.263 C 
HETATM    6  O   UNL     1      10.788  29.778  57.806  1.00  0.00    -0.271 OA
HETATM    7  C   UNL     1       8.685  30.835  57.504  1.00  0.00     0.141 C 
HETATM    8  H   UNL     1       6.045  29.118  58.612  1.00  0.00     0.178 HD
ENDROOT
BRANCH   3   9
HETATM    9  N   UNL     1       7.075  27.087  57.861  1.00  0.00    -0.213 N 
HETATM   10  C   UNL     1       7.913  25.868  57.950  1.00  0.00     0.169 C 
HETATM   11  C   UNL     1       8.441  25.446  56.561  1.00  0.00     0.256 C 
HETATM   12  N   UNL     1       7.257  25.221  55.618  1.00  0.00    -0.056 N 
HETATM   13  H   UNL     1       6.605  24.576  56.069  1.00  0.00     0.281 HD
HETATM   14  C   UNL     1       6.483  26.535  55.481  1.00  0.00     0.256 C 
HETATM   15  C   UNL     1       5.974  26.964  56.875  1.00  0.00     0.169 C 
BRANCH  12  16
HETATM   16  C   UNL     1       7.593  24.568  54.280  1.00  0.00     0.254 C 
BRANCH  16  17
HETATM   17  C   UNL     1       7.811  23.062  54.369  1.00  0.00    -0.023 A 
HETATM   18  C   UNL     1       8.287  22.316  53.277  1.00  0.00     0.009 A 
HETATM   19  C   UNL     1       8.469  20.937  53.382  1.00  0.00     0.001 A 
HETATM   20  C   UNL     1       8.181  20.282  54.577  1.00  0.00     0.000 A 
HETATM   21  C   UNL     1       7.713  21.005  55.670  1.00  0.00     0.001 A 
HETATM   22  C   UNL     1       7.528  22.385  55.570  1.00  0.00     0.009 A 
ENDBRANCH  16  17
BRANCH  16  23
HETATM   23  C   UNL     1       6.698  25.007  53.109  1.00  0.00    -0.023 A 
HETATM   24  C   UNL     1       7.087  25.925  52.115  1.00  0.00     0.009 A 
HETATM   25  C   UNL     1       6.228  26.249  51.059  1.00  0.00     0.001 A 
HETATM   26  C   UNL     1       4.968  25.668  50.974  1.00  0.00     0.000 A 
HETATM   27  C   UNL     1       4.560  24.758  51.941  1.00  0.00     0.001 A 
HETATM   28  C   UNL     1       5.417  24.427  52.994  1.00  0.00     0.009 A 
ENDBRANCH  16  23
ENDBRANCH  12  16
ENDBRANCH   3   9
BRANCH   1  29
HETATM   29  C   UNL     1       7.748  30.873  59.858  1.00  0.00     0.246 C 
HETATM   30  N   UNL     1       6.734  31.573  60.499  1.00  0.00    -0.325 N 
HETATM   31  H   UNL     1       5.900  31.782  59.961  1.00  0.00     0.169 HD
HETATM   32  O   UNL     1       8.772  30.432  60.375  1.00  0.00    -0.271 OA
BRANCH  30  33
HETATM   33  C   UNL     1       6.712  32.054  61.824  1.00  0.00     0.034 A 
HETATM   34  C   UNL     1       7.844  32.436  62.542  1.00  0.00     0.030 A 
HETATM   35  C   UNL     1       7.715  32.965  63.835  1.00  0.00     0.020 A 
HETATM   36  C   UNL     1       6.454  33.120  64.424  1.00  0.00     0.039 A 
HETATM   37  C   UNL     1       5.320  32.712  63.715  1.00  0.00     0.020 A 
HETATM   38  C   UNL     1       5.451  32.183  62.426  1.00  0.00     0.030 A 
BRANCH  36  39
HETATM   39  C   UNL     1       6.369  33.743  65.773  1.00  0.00     0.293 C 
HETATM   40  O   UNL     1       7.334  34.201  66.363  1.00  0.00    -0.259 OA
BRANCH  39  41
HETATM   41  O   UNL     1       5.083  33.760  66.204  1.00  0.00    -0.318 OA
BRANCH  41  42
HETATM   42  C   UNL     1       4.798  34.640  67.302  1.00  0.00     0.174 C 
HETATM   43  C   UNL     1       4.289  35.975  66.792  1.00  0.00     0.034 C 
ENDBRANCH  41  42
ENDBRANCH  39  41
ENDBRANCH  36  39
ENDBRANCH  30  33
ENDBRANCH   1  29
TORSDOF 9
ENDMDL
MODEL 2
REMARK VINA RESULT:     -11.2      3.319      6.281
REMARK  9 active torsions:
REMARK  status: ('A' for Active; 'I' for Inactive)
REMARK    1  A    between atoms: C_2  and  O_3 
REMARK    2  A    between atoms: O_3  and  C_4 
REMARK    3  A    between atoms: C_4  and  C_5 
REMARK    4  A    between atoms: C_8  and  N_9 
REMARK       I    between atoms: N_9  and  C_10 
REMARK    5  A    between atoms: C_10  and  C_11 
REMARK    6  A    between atoms: C_13  and  N_14 
REMARK    7  A    between atoms: N_17  and  C_19 
REMARK    8  A    between atoms: C_19  and  C_20 
REMARK    9  A    between atoms: C_19  and  C_26 
ROOT
HETATM    1  C   UNL     1       3.614  28.538  53.331  1.00  0.00     0.200 C 
HETATM    2  N   UNL     1       4.294  27.384  52.765  1.00  0.00    -0.211 N 
HETATM    3  C   UNL     1       4.959  27.512  51.591  1.00  0.00     0.702 C 
HETATM    4  N   UNL     1       4.877  28.514  50.786  1.00  0.00    -0.028 NA
HETATM    5  C   UNL     1       4.109  29.588  51.172  1.00  0.00     0.263 C 
HETATM    6  O   UNL     1       4.229  30.688  50.642  1.00  0.00    -0.271 OA
HETATM    7  C   UNL     1       3.030  29.361  52.202  1.00  0.00     0.141 C 
HETATM    8  H   UNL     1       4.699  26.749  53.442  1.00  0.00     0.178 HD
ENDROOT
BRANCH   3   9
HETATM    9  N   UNL     1       5.703  26.395  51.293  1.00  0.00    -0.213 N 
HETATM   10  C   UNL     1       4.998  25.092  51.355  1.00  0.00     0.169 C 
HETATM   11  C   UNL     1       4.985  24.529  52.794  1.00  0.00     0.256 C 
HETATM   12  N   UNL     1       6.425  24.390  53.294  1.00  0.00    -0.056 N 
HETATM   13  H   UNL     1       6.956  23.855  52.603  1.00  0.00     0.281 HD
HETATM   14  C   UNL     1       7.076  25.776  53.305  1.00  0.00     0.256 C 
HETATM   15  C   UNL     1       7.068  26.345  51.870  1.00  0.00     0.169 C 
BRANCH  12  16
HETATM   16  C   UNL     1       6.599  23.623  54.602  1.00  0.00     0.254 C 
BRANCH  16  17
HETATM   17  C   UNL     1       7.418  22.346  54.460  1.00  0.00    -0.023 A 
HETATM   18  C   UNL     1       7.982  21.960  53.230  1.00  0.00     0.009 A 
HETATM   19  C   UNL     1       8.720  20.780  53.125  1.00  0.00     0.001 A 
HETATM   20  C   UNL     1       8.907  19.970  54.242  1.00  0.00     0.000 A 
HETATM   21  C   UNL     1       8.361  20.338  55.468  1.00  0.00     0.001 A 
HETATM   22  C   UNL     1       7.621  21.517  55.578  1.00  0.00     0.009 A 
ENDBRANCH  16  17
BRANCH  16  23
HETATM   23  C   UNL     1       6.989  24.492  55.808  1.00  0.00    -0.023 A 
HETATM   24  C   UNL     1       8.314  24.720  56.225  1.00  0.00     0.009 A 
HETATM   25  C   UNL     1       8.593  25.554  57.314  1.00  0.00     0.001 A 
HETATM   26  C   UNL     1       7.559  26.173  58.009  1.00  0.00     0.000 A 
HETATM   27  C   UNL     1       6.242  25.965  57.617  1.00  0.00     0.001 A 
HETATM   28  C   UNL     1       5.960  25.139  56.526  1.00  0.00     0.009 A 
ENDBRANCH  16  23
ENDBRANCH  12  16
ENDBRANCH   3   9
BRANCH   1  29
HETATM   29  C   UNL     1       4.560  29.376  54.223  1.00  0.00     0.246 C 
HETATM   30  N   UNL     1       5.556  28.602  54.802  1.00  0.00    -0.325 N 
HETATM   31  H   UNL     1       5.612  27.628  54.524  1.00  0.00     0.169 HD
HETATM   32  O   UNL     1       4.413  30.590  54.346  1.00  0.00    -0.271 OA
BRANCH  30  33
HETATM   33  C   UNL     1       6.518  28.992  55.757  1.00  0.00     0.034 A 
HETATM   34  C   UNL     1       7.896  28.896  55.571  1.00  0.00     0.030 A 
HETATM   35  C   UNL     1       8.777  29.371  56.554  1.00  0.00     0.020 A 
HETATM   36  C   UNL     1       8.291  29.950  57.732  1.00  0.00     0.039 A 
HETATM   37  C   UNL     1       6.909  30.023  57.932  1.00  0.00     0.020 A 
HETATM   38  C   UNL     1       6.032  29.547  56.951  1.00  0.00     0.030 A 
BRANCH  36  39
HETATM   39  C   UNL     1       9.267  30.494  58.715  1.00  0.00     0.293 C 
HETATM   40  O   UNL     1      10.148  31.285  58.418  1.00  0.00    -0.259 OA
BRANCH  39  41
HETATM   41  O   UNL     1       9.000  30.020  59.957  1.00  0.00    -0.318 OA
BRANCH  41  42
HETATM   42  C   UNL     1       9.045  30.982  61.022  1.00  0.00     0.174 C 
HETATM   43  C   UNL     1       7.661  31.539  61.291  1.00  0.00     0.034 C 
ENDBRANCH  41  42
ENDBRANCH  39  41
ENDBRANCH  36  39
ENDBRANCH  30  33
ENDBRANCH   1  29
TORSDOF 9
ENDMDL
MODEL 3
REMARK VINA RESULT:     -10.6      1.417      2.093
REMARK  9 active torsions:
REMARK  status: ('A' for Active; 'I' for Inactive)
REMARK    1  A    between atoms: C_2  and  O_3 
REMARK    2  A    between atoms: O_3  and  C_4 
REMARK    3  A    between atoms: C_4  and  C_5 
REMARK    4  A    between atoms: C_8  and  N_9 
REMARK       I    between atoms: N_9  and  C_10 
REMARK    5  A    between atoms: C_10  and  C_11 
REMARK    6  A    between atoms: C_13  and  N_14 
REMARK    7  A    between atoms: N_17  and  C_19 
REMARK    8  A    between atoms: C_19  and  C_20 
REMARK    9  A    between atoms: C_19  and  C_26 
ROOT
HETATM    1  C   UNL     1       6.346  30.229  57.028  1.00  0.00     0.200 C 
HETATM    2  N   UNL     1       6.249  28.777  57.007  1.00  0.00    -0.211 N 
HETATM    3  C   UNL     1       7.053  28.046  57.815  1.00  0.00     0.702 C 
HETATM    4  N   UNL     1       8.073  28.490  58.465  1.00  0.00    -0.028 NA
HETATM    5  C   UNL     1       8.338  29.838  58.400  1.00  0.00     0.263 C 
HETATM    6  O   UNL     1       9.065  30.390  59.220  1.00  0.00    -0.271 OA
HETATM    7  C   UNL     1       7.794  30.618  57.229  1.00  0.00     0.141 C 
HETATM    8  H   UNL     1       5.319  28.410  56.849  1.00  0.00     0.178 HD
ENDROOT
BRANCH   3   9
HETATM    9  N   UNL     1       6.708  26.715  57.821  1.00  0.00    -0.213 N 
HETATM   10  C   UNL     1       7.824  25.739  57.814  1.00  0.00     0.169 C 
HETATM   11  C   UNL     1       8.318  25.462  56.376  1.00  0.00     0.256 C 
HETATM   12  N   UNL     1       7.148  24.953  55.530  1.00  0.00    -0.056 N 
HETATM   13  H   UNL     1       6.716  24.166  56.020  1.00  0.00     0.281 HD
HETATM   14  C   UNL     1       6.066  26.035  55.488  1.00  0.00     0.256 C 
HETATM   15  C   UNL     1       5.590  26.324  56.928  1.00  0.00     0.169 C 
BRANCH  12  16
HETATM   16  C   UNL     1       7.517  24.403  54.155  1.00  0.00     0.254 C 
BRANCH  16  17
HETATM   17  C   UNL     1       7.763  22.899  54.141  1.00  0.00    -0.023 A 
HETATM   18  C   UNL     1       7.640  22.117  55.304  1.00  0.00     0.009 A 
HETATM   19  C   UNL     1       7.881  20.743  55.266  1.00  0.00     0.001 A 
HETATM   20  C   UNL     1       8.246  20.130  54.070  1.00  0.00     0.000 A 
HETATM   21  C   UNL     1       8.368  20.887  52.908  1.00  0.00     0.001 A 
HETATM   22  C   UNL     1       8.129  22.262  52.941  1.00  0.00     0.009 A 
ENDBRANCH  16  17
BRANCH  16  23
HETATM   23  C   UNL     1       6.632  24.908  53.004  1.00  0.00    -0.023 A 
HETATM   24  C   UNL     1       7.012  25.913  52.095  1.00  0.00     0.009 A 
HETATM   25  C   UNL     1       6.164  26.295  51.049  1.00  0.00     0.001 A 
HETATM   26  C   UNL     1       4.923  25.686  50.891  1.00  0.00     0.000 A 
HETATM   27  C   UNL     1       4.525  24.690  51.774  1.00  0.00     0.001 A 
HETATM   28  C   UNL     1       5.372  24.301  52.815  1.00  0.00     0.009 A 
ENDBRANCH  16  23
ENDBRANCH  12  16
ENDBRANCH   3   9
BRANCH   1  29
HETATM   29  C   UNL     1       5.429  30.845  58.112  1.00  0.00     0.246 C 
HETATM   30  N   UNL     1       6.124  31.688  58.968  1.00  0.00    -0.325 N 
HETATM   31  H   UNL     1       7.097  31.875  58.751  1.00  0.00     0.169 HD
HETATM   32  O   UNL     1       4.226  30.598  58.145  1.00  0.00    -0.271 OA
BRANCH  30  33
HETATM   33  C   UNL     1       5.652  32.328  60.132  1.00  0.00     0.034 A 
HETATM   34  C   UNL     1       4.495  33.105  60.190  1.00  0.00     0.030 A 
HETATM   35  C   UNL     1       4.069  33.649  61.411  1.00  0.00     0.020 A 
HETATM   36  C   UNL     1       4.793  33.421  62.588  1.00  0.00     0.039 A 
HETATM   37  C   UNL     1       5.967  32.666  62.526  1.00  0.00     0.020 A 
HETATM   38  C   UNL     1       6.391  32.126  61.307  1.00  0.00     0.030 A 
BRANCH  36  39
HETATM   39  C   UNL     1       4.264  33.970  63.866  1.00  0.00     0.293 C 
HETATM   40  O   UNL     1       3.484  34.906  63.923  1.00  0.00    -0.259 OA
BRANCH  39  41
HETATM   41  O   UNL     1       4.738  33.256  64.917  1.00  0.00    -0.318 OA
BRANCH  41  42
HETATM   42  C   UNL     1       5.368  34.013  65.961  1.00  0.00     0.174 C 
HETATM   43  C   UNL     1       6.871  33.813  65.927  1.00  0.00     0.034 C 
ENDBRANCH  41  42
ENDBRANCH  39  41
ENDBRANCH  36  39
ENDBRANCH  30  33
ENDBRANCH   1  29
TORSDOF 9
ENDMDL
MODEL 4
REMARK VINA RESULT:     -10.5      3.723      7.081
REMARK  9 active torsions:
REMARK  status: ('A' for Active; 'I' for Inactive)
REMARK    1  A    between atoms: C_2  and  O_3 
REMARK    2  A    between atoms: O_3  and  C_4 
REMARK    3  A    between atoms: C_4  and  C_5 
REMARK    4  A    between atoms: C_8  and  N_9 
REMARK       I    between atoms: N_9  and  C_10 
REMARK    5  A    between atoms: C_10  and  C_11 
REMARK    6  A    between atoms: C_13  and  N_14 
REMARK    7  A    between atoms: N_17  and  C_19 
REMARK    8  A    between atoms: C_19  and  C_20 
REMARK    9  A    between atoms: C_19  and  C_26 
ROOT
HETATM    1  C   UNL     1       3.459  28.200  53.263  1.00  0.00     0.200 C 
HETATM    2  N   UNL     1       4.055  26.976  52.749  1.00  0.00    -0.211 N 
HETATM    3  C   UNL     1       4.531  26.950  51.482  1.00  0.00     0.702 C 
HETATM    4  N   UNL     1       4.319  27.844  50.579  1.00  0.00    -0.028 NA
HETATM    5  C   UNL     1       3.610  28.966  50.940  1.00  0.00     0.263 C 
HETATM    6  O   UNL     1       3.639  29.990  50.264  1.00  0.00    -0.271 OA
HETATM    7  C   UNL     1       2.703  28.881  52.142  1.00  0.00     0.141 C 
HETATM    8  H   UNL     1       4.564  26.426  53.431  1.00  0.00     0.178 HD
ENDROOT
BRANCH   3   9
HETATM    9  N   UNL     1       5.231  25.796  51.216  1.00  0.00    -0.213 N 
HETATM   10  C   UNL     1       4.784  24.572  51.922  1.00  0.00     0.169 C 
HETATM   11  C   UNL     1       5.421  24.469  53.326  1.00  0.00     0.256 C 
HETATM   12  N   UNL     1       6.946  24.491  53.191  1.00  0.00    -0.056 N 
HETATM   13  H   UNL     1       7.219  23.773  52.516  1.00  0.00     0.281 HD
HETATM   14  C   UNL     1       7.362  25.816  52.548  1.00  0.00     0.256 C 
HETATM   15  C   UNL     1       6.707  25.925  51.154  1.00  0.00     0.169 C 
BRANCH  12  16
HETATM   16  C   UNL     1       7.726  24.155  54.459  1.00  0.00     0.254 C 
BRANCH  16  17
HETATM   17  C   UNL     1       7.260  24.925  55.689  1.00  0.00    -0.023 A 
HETATM   18  C   UNL     1       8.171  25.504  56.590  1.00  0.00     0.009 A 
HETATM   19  C   UNL     1       7.718  26.196  57.714  1.00  0.00     0.001 A 
HETATM   20  C   UNL     1       6.353  26.321  57.955  1.00  0.00     0.000 A 
HETATM   21  C   UNL     1       5.436  25.758  57.072  1.00  0.00     0.001 A 
HETATM   22  C   UNL     1       5.884  25.064  55.947  1.00  0.00     0.009 A 
ENDBRANCH  16  17
BRANCH  16  23
HETATM   23  C   UNL     1       7.943  22.652  54.700  1.00  0.00    -0.023 A 
HETATM   24  C   UNL     1       8.087  21.698  53.675  1.00  0.00     0.009 A 
HETATM   25  C   UNL     1       8.317  20.350  53.974  1.00  0.00     0.001 A 
HETATM   26  C   UNL     1       8.406  19.928  55.296  1.00  0.00     0.000 A 
HETATM   27  C   UNL     1       8.270  20.850  56.326  1.00  0.00     0.001 A 
HETATM   28  C   UNL     1       8.046  22.197  56.032  1.00  0.00     0.009 A 
ENDBRANCH  16  23
ENDBRANCH  12  16
ENDBRANCH   3   9
BRANCH   1  29
HETATM   29  C   UNL     1       4.523  29.132  53.889  1.00  0.00     0.246 C 
HETATM   30  N   UNL     1       5.482  28.428  54.603  1.00  0.00    -0.325 N 
HETATM   31  H   UNL     1       5.440  27.415  54.568  1.00  0.00     0.169 HD
HETATM   32  O   UNL     1       4.485  30.349  53.718  1.00  0.00    -0.271 OA
BRANCH  30  33
HETATM   33  C   UNL     1       6.527  28.942  55.397  1.00  0.00     0.034 A 
HETATM   34  C   UNL     1       6.340  29.642  56.588  1.00  0.00     0.030 A 
HETATM   35  C   UNL     1       7.446  30.058  57.345  1.00  0.00     0.020 A 
HETATM   36  C   UNL     1       8.750  29.778  56.921  1.00  0.00     0.039 A 
HETATM   37  C   UNL     1       8.940  29.100  55.713  1.00  0.00     0.020 A 
HETATM   38  C   UNL     1       7.836  28.687  54.960  1.00  0.00     0.030 A 
BRANCH  36  39
HETATM   39  C   UNL     1       9.886  30.188  57.792  1.00  0.00     0.293 C 
HETATM   40  O   UNL     1      11.015  29.740  57.677  1.00  0.00    -0.259 OA
BRANCH  39  41
HETATM   41  O   UNL     1       9.486  31.141  58.671  1.00  0.00    -0.318 OA
BRANCH  41  42
HETATM   42  C   UNL     1       9.532  30.777  60.059  1.00  0.00     0.174 C 
HETATM   43  C   UNL     1       9.339  32.000  60.933  1.00  0.00     0.034 C 
ENDBRANCH  41  42
ENDBRANCH  39  41
ENDBRANCH  36  39
ENDBRANCH  30  33
ENDBRANCH   1  29
TORSDOF 9
ENDMDL
MODEL 5
REMARK VINA RESULT:     -10.4      1.493      3.499
REMARK  9 active torsions:
REMARK  status: ('A' for Active; 'I' for Inactive)
REMARK    1  A    between atoms: C_2  and  O_3 
REMARK    2  A    between atoms: O_3  and  C_4 
REMARK    3  A    between atoms: C_4  and  C_5 
REMARK    4  A    between atoms: C_8  and  N_9 
REMARK       I    between atoms: N_9  and  C_10 
REMARK    5  A    between atoms: C_10  and  C_11 
REMARK    6  A    between atoms: C_13  and  N_14 
REMARK    7  A    between atoms: N_17  and  C_19 
REMARK    8  A    between atoms: C_19  and  C_20 
REMARK    9  A    between atoms: C_19  and  C_26 
ROOT
HETATM    1  C   UNL     1       6.518  29.620  56.729  1.00  0.00     0.200 C 
HETATM    2  N   UNL     1       6.494  28.193  57.014  1.00  0.00    -0.211 N 
HETATM    3  C   UNL     1       7.569  27.615  57.601  1.00  0.00     0.702 C 
HETATM    4  N   UNL     1       8.729  28.155  57.746  1.00  0.00    -0.028 NA
HETATM    5  C   UNL     1       8.885  29.460  57.341  1.00  0.00     0.263 C 
HETATM    6  O   UNL     1       9.828  30.145  57.728  1.00  0.00    -0.271 OA
HETATM    7  C   UNL     1       7.921  30.012  56.321  1.00  0.00     0.141 C 
HETATM    8  H   UNL     1       5.588  27.821  57.272  1.00  0.00     0.178 HD
ENDROOT
BRANCH   3   9
HETATM    9  N   UNL     1       7.317  26.316  57.977  1.00  0.00    -0.213 N 
HETATM   10  C   UNL     1       8.359  25.315  57.647  1.00  0.00     0.169 C 
HETATM   11  C   UNL     1       8.190  24.784  56.206  1.00  0.00     0.256 C 
HETATM   12  N   UNL     1       6.792  24.181  56.051  1.00  0.00    -0.056 N 
HETATM   13  H   UNL     1       6.649  23.503  56.804  1.00  0.00     0.281 HD
HETATM   14  C   UNL     1       5.755  25.278  56.304  1.00  0.00     0.256 C 
HETATM   15  C   UNL     1       5.939  25.821  57.738  1.00  0.00     0.169 C 
BRANCH  12  16
HETATM   16  C   UNL     1       6.550  23.396  54.765  1.00  0.00     0.254 C 
BRANCH  16  17
HETATM   17  C   UNL     1       6.447  24.271  53.522  1.00  0.00    -0.023 A 
HETATM   18  C   UNL     1       7.559  24.963  53.008  1.00  0.00     0.009 A 
HETATM   19  C   UNL     1       7.436  25.766  51.874  1.00  0.00     0.001 A 
HETATM   20  C   UNL     1       6.205  25.889  51.234  1.00  0.00     0.000 A 
HETATM   21  C   UNL     1       5.095  25.208  51.725  1.00  0.00     0.001 A 
HETATM   22  C   UNL     1       5.212  24.404  52.860  1.00  0.00     0.009 A 
ENDBRANCH  16  17
BRANCH  16  23
HETATM   23  C   UNL     1       7.443  22.156  54.592  1.00  0.00    -0.023 A 
HETATM   24  C   UNL     1       7.841  21.313  55.646  1.00  0.00     0.009 A 
HETATM   25  C   UNL     1       8.627  20.181  55.404  1.00  0.00     0.001 A 
HETATM   26  C   UNL     1       9.032  19.868  54.111  1.00  0.00     0.000 A 
HETATM   27  C   UNL     1       8.650  20.683  53.052  1.00  0.00     0.001 A 
HETATM   28  C   UNL     1       7.860  21.811  53.289  1.00  0.00     0.009 A 
ENDBRANCH  16  23
ENDBRANCH  12  16
ENDBRANCH   3   9
BRANCH   1  29
HETATM   29  C   UNL     1       6.017  30.450  57.935  1.00  0.00     0.246 C 
HETATM   30  N   UNL     1       7.064  30.955  58.694  1.00  0.00    -0.325 N 
HETATM   31  H   UNL     1       8.006  30.810  58.346  1.00  0.00     0.169 HD
HETATM   32  O   UNL     1       4.817  30.628  58.133  1.00  0.00    -0.271 OA
BRANCH  30  33
HETATM   33  C   UNL     1       6.995  31.652  59.918  1.00  0.00     0.034 A 
HETATM   34  C   UNL     1       6.005  32.579  60.242  1.00  0.00     0.030 A 
HETATM   35  C   UNL     1       5.982  33.174  61.512  1.00  0.00     0.020 A 
HETATM   36  C   UNL     1       6.946  32.847  62.474  1.00  0.00     0.039 A 
HETATM   37  C   UNL     1       7.955  31.938  62.142  1.00  0.00     0.020 A 
HETATM   38  C   UNL     1       7.977  31.347  60.873  1.00  0.00     0.030 A 
BRANCH  36  39
HETATM   39  C   UNL     1       6.840  33.460  63.826  1.00  0.00     0.293 C 
HETATM   40  O   UNL     1       7.768  33.508  64.616  1.00  0.00    -0.259 OA
BRANCH  39  41
HETATM   41  O   UNL     1       5.601  33.979  64.012  1.00  0.00    -0.318 OA
BRANCH  41  42
HETATM   42  C   UNL     1       5.548  35.308  64.552  1.00  0.00     0.174 C 
HETATM   43  C   UNL     1       5.713  36.335  63.448  1.00  0.00     0.034 C 
ENDBRANCH  41  42
ENDBRANCH  39  41
ENDBRANCH  36  39
ENDBRANCH  30  33
ENDBRANCH   1  29
TORSDOF 9
ENDMDL
MODEL 6
REMARK VINA RESULT:     -10.2      3.208      5.107
REMARK  9 active torsions:
REMARK  status: ('A' for Active; 'I' for Inactive)
REMARK    1  A    between atoms: C_2  and  O_3 
REMARK    2  A    between atoms: O_3  and  C_4 
REMARK    3  A    between atoms: C_4  and  C_5 
REMARK    4  A    between atoms: C_8  and  N_9 
REMARK       I    between atoms: N_9  and  C_10 
REMARK    5  A    between atoms: C_10  and  C_11 
REMARK    6  A    between atoms: C_13  and  N_14 
REMARK    7  A    between atoms: N_17  and  C_19 
REMARK    8  A    between atoms: C_19  and  C_20 
REMARK    9  A    between atoms: C_19  and  C_26 
ROOT
HETATM    1  C   UNL     1       3.262  33.304  56.509  1.00  0.00     0.200 C 
HETATM    2  N   UNL     1       3.165  31.884  56.207  1.00  0.00    -0.211 N 
HETATM    3  C   UNL     1       3.948  31.356  55.236  1.00  0.00     0.702 C 
HETATM    4  N   UNL     1       4.636  32.025  54.377  1.00  0.00    -0.028 NA
HETATM    5  C   UNL     1       4.645  33.396  54.489  1.00  0.00     0.263 C 
HETATM    6  O   UNL     1       5.504  34.080  53.940  1.00  0.00    -0.271 OA
HETATM    7  C   UNL     1       3.506  34.060  55.221  1.00  0.00     0.141 C 
HETATM    8  H   UNL     1       2.973  31.287  57.003  1.00  0.00     0.178 HD
ENDROOT
BRANCH   3   9
HETATM    9  N   UNL     1       3.879  29.983  55.206  1.00  0.00    -0.213 N 
HETATM   10  C   UNL     1       3.617  29.303  56.497  1.00  0.00     0.169 C 
HETATM   11  C   UNL     1       4.924  29.082  57.291  1.00  0.00     0.256 C 
HETATM   12  N   UNL     1       5.900  28.267  56.439  1.00  0.00    -0.056 N 
HETATM   13  H   UNL     1       5.418  27.424  56.115  1.00  0.00     0.281 HD
HETATM   14  C   UNL     1       6.215  29.056  55.166  1.00  0.00     0.256 C 
HETATM   15  C   UNL     1       4.904  29.294  54.385  1.00  0.00     0.169 C 
BRANCH  12  16
HETATM   16  C   UNL     1       7.141  27.755  57.164  1.00  0.00     0.254 C 
BRANCH  16  17
HETATM   17  C   UNL     1       7.613  26.388  56.682  1.00  0.00    -0.023 A 
HETATM   18  C   UNL     1       7.295  25.903  55.400  1.00  0.00     0.009 A 
HETATM   19  C   UNL     1       7.731  24.643  54.988  1.00  0.00     0.001 A 
HETATM   20  C   UNL     1       8.491  23.851  55.844  1.00  0.00     0.000 A 
HETATM   21  C   UNL     1       8.819  24.316  57.114  1.00  0.00     0.001 A 
HETATM   22  C   UNL     1       8.384  25.574  57.533  1.00  0.00     0.009 A 
ENDBRANCH  16  17
BRANCH  16  23
HETATM   23  C   UNL     1       8.266  28.791  57.321  1.00  0.00    -0.023 A 
HETATM   24  C   UNL     1       8.385  29.672  58.412  1.00  0.00     0.009 A 
HETATM   25  C   UNL     1       9.460  30.565  58.502  1.00  0.00     0.001 A 
HETATM   26  C   UNL     1      10.431  30.598  57.507  1.00  0.00     0.000 A 
HETATM   27  C   UNL     1      10.338  29.738  56.420  1.00  0.00     0.001 A 
HETATM   28  C   UNL     1       9.271  28.840  56.330  1.00  0.00     0.009 A 
ENDBRANCH  16  23
ENDBRANCH  12  16
ENDBRANCH   3   9
BRANCH   1  29
HETATM   29  C   UNL     1       4.361  33.588  57.561  1.00  0.00     0.246 C 
HETATM   30  N   UNL     1       4.246  32.767  58.674  1.00  0.00    -0.325 N 
HETATM   31  H   UNL     1       3.541  32.038  58.646  1.00  0.00     0.169 HD
HETATM   32  O   UNL     1       5.225  34.440  57.365  1.00  0.00    -0.271 OA
BRANCH  30  33
HETATM   33  C   UNL     1       4.989  32.816  59.872  1.00  0.00     0.034 A 
HETATM   34  C   UNL     1       6.286  32.326  60.015  1.00  0.00     0.030 A 
HETATM   35  C   UNL     1       6.969  32.478  61.230  1.00  0.00     0.020 A 
HETATM   36  C   UNL     1       6.365  33.125  62.316  1.00  0.00     0.039 A 
HETATM   37  C   UNL     1       5.055  33.593  62.182  1.00  0.00     0.020 A 
HETATM   38  C   UNL     1       4.374  33.438  60.969  1.00  0.00     0.030 A 
BRANCH  36  39
HETATM   39  C   UNL     1       7.156  33.315  63.562  1.00  0.00     0.293 C 
HETATM   40  O   UNL     1       8.190  32.713  63.799  1.00  0.00    -0.259 OA
BRANCH  39  41
HETATM   41  O   UNL     1       6.585  34.265  64.343  1.00  0.00    -0.318 OA
BRANCH  41  42
HETATM   42  C   UNL     1       6.314  33.887  65.701  1.00  0.00     0.174 C 
HETATM   43  C   UNL     1       4.819  33.870  65.957  1.00  0.00     0.034 C 
ENDBRANCH  41  42
ENDBRANCH  39  41
ENDBRANCH  36  39
ENDBRANCH  30  33
ENDBRANCH   1  29
TORSDOF 9
ENDMDL
MODEL 7
REMARK VINA RESULT:     -10.2      2.402      2.870
REMARK  9 active torsions:
REMARK  status: ('A' for Active; 'I' for Inactive)
REMARK    1  A    between atoms: C_2  and  O_3 
REMARK    2  A    between atoms: O_3  and  C_4 
REMARK    3  A    between atoms: C_4  and  C_5 
REMARK    4  A    between atoms: C_8  and  N_9 
REMARK       I    between atoms: N_9  and  C_10 
REMARK    5  A    between atoms: C_10  and  C_11 
REMARK    6  A    between atoms: C_13  and  N_14 
REMARK    7  A    between atoms: N_17  and  C_19 
REMARK    8  A    between atoms: C_19  and  C_20 
REMARK    9  A    between atoms: C_19  and  C_26 
ROOT
HETATM    1  C   UNL     1       3.386  30.913  57.750  1.00  0.00     0.200 C 
HETATM    2  N   UNL     1       4.167  29.687  57.815  1.00  0.00    -0.211 N 
HETATM    3  C   UNL     1       5.220  29.525  56.980  1.00  0.00     0.702 C 
HETATM    4  N   UNL     1       5.491  30.260  55.957  1.00  0.00    -0.028 NA
HETATM    5  C   UNL     1       4.690  31.354  55.723  1.00  0.00     0.263 C 
HETATM    6  O   UNL     1       5.053  32.271  54.992  1.00  0.00    -0.271 OA
HETATM    7  C   UNL     1       3.299  31.359  56.306  1.00  0.00     0.141 C 
HETATM    8  H   UNL     1       4.262  29.287  58.740  1.00  0.00     0.178 HD
ENDROOT
BRANCH   3   9
HETATM    9  N   UNL     1       5.964  28.412  57.295  1.00  0.00    -0.213 N 
HETATM   10  C   UNL     1       7.395  28.438  56.907  1.00  0.00     0.169 C 
HETATM   11  C   UNL     1       7.587  27.980  55.444  1.00  0.00     0.256 C 
HETATM   12  N   UNL     1       7.006  26.575  55.275  1.00  0.00    -0.056 N 
HETATM   13  H   UNL     1       7.409  25.971  55.995  1.00  0.00     0.281 HD
HETATM   14  C   UNL     1       5.509  26.623  55.591  1.00  0.00     0.256 C 
HETATM   15  C   UNL     1       5.318  27.101  57.047  1.00  0.00     0.169 C 
BRANCH  12  16
HETATM   16  C   UNL     1       7.330  25.880  53.955  1.00  0.00     0.254 C 
BRANCH  16  17
HETATM   17  C   UNL     1       7.562  24.380  54.092  1.00  0.00    -0.023 A 
HETATM   18  C   UNL     1       7.299  23.696  55.292  1.00  0.00     0.009 A 
HETATM   19  C   UNL     1       7.530  22.323  55.394  1.00  0.00     0.001 A 
HETATM   20  C   UNL     1       8.024  21.614  54.302  1.00  0.00     0.000 A 
HETATM   21  C   UNL     1       8.286  22.274  53.105  1.00  0.00     0.001 A 
HETATM   22  C   UNL     1       8.058  23.647  52.998  1.00  0.00     0.009 A 
ENDBRANCH  16  17
BRANCH  16  23
HETATM   23  C   UNL     1       6.416  26.273  52.782  1.00  0.00    -0.023 A 
HETATM   24  C   UNL     1       6.316  27.575  52.258  1.00  0.00     0.009 A 
HETATM   25  C   UNL     1       5.487  27.848  51.163  1.00  0.00     0.001 A 
HETATM   26  C   UNL     1       4.743  26.831  50.574  1.00  0.00     0.000 A 
HETATM   27  C   UNL     1       4.826  25.537  51.071  1.00  0.00     0.001 A 
HETATM   28  C   UNL     1       5.657  25.259  52.159  1.00  0.00     0.009 A 
ENDBRANCH  16  23
ENDBRANCH  12  16
ENDBRANCH   3   9
BRANCH   1  29
HETATM   29  C   UNL     1       3.980  32.016  58.658  1.00  0.00     0.246 C 
HETATM   30  N   UNL     1       4.326  31.532  59.912  1.00  0.00    -0.325 N 
HETATM   31  H   UNL     1       4.240  30.533  60.067  1.00  0.00     0.169 HD
HETATM   32  O   UNL     1       4.129  33.166  58.250  1.00  0.00    -0.271 OA
BRANCH  30  33
HETATM   33  C   UNL     1       4.781  32.260  61.030  1.00  0.00     0.034 A 
HETATM   34  C   UNL     1       6.093  32.700  61.202  1.00  0.00     0.030 A 
HETATM   35  C   UNL     1       6.438  33.475  62.319  1.00  0.00     0.020 A 
HETATM   36  C   UNL     1       5.476  33.821  63.276  1.00  0.00     0.039 A 
HETATM   37  C   UNL     1       4.166  33.357  63.119  1.00  0.00     0.020 A 
HETATM   38  C   UNL     1       3.825  32.583  62.005  1.00  0.00     0.030 A 
BRANCH  36  39
HETATM   39  C   UNL     1       5.881  34.696  64.410  1.00  0.00     0.293 C 
HETATM   40  O   UNL     1       6.778  34.416  65.187  1.00  0.00    -0.259 OA
BRANCH  39  41
HETATM   41  O   UNL     1       5.146  35.836  64.411  1.00  0.00    -0.318 OA
BRANCH  41  42
HETATM   42  C   UNL     1       4.682  36.286  65.693  1.00  0.00     0.174 C 
HETATM   43  C   UNL     1       3.519  35.434  66.164  1.00  0.00     0.034 C 
ENDBRANCH  41  42
ENDBRANCH  39  41
ENDBRANCH  36  39
ENDBRANCH  30  33
ENDBRANCH   1  29
TORSDOF 9
ENDMDL
MODEL 8
REMARK VINA RESULT:     -10.2      3.761      5.646
REMARK  9 active torsions:
REMARK  status: ('A' for Active; 'I' for Inactive)
REMARK    1  A    between atoms: C_2  and  O_3 
REMARK    2  A    between atoms: O_3  and  C_4 
REMARK    3  A    between atoms: C_4  and  C_5 
REMARK    4  A    between atoms: C_8  and  N_9 
REMARK       I    between atoms: N_9  and  C_10 
REMARK    5  A    between atoms: C_10  and  C_11 
REMARK    6  A    between atoms: C_13  and  N_14 
REMARK    7  A    between atoms: N_17  and  C_19 
REMARK    8  A    between atoms: C_19  and  C_20 
REMARK    9  A    between atoms: C_19  and  C_26 
ROOT
HETATM    1  C   UNL     1       3.001  32.675  54.867  1.00  0.00     0.200 C 
HETATM    2  N   UNL     1       2.877  31.264  54.535  1.00  0.00    -0.211 N 
HETATM    3  C   UNL     1       3.557  30.769  53.474  1.00  0.00     0.702 C 
HETATM    4  N   UNL     1       4.152  31.466  52.569  1.00  0.00    -0.028 NA
HETATM    5  C   UNL     1       4.169  32.833  52.719  1.00  0.00     0.263 C 
HETATM    6  O   UNL     1       4.966  33.537  52.106  1.00  0.00    -0.271 OA
HETATM    7  C   UNL     1       3.110  33.470  53.583  1.00  0.00     0.141 C 
HETATM    8  H   UNL     1       2.769  30.643  55.328  1.00  0.00     0.178 HD
ENDROOT
BRANCH   3   9
HETATM    9  N   UNL     1       3.490  29.397  53.411  1.00  0.00    -0.213 N 
HETATM   10  C   UNL     1       3.730  28.661  54.675  1.00  0.00     0.169 C 
HETATM   11  C   UNL     1       5.240  28.437  54.915  1.00  0.00     0.256 C 
HETATM   12  N   UNL     1       5.832  27.677  53.726  1.00  0.00    -0.056 N 
HETATM   13  H   UNL     1       5.269  26.838  53.567  1.00  0.00     0.281 HD
HETATM   14  C   UNL     1       5.647  28.522  52.463  1.00  0.00     0.256 C 
HETATM   15  C   UNL     1       4.138  28.762  52.237  1.00  0.00     0.169 C 
BRANCH  12  16
HETATM   16  C   UNL     1       7.257  27.163  53.913  1.00  0.00     0.254 C 
BRANCH  16  17
HETATM   17  C   UNL     1       7.997  27.815  55.074  1.00  0.00    -0.023 A 
HETATM   18  C   UNL     1       7.819  27.385  56.402  1.00  0.00     0.009 A 
HETATM   19  C   UNL     1       8.502  28.006  57.449  1.00  0.00     0.001 A 
HETATM   20  C   UNL     1       9.372  29.061  57.187  1.00  0.00     0.000 A 
HETATM   21  C   UNL     1       9.565  29.497  55.880  1.00  0.00     0.001 A 
HETATM   22  C   UNL     1       8.884  28.880  54.829  1.00  0.00     0.009 A 
ENDBRANCH  16  17
BRANCH  16  23
HETATM   23  C   UNL     1       7.400  25.633  53.853  1.00  0.00    -0.023 A 
HETATM   24  C   UNL     1       7.032  24.761  54.894  1.00  0.00     0.009 A 
HETATM   25  C   UNL     1       7.159  23.375  54.751  1.00  0.00     0.001 A 
HETATM   26  C   UNL     1       7.657  22.832  53.571  1.00  0.00     0.000 A 
HETATM   27  C   UNL     1       8.026  23.671  52.527  1.00  0.00     0.001 A 
HETATM   28  C   UNL     1       7.894  25.055  52.663  1.00  0.00     0.009 A 
ENDBRANCH  16  23
ENDBRANCH  12  16
ENDBRANCH   3   9
BRANCH   1  29
HETATM   29  C   UNL     1       4.201  32.935  55.808  1.00  0.00     0.246 C 
HETATM   30  N   UNL     1       4.308  31.970  56.800  1.00  0.00    -0.325 N 
HETATM   31  H   UNL     1       3.671  31.182  56.755  1.00  0.00     0.169 HD
HETATM   32  O   UNL     1       4.954  33.890  55.632  1.00  0.00    -0.271 OA
BRANCH  30  33
HETATM   33  C   UNL     1       5.196  31.942  57.895  1.00  0.00     0.034 A 
HETATM   34  C   UNL     1       6.407  31.252  57.909  1.00  0.00     0.030 A 
HETATM   35  C   UNL     1       7.256  31.336  59.022  1.00  0.00     0.020 A 
HETATM   36  C   UNL     1       6.905  32.113  60.133  1.00  0.00     0.039 A 
HETATM   37  C   UNL     1       5.679  32.783  60.132  1.00  0.00     0.020 A 
HETATM   38  C   UNL     1       4.833  32.696  59.021  1.00  0.00     0.030 A 
BRANCH  36  39
HETATM   39  C   UNL     1       7.870  32.217  61.263  1.00  0.00     0.293 C 
HETATM   40  O   UNL     1       9.080  32.173  61.118  1.00  0.00    -0.259 OA
BRANCH  39  41
HETATM   41  O   UNL     1       7.208  32.408  62.431  1.00  0.00    -0.318 OA
BRANCH  41  42
HETATM   42  C   UNL     1       8.023  32.686  63.579  1.00  0.00     0.174 C 
HETATM   43  C   UNL     1       7.202  33.360  64.661  1.00  0.00     0.034 C 
ENDBRANCH  41  42
ENDBRANCH  39  41
ENDBRANCH  36  39
ENDBRANCH  30  33
ENDBRANCH   1  29
TORSDOF 9
ENDMDL
MODEL 9
REMARK VINA RESULT:     -10.0      3.345     11.537
REMARK  9 active torsions:
REMARK  status: ('A' for Active; 'I' for Inactive)
REMARK    1  A    between atoms: C_2  and  O_3 
REMARK    2  A    between atoms: O_3  and  C_4 
REMARK    3  A    between atoms: C_4  and  C_5 
REMARK    4  A    between atoms: C_8  and  N_9 
REMARK       I    between atoms: N_9  and  C_10 
REMARK    5  A    between atoms: C_10  and  C_11 
REMARK    6  A    between atoms: C_13  and  N_14 
REMARK    7  A    between atoms: N_17  and  C_19 
REMARK    8  A    between atoms: C_19  and  C_20 
REMARK    9  A    between atoms: C_19  and  C_26 
ROOT
HETATM    1  C   UNL     1       5.691  31.507  56.791  1.00  0.00     0.200 C 
HETATM    2  N   UNL     1       5.098  32.170  57.942  1.00  0.00    -0.211 N 
HETATM    3  C   UNL     1       3.756  32.348  57.988  1.00  0.00     0.702 C 
HETATM    4  N   UNL     1       2.941  32.186  57.003  1.00  0.00    -0.028 NA
HETATM    5  C   UNL     1       3.453  31.719  55.815  1.00  0.00     0.263 C 
HETATM    6  O   UNL     1       2.731  31.235  54.950  1.00  0.00    -0.271 OA
HETATM    7  C   UNL     1       4.926  31.910  55.549  1.00  0.00     0.141 C 
HETATM    8  H   UNL     1       5.556  31.988  58.827  1.00  0.00     0.178 HD
ENDROOT
BRANCH   3   9
HETATM    9  N   UNL     1       3.337  32.809  59.214  1.00  0.00    -0.213 N 
HETATM   10  C   UNL     1       3.694  34.206  59.556  1.00  0.00     0.169 C 
HETATM   11  C   UNL     1       5.111  34.290  60.164  1.00  0.00     0.256 C 
HETATM   12  N   UNL     1       5.183  33.395  61.403  1.00  0.00    -0.056 N 
HETATM   13  H   UNL     1       4.408  33.642  62.024  1.00  0.00     0.281 HD
HETATM   14  C   UNL     1       4.905  31.950  60.980  1.00  0.00     0.256 C 
HETATM   15  C   UNL     1       3.496  31.873  60.354  1.00  0.00     0.169 C 
BRANCH  12  16
HETATM   16  C   UNL     1       6.436  33.550  62.260  1.00  0.00     0.254 C 
BRANCH  16  17
HETATM   17  C   UNL     1       6.147  33.709  63.748  1.00  0.00    -0.023 A 
HETATM   18  C   UNL     1       7.180  33.804  64.698  1.00  0.00     0.009 A 
HETATM   19  C   UNL     1       6.888  33.938  66.056  1.00  0.00     0.001 A 
HETATM   20  C   UNL     1       5.564  33.982  66.485  1.00  0.00     0.000 A 
HETATM   21  C   UNL     1       4.529  33.894  65.559  1.00  0.00     0.001 A 
HETATM   22  C   UNL     1       4.815  33.758  64.200  1.00  0.00     0.009 A 
ENDBRANCH  16  17
BRANCH  16  23
HETATM   23  C   UNL     1       7.561  32.553  61.938  1.00  0.00    -0.023 A 
HETATM   24  C   UNL     1       7.810  31.377  62.671  1.00  0.00     0.009 A 
HETATM   25  C   UNL     1       8.833  30.498  62.294  1.00  0.00     0.001 A 
HETATM   26  C   UNL     1       9.625  30.775  61.186  1.00  0.00     0.000 A 
HETATM   27  C   UNL     1       9.398  31.928  60.444  1.00  0.00     0.001 A 
HETATM   28  C   UNL     1       8.374  32.804  60.813  1.00  0.00     0.009 A 
ENDBRANCH  16  23
ENDBRANCH  12  16
ENDBRANCH   3   9
BRANCH   1  29
HETATM   29  C   UNL     1       5.725  29.971  56.973  1.00  0.00     0.246 C 
HETATM   30  N   UNL     1       6.894  29.410  56.478  1.00  0.00    -0.325 N 
HETATM   31  H   UNL     1       7.612  30.045  56.145  1.00  0.00     0.169 HD
HETATM   32  O   UNL     1       4.802  29.374  57.523  1.00  0.00    -0.271 OA
BRANCH  30  33
HETATM   33  C   UNL     1       7.224  28.044  56.365  1.00  0.00     0.034 A 
HETATM   34  C   UNL     1       7.700  27.259  57.414  1.00  0.00     0.030 A 
HETATM   35  C   UNL     1       7.939  25.890  57.220  1.00  0.00     0.020 A 
HETATM   36  C   UNL     1       7.704  25.291  55.977  1.00  0.00     0.039 A 
HETATM   37  C   UNL     1       7.253  26.082  54.917  1.00  0.00     0.020 A 
HETATM   38  C   UNL     1       7.016  27.448  55.112  1.00  0.00     0.030 A 
BRANCH  36  39
HETATM   39  C   UNL     1       7.916  23.823  55.842  1.00  0.00     0.293 C 
HETATM   40  O   UNL     1       8.149  23.089  56.788  1.00  0.00    -0.259 OA
BRANCH  39  41
HETATM   41  O   UNL     1       7.768  23.443  54.549  1.00  0.00    -0.318 OA
BRANCH  41  42
HETATM   42  C   UNL     1       8.688  22.448  54.075  1.00  0.00     0.174 C 
HETATM   43  C   UNL     1       7.940  21.214  53.610  1.00  0.00     0.034 C 
ENDBRANCH  41  42
ENDBRANCH  39  41
ENDBRANCH  36  39
ENDBRANCH  30  33
ENDBRANCH   1  29
TORSDOF 9
ENDMDL
MODEL 10
REMARK VINA RESULT:      -9.9      4.019      6.362
REMARK  9 active torsions:
REMARK  status: ('A' for Active; 'I' for Inactive)
REMARK    1  A    between atoms: C_2  and  O_3 
REMARK    2  A    between atoms: O_3  and  C_4 
REMARK    3  A    between atoms: C_4  and  C_5 
REMARK    4  A    between atoms: C_8  and  N_9 
REMARK       I    between atoms: N_9  and  C_10 
REMARK    5  A    between atoms: C_10  and  C_11 
REMARK    6  A    between atoms: C_13  and  N_14 
REMARK    7  A    between atoms: N_17  and  C_19 
REMARK    8  A    between atoms: C_19  and  C_20 
REMARK    9  A    between atoms: C_19  and  C_26 
ROOT
HETATM    1  C   UNL     1       2.946  32.067  52.919  1.00  0.00     0.200 C 
HETATM    2  N   UNL     1       2.873  30.617  52.835  1.00  0.00    -0.211 N 
HETATM    3  C   UNL     1       3.777  29.948  52.079  1.00  0.00     0.702 C 
HETATM    4  N   UNL     1       4.586  30.478  51.229  1.00  0.00    -0.028 NA
HETATM    5  C   UNL     1       4.597  31.850  51.122  1.00  0.00     0.263 C 
HETATM    6  O   UNL     1       5.533  32.446  50.597  1.00  0.00    -0.271 OA
HETATM    7  C   UNL     1       3.377  32.612  51.574  1.00  0.00     0.141 C 
HETATM    8  H   UNL     1       2.565  30.152  53.681  1.00  0.00     0.178 HD
ENDROOT
BRANCH   3   9
HETATM    9  N   UNL     1       3.695  28.587  52.259  1.00  0.00    -0.213 N 
HETATM   10  C   UNL     1       3.712  28.100  53.658  1.00  0.00     0.169 C 
HETATM   11  C   UNL     1       5.157  27.942  54.181  1.00  0.00     0.256 C 
HETATM   12  N   UNL     1       5.923  26.984  53.266  1.00  0.00    -0.056 N 
HETATM   13  H   UNL     1       5.378  26.123  53.173  1.00  0.00     0.281 HD
HETATM   14  C   UNL     1       5.963  27.580  51.856  1.00  0.00     0.256 C 
HETATM   15  C   UNL     1       4.516  27.756  51.345  1.00  0.00     0.169 C 
BRANCH  12  16
HETATM   16  C   UNL     1       7.288  26.531  53.776  1.00  0.00     0.254 C 
BRANCH  16  17
HETATM   17  C   UNL     1       7.784  27.319  54.983  1.00  0.00    -0.023 A 
HETATM   18  C   UNL     1       8.453  28.548  54.842  1.00  0.00     0.009 A 
HETATM   19  C   UNL     1       8.906  29.244  55.963  1.00  0.00     0.001 A 
HETATM   20  C   UNL     1       8.697  28.727  57.239  1.00  0.00     0.000 A 
HETATM   21  C   UNL     1       8.033  27.515  57.399  1.00  0.00     0.001 A 
HETATM   22  C   UNL     1       7.579  26.813  56.280  1.00  0.00     0.009 A 
ENDBRANCH  16  17
BRANCH  16  23
HETATM   23  C   UNL     1       7.451  25.008  53.906  1.00  0.00    -0.023 A 
HETATM   24  C   UNL     1       7.132  24.273  55.063  1.00  0.00     0.009 A 
HETATM   25  C   UNL     1       7.274  22.881  55.093  1.00  0.00     0.001 A 
HETATM   26  C   UNL     1       7.739  22.197  53.975  1.00  0.00     0.000 A 
HETATM   27  C   UNL     1       8.059  22.899  52.819  1.00  0.00     0.001 A 
HETATM   28  C   UNL     1       7.912  24.288  52.783  1.00  0.00     0.009 A 
ENDBRANCH  16  23
ENDBRANCH  12  16
ENDBRANCH   3   9
BRANCH   1  29
HETATM   29  C   UNL     1       3.891  32.526  54.054  1.00  0.00     0.246 C 
HETATM   30  N   UNL     1       3.944  31.609  55.095  1.00  0.00    -0.325 N 
HETATM   31  H   UNL     1       3.450  30.731  54.969  1.00  0.00     0.169 HD
HETATM   32  O   UNL     1       4.517  33.581  53.976  1.00  0.00    -0.271 OA
BRANCH  30  33
HETATM   33  C   UNL     1       4.599  31.738  56.336  1.00  0.00     0.034 A 
HETATM   34  C   UNL     1       5.673  30.948  56.747  1.00  0.00     0.030 A 
HETATM   35  C   UNL     1       6.303  31.194  57.976  1.00  0.00     0.020 A 
HETATM   36  C   UNL     1       5.869  32.234  58.807  1.00  0.00     0.039 A 
HETATM   37  C   UNL     1       4.776  33.010  58.410  1.00  0.00     0.020 A 
HETATM   38  C   UNL     1       4.148  32.761  57.184  1.00  0.00     0.030 A 
BRANCH  36  39
HETATM   39  C   UNL     1       6.611  32.492  60.072  1.00  0.00     0.293 C 
HETATM   40  O   UNL     1       6.075  32.538  61.166  1.00  0.00    -0.259 OA
BRANCH  39  41
HETATM   41  O   UNL     1       7.938  32.618  59.822  1.00  0.00    -0.318 OA
BRANCH  41  42
HETATM   42  C   UNL     1       8.821  32.080  60.819  1.00  0.00     0.174 C 
HETATM   43  C   UNL     1       9.131  30.626  60.522  1.00  0.00     0.034 C 
ENDBRANCH  41  42
ENDBRANCH  39  41
ENDBRANCH  36  39
ENDBRANCH  30  33
ENDBRANCH   1  29
TORSDOF 9
ENDMDL
