MODEL 1
REMARK VINA RESULT:      -9.8      0.000      0.000
REMARK  6 active torsions:
REMARK  status: ('A' for Active; 'I' for Inactive)
REMARK    1  A    between atoms: C_5  and  C_6 
REMARK    2  A    between atoms: C_12  and  C_13 
REMARK       I    between atoms: C_13  and  N_14 
REMARK    3  A    between atoms: N_14  and  C_15 
REMARK    4  A    between atoms: C_18  and  C_19 
REMARK    5  A    between atoms: C_19  and  O_20 
REMARK    6  A    between atoms: C_25  and  C_26 
ROOT
HETATM    1  C   UNL     1       7.960  25.606  52.789  1.00  0.00     0.118 C 
HETATM    2  N   UNL     1       7.997  26.819  53.627  1.00  0.00    -0.365 N 
HETATM    3  C   UNL     1       6.832  27.415  54.012  1.00  0.00     0.138 A 
HETATM    4  N   UNL     1       5.628  27.064  53.447  1.00  0.00    -0.240 N 
HETATM    5  N   UNL     1       4.604  27.839  53.834  1.00  0.00    -0.181 NA
HETATM    6  C   UNL     1       5.154  28.633  54.759  1.00  0.00     0.160 A 
HETATM    7  C   UNL     1       6.544  28.418  54.921  1.00  0.00     0.096 A 
HETATM    8  C   UNL     1       5.462  26.095  52.381  1.00  0.00     0.221 C 
HETATM    9  C   UNL     1       6.826  25.745  51.758  1.00  0.00     0.066 C 
HETATM   10  H   UNL     1       8.773  27.434  53.371  1.00  0.00     0.161 HD
ENDROOT
BRANCH   7  11
HETATM   11  C   UNL     1       7.417  29.130  55.845  1.00  0.00     0.261 C 
HETATM   12  N   UNL     1       6.757  29.664  56.934  1.00  0.00    -0.323 N 
HETATM   13  H   UNL     1       5.750  29.553  56.927  1.00  0.00     0.169 HD
HETATM   14  O   UNL     1       8.621  29.202  55.626  1.00  0.00    -0.267 OA
BRANCH  12  15
HETATM   15  C   UNL     1       7.316  30.299  58.059  1.00  0.00     0.035 A 
HETATM   16  C   UNL     1       8.402  29.802  58.777  1.00  0.00     0.030 A 
HETATM   17  C   UNL     1       8.873  30.469  59.917  1.00  0.00     0.012 A 
HETATM   18  C   UNL     1       8.273  31.653  60.368  1.00  0.00    -0.030 A 
HETATM   19  C   UNL     1       7.181  32.145  59.635  1.00  0.00     0.012 A 
HETATM   20  C   UNL     1       6.719  31.487  58.488  1.00  0.00     0.030 A 
BRANCH  18  21
HETATM   21  C   UNL     1       8.704  32.351  61.646  1.00  0.00     0.147 C 
HETATM   22  C   UNL     1       7.954  31.942  62.912  1.00  0.00     0.044 C 
BRANCH  21  23
HETATM   23  O   UNL     1      10.097  32.109  61.869  1.00  0.00    -0.391 OA
HETATM   24  H   UNL     1      10.219  32.003  62.828  1.00  0.00     0.210 HD
ENDBRANCH  21  23
ENDBRANCH  18  21
ENDBRANCH  12  15
ENDBRANCH   7  11
BRANCH   1  25
HETATM   25  C   UNL     1       7.939  24.326  53.613  1.00  0.00    -0.035 A 
HETATM   26  C   UNL     1       7.987  24.330  55.018  1.00  0.00     0.010 A 
HETATM   27  C   UNL     1       7.937  23.140  55.750  1.00  0.00     0.007 A 
HETATM   28  C   UNL     1       7.842  21.910  55.097  1.00  0.00    -0.062 A 
HETATM   29  C   UNL     1       7.786  20.631  55.880  1.00  0.00     0.048 C 
HETATM   30  C   UNL     1       7.849  21.886  53.700  1.00  0.00     0.007 A 
HETATM   31  C   UNL     1       7.903  23.077  52.968  1.00  0.00     0.010 A 
ENDBRANCH   1  25
BRANCH   8  32
HETATM   32  C   UNL     1       4.672  24.903  52.874  1.00  0.00     0.409 C 
HETATM   33  F   UNL     1       4.756  23.821  52.080  1.00  0.00    -0.169 F 
HETATM   34  F   UNL     1       5.051  24.524  54.117  1.00  0.00    -0.169 F 
HETATM   35  F   UNL     1       3.355  25.230  52.970  1.00  0.00    -0.169 F 
ENDBRANCH   8  32
TORSDOF 6
ENDMDL
MODEL 2
REMARK VINA RESULT:      -9.7      5.309      8.456
REMARK  6 active torsions:
REMARK  status: ('A' for Active; 'I' for Inactive)
REMARK    1  A    between atoms: C_5  and  C_6 
REMARK    2  A    between atoms: C_12  and  C_13 
REMARK       I    between atoms: C_13  and  N_14 
REMARK    3  A    between atoms: N_14  and  C_15 
REMARK    4  A    between atoms: C_18  and  C_19 
REMARK    5  A    between atoms: C_19  and  O_20 
REMARK    6  A    between atoms: C_25  and  C_26 
ROOT
HETATM    1  C   UNL     1       5.321  28.559  49.274  1.00  0.00     0.118 C 
HETATM    2  N   UNL     1       5.599  27.606  50.365  1.00  0.00    -0.365 N 
HETATM    3  C   UNL     1       5.119  27.849  51.619  1.00  0.00     0.138 A 
HETATM    4  N   UNL     1       4.590  29.072  51.959  1.00  0.00    -0.240 N 
HETATM    5  N   UNL     1       4.294  29.190  53.261  1.00  0.00    -0.181 NA
HETATM    6  C   UNL     1       4.537  27.966  53.741  1.00  0.00     0.160 A 
HETATM    7  C   UNL     1       5.053  27.078  52.766  1.00  0.00     0.096 A 
HETATM    8  C   UNL     1       4.526  30.222  51.077  1.00  0.00     0.221 C 
HETATM    9  C   UNL     1       5.401  29.991  49.831  1.00  0.00     0.066 C 
HETATM   10  H   UNL     1       6.539  27.210  50.294  1.00  0.00     0.161 HD
ENDROOT
BRANCH   7  11
HETATM   11  C   UNL     1       5.418  25.684  52.987  1.00  0.00     0.261 C 
HETATM   12  N   UNL     1       6.750  25.502  53.306  1.00  0.00    -0.323 N 
HETATM   13  H   UNL     1       7.318  26.341  53.286  1.00  0.00     0.169 HD
HETATM   14  O   UNL     1       4.573  24.802  52.895  1.00  0.00    -0.267 OA
BRANCH  12  15
HETATM   15  C   UNL     1       7.393  24.312  53.693  1.00  0.00     0.035 A 
HETATM   16  C   UNL     1       7.776  23.308  52.805  1.00  0.00     0.030 A 
HETATM   17  C   UNL     1       8.372  22.128  53.272  1.00  0.00     0.012 A 
HETATM   18  C   UNL     1       8.602  21.920  54.639  1.00  0.00    -0.030 A 
HETATM   19  C   UNL     1       8.213  22.939  55.522  1.00  0.00     0.012 A 
HETATM   20  C   UNL     1       7.632  24.125  55.056  1.00  0.00     0.030 A 
BRANCH  18  21
HETATM   21  C   UNL     1       9.165  20.618  55.182  1.00  0.00     0.147 C 
HETATM   22  C   UNL     1       8.697  20.226  56.582  1.00  0.00     0.044 C 
BRANCH  21  23
HETATM   23  O   UNL     1       8.823  19.549  54.295  1.00  0.00    -0.391 OA
HETATM   24  H   UNL     1       9.625  19.013  54.171  1.00  0.00     0.210 HD
ENDBRANCH  21  23
ENDBRANCH  18  21
ENDBRANCH  12  15
ENDBRANCH   7  11
BRANCH   1  25
HETATM   25  C   UNL     1       4.044  28.225  48.516  1.00  0.00    -0.035 A 
HETATM   26  C   UNL     1       3.321  27.041  48.737  1.00  0.00     0.010 A 
HETATM   27  C   UNL     1       2.136  26.773  48.046  1.00  0.00     0.007 A 
HETATM   28  C   UNL     1       1.642  27.681  47.108  1.00  0.00    -0.062 A 
HETATM   29  C   UNL     1       0.369  27.398  46.366  1.00  0.00     0.048 C 
HETATM   30  C   UNL     1       2.379  28.837  46.836  1.00  0.00     0.007 A 
HETATM   31  C   UNL     1       3.567  29.102  47.526  1.00  0.00     0.010 A 
ENDBRANCH   1  25
BRANCH   8  32
HETATM   32  C   UNL     1       3.086  30.574  50.777  1.00  0.00     0.409 C 
HETATM   33  F   UNL     1       2.910  31.227  49.615  1.00  0.00    -0.169 F 
HETATM   34  F   UNL     1       2.292  29.477  50.750  1.00  0.00    -0.169 F 
HETATM   35  F   UNL     1       2.590  31.369  51.763  1.00  0.00    -0.169 F 
ENDBRANCH   8  32
TORSDOF 6
ENDMDL
MODEL 3
REMARK VINA RESULT:      -9.4      4.593      7.865
REMARK  6 active torsions:
REMARK  status: ('A' for Active; 'I' for Inactive)
REMARK    1  A    between atoms: C_5  and  C_6 
REMARK    2  A    between atoms: C_12  and  C_13 
REMARK       I    between atoms: C_13  and  N_14 
REMARK    3  A    between atoms: N_14  and  C_15 
REMARK    4  A    between atoms: C_18  and  C_19 
REMARK    5  A    between atoms: C_19  and  O_20 
REMARK    6  A    between atoms: C_25  and  C_26 
ROOT
HETATM    1  C   UNL     1       5.778  29.013  50.206  1.00  0.00     0.118 C 
HETATM    2  N   UNL     1       6.091  28.412  51.516  1.00  0.00    -0.365 N 
HETATM    3  C   UNL     1       5.249  28.608  52.572  1.00  0.00     0.138 A 
HETATM    4  N   UNL     1       4.244  29.545  52.522  1.00  0.00    -0.240 N 
HETATM    5  N   UNL     1       3.600  29.709  53.688  1.00  0.00    -0.181 NA
HETATM    6  C   UNL     1       4.138  28.766  54.468  1.00  0.00     0.160 A 
HETATM    7  C   UNL     1       5.174  28.039  53.831  1.00  0.00     0.096 A 
HETATM    8  C   UNL     1       3.998  30.439  51.408  1.00  0.00     0.221 C 
HETATM    9  C   UNL     1       5.186  30.416  50.429  1.00  0.00     0.066 C 
HETATM   10  H   UNL     1       7.095  28.427  51.711  1.00  0.00     0.161 HD
ENDROOT
BRANCH   7  11
HETATM   11  C   UNL     1       5.949  26.958  54.425  1.00  0.00     0.261 C 
HETATM   12  N   UNL     1       5.770  25.738  53.804  1.00  0.00    -0.323 N 
HETATM   13  H   UNL     1       5.080  25.728  53.060  1.00  0.00     0.169 HD
HETATM   14  O   UNL     1       6.686  27.179  55.380  1.00  0.00    -0.267 OA
BRANCH  12  15
HETATM   15  C   UNL     1       6.452  24.532  54.049  1.00  0.00     0.035 A 
HETATM   16  C   UNL     1       6.671  24.004  55.321  1.00  0.00     0.030 A 
HETATM   17  C   UNL     1       7.401  22.819  55.488  1.00  0.00     0.012 A 
HETATM   18  C   UNL     1       7.930  22.128  54.389  1.00  0.00    -0.030 A 
HETATM   19  C   UNL     1       7.700  22.669  53.114  1.00  0.00     0.012 A 
HETATM   20  C   UNL     1       6.959  23.844  52.944  1.00  0.00     0.030 A 
BRANCH  18  21
HETATM   21  C   UNL     1       8.797  20.891  54.543  1.00  0.00     0.147 C 
HETATM   22  C   UNL     1       8.590  20.090  55.827  1.00  0.00     0.044 C 
BRANCH  21  23
HETATM   23  O   UNL     1       8.565  20.010  53.440  1.00  0.00    -0.391 OA
HETATM   24  H   UNL     1       8.283  20.561  52.689  1.00  0.00     0.210 HD
ENDBRANCH  21  23
ENDBRANCH  18  21
ENDBRANCH  12  15
ENDBRANCH   7  11
BRANCH   1  25
HETATM   25  C   UNL     1       4.953  28.090  49.321  1.00  0.00    -0.035 A 
HETATM   26  C   UNL     1       4.500  28.471  48.046  1.00  0.00     0.010 A 
HETATM   27  C   UNL     1       3.767  27.593  47.243  1.00  0.00     0.007 A 
HETATM   28  C   UNL     1       3.461  26.308  47.694  1.00  0.00    -0.062 A 
HETATM   29  C   UNL     1       2.677  25.362  46.833  1.00  0.00     0.048 C 
HETATM   30  C   UNL     1       3.857  25.933  48.980  1.00  0.00     0.007 A 
HETATM   31  C   UNL     1       4.587  26.815  49.785  1.00  0.00     0.010 A 
ENDBRANCH   1  25
BRANCH   8  32
HETATM   32  C   UNL     1       2.658  30.133  50.775  1.00  0.00     0.409 C 
HETATM   33  F   UNL     1       2.265  28.854  50.910  1.00  0.00    -0.169 F 
HETATM   34  F   UNL     1       1.672  30.914  51.275  1.00  0.00    -0.169 F 
HETATM   35  F   UNL     1       2.705  30.400  49.442  1.00  0.00    -0.169 F 
ENDBRANCH   8  32
TORSDOF 6
ENDMDL
MODEL 4
REMARK VINA RESULT:      -9.3      3.755      8.232
REMARK  6 active torsions:
REMARK  status: ('A' for Active; 'I' for Inactive)
REMARK    1  A    between atoms: C_5  and  C_6 
REMARK    2  A    between atoms: C_12  and  C_13 
REMARK       I    between atoms: C_13  and  N_14 
REMARK    3  A    between atoms: N_14  and  C_15 
REMARK    4  A    between atoms: C_18  and  C_19 
REMARK    5  A    between atoms: C_19  and  O_20 
REMARK    6  A    between atoms: C_25  and  C_26 
ROOT
HETATM    1  C   UNL     1       5.153  28.793  57.465  1.00  0.00     0.118 C 
HETATM    2  N   UNL     1       5.003  27.806  56.380  1.00  0.00    -0.365 N 
HETATM    3  C   UNL     1       4.603  28.214  55.141  1.00  0.00     0.138 A 
HETATM    4  N   UNL     1       4.102  29.477  54.930  1.00  0.00    -0.240 N 
HETATM    5  N   UNL     1       3.627  29.670  53.690  1.00  0.00    -0.181 NA
HETATM    6  C   UNL     1       3.939  28.531  53.064  1.00  0.00     0.160 A 
HETATM    7  C   UNL     1       4.554  27.578  53.912  1.00  0.00     0.096 A 
HETATM    8  C   UNL     1       3.898  30.472  55.965  1.00  0.00     0.221 C 
HETATM    9  C   UNL     1       4.020  29.829  57.358  1.00  0.00     0.066 C 
HETATM   10  H   UNL     1       4.627  26.918  56.723  1.00  0.00     0.161 HD
ENDROOT
BRANCH   7  11
HETATM   11  C   UNL     1       5.001  26.248  53.522  1.00  0.00     0.261 C 
HETATM   12  N   UNL     1       6.269  25.933  53.969  1.00  0.00    -0.323 N 
HETATM   13  H   UNL     1       6.755  26.679  54.454  1.00  0.00     0.169 HD
HETATM   14  O   UNL     1       4.267  25.517  52.867  1.00  0.00    -0.267 OA
BRANCH  12  15
HETATM   15  C   UNL     1       6.942  24.701  53.870  1.00  0.00     0.035 A 
HETATM   16  C   UNL     1       7.555  24.238  52.706  1.00  0.00     0.030 A 
HETATM   17  C   UNL     1       8.166  22.977  52.673  1.00  0.00     0.012 A 
HETATM   18  C   UNL     1       8.184  22.146  53.801  1.00  0.00    -0.030 A 
HETATM   19  C   UNL     1       7.566  22.625  54.967  1.00  0.00     0.012 A 
HETATM   20  C   UNL     1       6.968  23.890  55.007  1.00  0.00     0.030 A 
BRANCH  18  21
HETATM   21  C   UNL     1       8.762  20.741  53.771  1.00  0.00     0.147 C 
HETATM   22  C   UNL     1       8.610  19.932  55.058  1.00  0.00     0.044 C 
BRANCH  21  23
HETATM   23  O   UNL     1       8.143  19.999  52.716  1.00  0.00    -0.391 OA
HETATM   24  H   UNL     1       7.225  20.311  52.646  1.00  0.00     0.210 HD
ENDBRANCH  21  23
ENDBRANCH  18  21
ENDBRANCH  12  15
ENDBRANCH   7  11
BRANCH   1  25
HETATM   25  C   UNL     1       6.560  29.370  57.541  1.00  0.00    -0.035 A 
HETATM   26  C   UNL     1       6.906  30.403  58.428  1.00  0.00     0.010 A 
HETATM   27  C   UNL     1       8.213  30.895  58.496  1.00  0.00     0.007 A 
HETATM   28  C   UNL     1       9.211  30.370  57.674  1.00  0.00    -0.062 A 
HETATM   29  C   UNL     1      10.615  30.893  57.747  1.00  0.00     0.048 C 
HETATM   30  C   UNL     1       8.871  29.380  56.749  1.00  0.00     0.007 A 
HETATM   31  C   UNL     1       7.562  28.891  56.679  1.00  0.00     0.010 A 
ENDBRANCH   1  25
BRANCH   8  32
HETATM   32  C   UNL     1       4.809  31.659  55.739  1.00  0.00     0.409 C 
HETATM   33  F   UNL     1       5.088  32.359  56.853  1.00  0.00    -0.169 F 
HETATM   34  F   UNL     1       5.989  31.292  55.184  1.00  0.00    -0.169 F 
HETATM   35  F   UNL     1       4.234  32.520  54.857  1.00  0.00    -0.169 F 
ENDBRANCH   8  32
TORSDOF 6
ENDMDL
MODEL 5
REMARK VINA RESULT:      -8.7     10.125     13.493
REMARK  6 active torsions:
REMARK  status: ('A' for Active; 'I' for Inactive)
REMARK    1  A    between atoms: C_5  and  C_6 
REMARK    2  A    between atoms: C_12  and  C_13 
REMARK       I    between atoms: C_13  and  N_14 
REMARK    3  A    between atoms: N_14  and  C_15 
REMARK    4  A    between atoms: C_18  and  C_19 
REMARK    5  A    between atoms: C_19  and  O_20 
REMARK    6  A    between atoms: C_25  and  C_26 
ROOT
HETATM    1  C   UNL     1       3.076  33.789  63.182  1.00  0.00     0.118 C 
HETATM    2  N   UNL     1       3.674  33.904  64.525  1.00  0.00    -0.365 N 
HETATM    3  C   UNL     1       5.013  33.700  64.694  1.00  0.00     0.138 A 
HETATM    4  N   UNL     1       5.785  33.153  63.696  1.00  0.00    -0.240 N 
HETATM    5  N   UNL     1       7.045  32.891  64.071  1.00  0.00    -0.181 NA
HETATM    6  C   UNL     1       7.106  33.390  65.309  1.00  0.00     0.160 A 
HETATM    7  C   UNL     1       5.869  33.914  65.759  1.00  0.00     0.096 A 
HETATM    8  C   UNL     1       5.283  32.698  62.414  1.00  0.00     0.221 C 
HETATM    9  C   UNL     1       3.745  32.620  62.437  1.00  0.00     0.066 C 
HETATM   10  H   UNL     1       3.052  33.540  65.250  1.00  0.00     0.161 HD
ENDROOT
BRANCH   7  11
HETATM   11  C   UNL     1       5.620  34.519  67.061  1.00  0.00     0.261 C 
HETATM   12  N   UNL     1       6.607  34.260  67.993  1.00  0.00    -0.323 N 
HETATM   13  H   UNL     1       7.342  33.635  67.682  1.00  0.00     0.169 HD
HETATM   14  O   UNL     1       4.615  35.196  67.246  1.00  0.00    -0.267 OA
BRANCH  12  15
HETATM   15  C   UNL     1       6.731  34.787  69.292  1.00  0.00     0.035 A 
HETATM   16  C   UNL     1       7.540  35.873  69.619  1.00  0.00     0.030 A 
HETATM   17  C   UNL     1       7.647  36.312  70.947  1.00  0.00     0.012 A 
HETATM   18  C   UNL     1       6.946  35.678  71.982  1.00  0.00    -0.030 A 
HETATM   19  C   UNL     1       6.133  34.586  71.639  1.00  0.00     0.012 A 
HETATM   20  C   UNL     1       6.014  34.157  70.312  1.00  0.00     0.030 A 
BRANCH  18  21
HETATM   21  C   UNL     1       7.109  36.074  73.439  1.00  0.00     0.147 C 
HETATM   22  C   UNL     1       8.448  36.708  73.811  1.00  0.00     0.044 C 
BRANCH  21  23
HETATM   23  O   UNL     1       6.077  37.000  73.795  1.00  0.00    -0.391 OA
HETATM   24  H   UNL     1       5.410  36.971  73.088  1.00  0.00     0.210 HD
ENDBRANCH  21  23
ENDBRANCH  18  21
ENDBRANCH  12  15
ENDBRANCH   7  11
BRANCH   1  25
HETATM   25  C   UNL     1       3.059  35.114  62.433  1.00  0.00    -0.035 A 
HETATM   26  C   UNL     1       3.530  36.310  63.002  1.00  0.00     0.010 A 
HETATM   27  C   UNL     1       3.528  37.507  62.281  1.00  0.00     0.007 A 
HETATM   28  C   UNL     1       3.049  37.544  60.970  1.00  0.00    -0.062 A 
HETATM   29  C   UNL     1       3.048  38.828  60.192  1.00  0.00     0.048 C 
HETATM   30  C   UNL     1       2.526  36.376  60.410  1.00  0.00     0.007 A 
HETATM   31  C   UNL     1       2.526  35.179  61.134  1.00  0.00     0.010 A 
ENDBRANCH   1  25
BRANCH   8  32
HETATM   32  C   UNL     1       5.851  33.546  61.297  1.00  0.00     0.409 C 
HETATM   33  F   UNL     1       5.063  33.626  60.210  1.00  0.00    -0.169 F 
HETATM   34  F   UNL     1       6.111  34.811  61.704  1.00  0.00    -0.169 F 
HETATM   35  F   UNL     1       7.044  33.033  60.891  1.00  0.00    -0.169 F 
ENDBRANCH   8  32
TORSDOF 6
ENDMDL
MODEL 6
REMARK VINA RESULT:      -8.5      4.338      6.674
REMARK  6 active torsions:
REMARK  status: ('A' for Active; 'I' for Inactive)
REMARK    1  A    between atoms: C_5  and  C_6 
REMARK    2  A    between atoms: C_12  and  C_13 
REMARK       I    between atoms: C_13  and  N_14 
REMARK    3  A    between atoms: N_14  and  C_15 
REMARK    4  A    between atoms: C_18  and  C_19 
REMARK    5  A    between atoms: C_19  and  O_20 
REMARK    6  A    between atoms: C_25  and  C_26 
ROOT
HETATM    1  C   UNL     1       3.144  29.491  50.130  1.00  0.00     0.118 C 
HETATM    2  N   UNL     1       3.663  29.045  51.436  1.00  0.00    -0.365 N 
HETATM    3  C   UNL     1       4.477  27.952  51.507  1.00  0.00     0.138 A 
HETATM    4  N   UNL     1       4.635  27.107  50.434  1.00  0.00    -0.240 N 
HETATM    5  N   UNL     1       5.355  26.010  50.713  1.00  0.00    -0.181 NA
HETATM    6  C   UNL     1       5.759  26.221  51.969  1.00  0.00     0.160 A 
HETATM    7  C   UNL     1       5.248  27.419  52.525  1.00  0.00     0.096 A 
HETATM    8  C   UNL     1       3.947  27.240  49.165  1.00  0.00     0.221 C 
HETATM    9  C   UNL     1       2.795  28.254  49.283  1.00  0.00     0.066 C 
HETATM   10  H   UNL     1       2.970  29.160  52.180  1.00  0.00     0.161 HD
ENDROOT
BRANCH   7  11
HETATM   11  C   UNL     1       5.506  27.915  53.870  1.00  0.00     0.261 C 
HETATM   12  N   UNL     1       6.823  27.788  54.267  1.00  0.00    -0.323 N 
HETATM   13  H   UNL     1       7.429  27.313  53.609  1.00  0.00     0.169 HD
HETATM   14  O   UNL     1       4.598  28.402  54.534  1.00  0.00    -0.267 OA
BRANCH  12  15
HETATM   15  C   UNL     1       7.423  28.272  55.445  1.00  0.00     0.035 A 
HETATM   16  C   UNL     1       6.905  28.072  56.723  1.00  0.00     0.030 A 
HETATM   17  C   UNL     1       7.537  28.625  57.847  1.00  0.00     0.012 A 
HETATM   18  C   UNL     1       8.704  29.391  57.722  1.00  0.00    -0.030 A 
HETATM   19  C   UNL     1       9.216  29.584  56.429  1.00  0.00     0.012 A 
HETATM   20  C   UNL     1       8.595  29.019  55.308  1.00  0.00     0.030 A 
BRANCH  18  21
HETATM   21  C   UNL     1       9.362  30.075  58.908  1.00  0.00     0.147 C 
HETATM   22  C   UNL     1       9.698  31.553  58.720  1.00  0.00     0.044 C 
BRANCH  21  23
HETATM   23  O   UNL     1       8.506  29.967  60.049  1.00  0.00    -0.391 OA
HETATM   24  H   UNL     1       7.719  30.509  59.869  1.00  0.00     0.210 HD
ENDBRANCH  21  23
ENDBRANCH  18  21
ENDBRANCH  12  15
ENDBRANCH   7  11
BRANCH   1  25
HETATM   25  C   UNL     1       4.053  30.509  49.455  1.00  0.00    -0.035 A 
HETATM   26  C   UNL     1       3.751  31.082  48.208  1.00  0.00     0.010 A 
HETATM   27  C   UNL     1       4.590  32.035  47.624  1.00  0.00     0.007 A 
HETATM   28  C   UNL     1       5.760  32.440  48.270  1.00  0.00    -0.062 A 
HETATM   29  C   UNL     1       6.661  33.465  47.647  1.00  0.00     0.048 C 
HETATM   30  C   UNL     1       6.102  31.839  49.484  1.00  0.00     0.007 A 
HETATM   31  C   UNL     1       5.263  30.883  50.066  1.00  0.00     0.010 A 
ENDBRANCH   1  25
BRANCH   8  32
HETATM   32  C   UNL     1       4.936  27.538  48.060  1.00  0.00     0.409 C 
HETATM   33  F   UNL     1       5.998  28.264  48.452  1.00  0.00    -0.169 F 
HETATM   34  F   UNL     1       5.409  26.407  47.485  1.00  0.00    -0.169 F 
HETATM   35  F   UNL     1       4.320  28.232  47.065  1.00  0.00    -0.169 F 
ENDBRANCH   8  32
TORSDOF 6
ENDMDL
MODEL 7
REMARK VINA RESULT:      -8.5      5.969      8.999
REMARK  6 active torsions:
REMARK  status: ('A' for Active; 'I' for Inactive)
REMARK    1  A    between atoms: C_5  and  C_6 
REMARK    2  A    between atoms: C_12  and  C_13 
REMARK       I    between atoms: C_13  and  N_14 
REMARK    3  A    between atoms: N_14  and  C_15 
REMARK    4  A    between atoms: C_18  and  C_19 
REMARK    5  A    between atoms: C_19  and  O_20 
REMARK    6  A    between atoms: C_25  and  C_26 
ROOT
HETATM    1  C   UNL     1       3.223  30.529  50.797  1.00  0.00     0.118 C 
HETATM    2  N   UNL     1       3.879  29.317  51.322  1.00  0.00    -0.365 N 
HETATM    3  C   UNL     1       4.042  28.228  50.515  1.00  0.00     0.138 A 
HETATM    4  N   UNL     1       3.400  28.134  49.302  1.00  0.00    -0.240 N 
HETATM    5  N   UNL     1       3.556  26.946  48.700  1.00  0.00    -0.181 NA
HETATM    6  C   UNL     1       4.416  26.308  49.501  1.00  0.00     0.160 A 
HETATM    7  C   UNL     1       4.763  27.055  50.653  1.00  0.00     0.096 A 
HETATM    8  C   UNL     1       2.470  29.114  48.777  1.00  0.00     0.221 C 
HETATM    9  C   UNL     1       2.061  30.109  49.879  1.00  0.00     0.066 C 
HETATM   10  H   UNL     1       3.628  29.140  52.297  1.00  0.00     0.161 HD
ENDROOT
BRANCH   7  11
HETATM   11  C   UNL     1       5.670  26.626  51.709  1.00  0.00     0.261 C 
HETATM   12  N   UNL     1       5.615  25.271  51.973  1.00  0.00    -0.323 N 
HETATM   13  H   UNL     1       4.914  24.757  51.452  1.00  0.00     0.169 HD
HETATM   14  O   UNL     1       6.399  27.439  52.266  1.00  0.00    -0.267 OA
BRANCH  12  15
HETATM   15  C   UNL     1       6.435  24.523  52.838  1.00  0.00     0.035 A 
HETATM   16  C   UNL     1       7.531  23.770  52.419  1.00  0.00     0.030 A 
HETATM   17  C   UNL     1       8.273  23.014  53.336  1.00  0.00     0.012 A 
HETATM   18  C   UNL     1       7.943  22.992  54.698  1.00  0.00    -0.030 A 
HETATM   19  C   UNL     1       6.839  23.756  55.108  1.00  0.00     0.012 A 
HETATM   20  C   UNL     1       6.106  24.524  54.196  1.00  0.00     0.030 A 
BRANCH  18  21
HETATM   21  C   UNL     1       8.673  22.115  55.701  1.00  0.00     0.147 C 
HETATM   22  C   UNL     1       7.879  20.933  56.253  1.00  0.00     0.044 C 
BRANCH  21  23
HETATM   23  O   UNL     1       9.861  21.596  55.096  1.00  0.00    -0.391 OA
HETATM   24  H   UNL     1      10.293  21.027  55.757  1.00  0.00     0.210 HD
ENDBRANCH  21  23
ENDBRANCH  18  21
ENDBRANCH  12  15
ENDBRANCH   7  11
BRANCH   1  25
HETATM   25  C   UNL     1       4.211  31.514  50.190  1.00  0.00    -0.035 A 
HETATM   26  C   UNL     1       5.573  31.212  50.020  1.00  0.00     0.010 A 
HETATM   27  C   UNL     1       6.452  32.125  49.433  1.00  0.00     0.007 A 
HETATM   28  C   UNL     1       5.995  33.372  49.002  1.00  0.00    -0.062 A 
HETATM   29  C   UNL     1       6.936  34.354  48.368  1.00  0.00     0.048 C 
HETATM   30  C   UNL     1       4.656  33.709  49.213  1.00  0.00     0.007 A 
HETATM   31  C   UNL     1       3.777  32.795  49.804  1.00  0.00     0.010 A 
ENDBRANCH   1  25
BRANCH   8  32
HETATM   32  C   UNL     1       3.034  29.757  47.529  1.00  0.00     0.409 C 
HETATM   33  F   UNL     1       2.699  31.051  47.376  1.00  0.00    -0.169 F 
HETATM   34  F   UNL     1       4.385  29.680  47.487  1.00  0.00    -0.169 F 
HETATM   35  F   UNL     1       2.588  29.094  46.428  1.00  0.00    -0.169 F 
ENDBRANCH   8  32
TORSDOF 6
ENDMDL
MODEL 8
REMARK VINA RESULT:      -8.1      6.150     11.348
REMARK  6 active torsions:
REMARK  status: ('A' for Active; 'I' for Inactive)
REMARK    1  A    between atoms: C_5  and  C_6 
REMARK    2  A    between atoms: C_12  and  C_13 
REMARK       I    between atoms: C_13  and  N_14 
REMARK    3  A    between atoms: N_14  and  C_15 
REMARK    4  A    between atoms: C_18  and  C_19 
REMARK    5  A    between atoms: C_19  and  O_20 
REMARK    6  A    between atoms: C_25  and  C_26 
ROOT
HETATM    1  C   UNL     1       2.473  34.092  62.390  1.00  0.00     0.118 C 
HETATM    2  N   UNL     1       2.682  33.191  61.242  1.00  0.00    -0.365 N 
HETATM    3  C   UNL     1       3.344  33.641  60.136  1.00  0.00     0.138 A 
HETATM    4  N   UNL     1       3.612  34.979  59.957  1.00  0.00    -0.240 N 
HETATM    5  N   UNL     1       4.142  35.267  58.760  1.00  0.00    -0.181 NA
HETATM    6  C   UNL     1       4.320  34.064  58.206  1.00  0.00     0.160 A 
HETATM    7  C   UNL     1       3.845  33.003  59.016  1.00  0.00     0.096 A 
HETATM    8  C   UNL     1       3.196  36.036  60.858  1.00  0.00     0.221 C 
HETATM    9  C   UNL     1       2.160  35.505  61.866  1.00  0.00     0.066 C 
HETATM   10  H   UNL     1       1.877  32.580  61.086  1.00  0.00     0.161 HD
ENDROOT
BRANCH   7  11
HETATM   11  C   UNL     1       3.894  31.585  58.682  1.00  0.00     0.261 C 
HETATM   12  N   UNL     1       4.921  31.251  57.821  1.00  0.00    -0.323 N 
HETATM   13  H   UNL     1       5.470  32.032  57.478  1.00  0.00     0.169 HD
HETATM   14  O   UNL     1       3.078  30.809  59.165  1.00  0.00    -0.267 OA
BRANCH  12  15
HETATM   15  C   UNL     1       5.316  29.968  57.401  1.00  0.00     0.035 A 
HETATM   16  C   UNL     1       4.525  29.121  56.627  1.00  0.00     0.030 A 
HETATM   17  C   UNL     1       4.970  27.836  56.287  1.00  0.00     0.012 A 
HETATM   18  C   UNL     1       6.220  27.363  56.709  1.00  0.00    -0.030 A 
HETATM   19  C   UNL     1       7.009  28.226  57.487  1.00  0.00     0.012 A 
HETATM   20  C   UNL     1       6.572  29.515  57.814  1.00  0.00     0.030 A 
BRANCH  18  21
HETATM   21  C   UNL     1       6.694  25.947  56.431  1.00  0.00     0.147 C 
HETATM   22  C   UNL     1       7.834  25.442  57.313  1.00  0.00     0.044 C 
BRANCH  21  23
HETATM   23  O   UNL     1       5.595  25.044  56.582  1.00  0.00    -0.391 OA
HETATM   24  H   UNL     1       5.891  24.176  56.258  1.00  0.00     0.210 HD
ENDBRANCH  21  23
ENDBRANCH  18  21
ENDBRANCH  12  15
ENDBRANCH   7  11
BRANCH   1  25
HETATM   25  C   UNL     1       3.598  34.010  63.412  1.00  0.00    -0.035 A 
HETATM   26  C   UNL     1       4.712  33.169  63.244  1.00  0.00     0.010 A 
HETATM   27  C   UNL     1       5.745  33.135  64.184  1.00  0.00     0.007 A 
HETATM   28  C   UNL     1       5.692  33.939  65.325  1.00  0.00    -0.062 A 
HETATM   29  C   UNL     1       6.800  33.907  66.335  1.00  0.00     0.048 C 
HETATM   30  C   UNL     1       4.565  34.739  65.533  1.00  0.00     0.007 A 
HETATM   31  C   UNL     1       3.531  34.770  64.593  1.00  0.00     0.010 A 
ENDBRANCH   1  25
BRANCH   8  32
HETATM   32  C   UNL     1       4.404  36.694  61.488  1.00  0.00     0.409 C 
HETATM   33  F   UNL     1       5.436  35.859  61.704  1.00  0.00    -0.169 F 
HETATM   34  F   UNL     1       4.865  37.724  60.741  1.00  0.00    -0.169 F 
HETATM   35  F   UNL     1       4.063  37.229  62.691  1.00  0.00    -0.169 F 
ENDBRANCH   8  32
TORSDOF 6
ENDMDL
MODEL 9
REMARK VINA RESULT:      -7.9      5.582      9.110
REMARK  6 active torsions:
REMARK  status: ('A' for Active; 'I' for Inactive)
REMARK    1  A    between atoms: C_5  and  C_6 
REMARK    2  A    between atoms: C_12  and  C_13 
REMARK       I    between atoms: C_13  and  N_14 
REMARK    3  A    between atoms: N_14  and  C_15 
REMARK    4  A    between atoms: C_18  and  C_19 
REMARK    5  A    between atoms: C_19  and  O_20 
REMARK    6  A    between atoms: C_25  and  C_26 
ROOT
HETATM    1  C   UNL     1       1.693  29.716  50.016  1.00  0.00     0.118 C 
HETATM    2  N   UNL     1       2.474  28.466  50.047  1.00  0.00    -0.365 N 
HETATM    3  C   UNL     1       3.542  28.312  49.212  1.00  0.00     0.138 A 
HETATM    4  N   UNL     1       3.771  29.183  48.173  1.00  0.00    -0.240 N 
HETATM    5  N   UNL     1       4.777  28.811  47.368  1.00  0.00    -0.181 NA
HETATM    6  C   UNL     1       5.274  27.732  47.979  1.00  0.00     0.160 A 
HETATM    7  C   UNL     1       4.550  27.366  49.140  1.00  0.00     0.096 A 
HETATM    8  C   UNL     1       2.912  30.297  47.820  1.00  0.00     0.221 C 
HETATM    9  C   UNL     1       1.565  30.190  48.557  1.00  0.00     0.066 C 
HETATM   10  H   UNL     1       1.878  27.649  50.197  1.00  0.00     0.161 HD
ENDROOT
BRANCH   7  11
HETATM   11  C   UNL     1       4.846  26.236  50.011  1.00  0.00     0.261 C 
HETATM   12  N   UNL     1       5.919  26.449  50.854  1.00  0.00    -0.323 N 
HETATM   13  H   UNL     1       6.405  27.329  50.723  1.00  0.00     0.169 HD
HETATM   14  O   UNL     1       4.159  25.222  49.962  1.00  0.00    -0.267 OA
BRANCH  12  15
HETATM   15  C   UNL     1       6.385  25.618  51.890  1.00  0.00     0.035 A 
HETATM   16  C   UNL     1       7.557  24.867  51.820  1.00  0.00     0.030 A 
HETATM   17  C   UNL     1       7.932  24.025  52.877  1.00  0.00     0.012 A 
HETATM   18  C   UNL     1       7.147  23.913  54.032  1.00  0.00    -0.030 A 
HETATM   19  C   UNL     1       5.970  24.676  54.091  1.00  0.00     0.012 A 
HETATM   20  C   UNL     1       5.602  25.529  53.043  1.00  0.00     0.030 A 
BRANCH  18  21
HETATM   21  C   UNL     1       7.480  22.946  55.155  1.00  0.00     0.147 C 
HETATM   22  C   UNL     1       7.885  21.538  54.722  1.00  0.00     0.044 C 
BRANCH  21  23
HETATM   23  O   UNL     1       8.550  23.483  55.939  1.00  0.00    -0.391 OA
HETATM   24  H   UNL     1       8.409  23.189  56.855  1.00  0.00     0.210 HD
ENDBRANCH  21  23
ENDBRANCH  18  21
ENDBRANCH  12  15
ENDBRANCH   7  11
BRANCH   1  25
HETATM   25  C   UNL     1       2.215  30.758  50.996  1.00  0.00    -0.035 A 
HETATM   26  C   UNL     1       1.696  32.062  51.061  1.00  0.00     0.010 A 
HETATM   27  C   UNL     1       2.176  32.990  51.990  1.00  0.00     0.007 A 
HETATM   28  C   UNL     1       3.194  32.640  52.879  1.00  0.00    -0.062 A 
HETATM   29  C   UNL     1       3.709  33.632  53.880  1.00  0.00     0.048 C 
HETATM   30  C   UNL     1       3.757  31.365  52.791  1.00  0.00     0.007 A 
HETATM   31  C   UNL     1       3.279  30.439  51.858  1.00  0.00     0.010 A 
ENDBRANCH   1  25
BRANCH   8  32
HETATM   32  C   UNL     1       3.639  31.607  48.029  1.00  0.00     0.409 C 
HETATM   33  F   UNL     1       4.382  31.999  46.979  1.00  0.00    -0.169 F 
HETATM   34  F   UNL     1       2.787  32.618  48.322  1.00  0.00    -0.169 F 
HETATM   35  F   UNL     1       4.476  31.505  49.097  1.00  0.00    -0.169 F 
ENDBRANCH   8  32
TORSDOF 6
ENDMDL
MODEL 10
REMARK VINA RESULT:      -6.9      5.475      9.724
REMARK  6 active torsions:
REMARK  status: ('A' for Active; 'I' for Inactive)
REMARK    1  A    between atoms: C_5  and  C_6 
REMARK    2  A    between atoms: C_12  and  C_13 
REMARK       I    between atoms: C_13  and  N_14 
REMARK    3  A    between atoms: N_14  and  C_15 
REMARK    4  A    between atoms: C_18  and  C_19 
REMARK    5  A    between atoms: C_19  and  O_20 
REMARK    6  A    between atoms: C_25  and  C_26 
ROOT
HETATM    1  C   UNL     1       4.072  33.795  54.199  1.00  0.00     0.118 C 
HETATM    2  N   UNL     1       4.562  32.417  54.387  1.00  0.00    -0.365 N 
HETATM    3  C   UNL     1       4.973  32.004  55.621  1.00  0.00     0.138 A 
HETATM    4  N   UNL     1       5.174  32.899  56.645  1.00  0.00    -0.240 N 
HETATM    5  N   UNL     1       5.710  32.350  57.745  1.00  0.00    -0.181 NA
HETATM    6  C   UNL     1       5.744  31.047  57.450  1.00  0.00     0.160 A 
HETATM    7  C   UNL     1       5.295  30.761  56.137  1.00  0.00     0.096 A 
HETATM    8  C   UNL     1       5.029  34.337  56.530  1.00  0.00     0.221 C 
HETATM    9  C   UNL     1       4.927  34.749  55.050  1.00  0.00     0.066 C 
HETATM   10  H   UNL     1       5.104  32.093  53.582  1.00  0.00     0.161 HD
ENDROOT
BRANCH   7  11
HETATM   11  C   UNL     1       5.221  29.440  55.528  1.00  0.00     0.261 C 
HETATM   12  N   UNL     1       6.275  28.613  55.863  1.00  0.00    -0.323 N 
HETATM   13  H   UNL     1       6.996  29.040  56.433  1.00  0.00     0.169 HD
HETATM   14  O   UNL     1       4.278  29.146  54.803  1.00  0.00    -0.267 OA
BRANCH  12  15
HETATM   15  C   UNL     1       6.444  27.252  55.545  1.00  0.00     0.035 A 
HETATM   16  C   UNL     1       5.964  26.203  56.327  1.00  0.00     0.030 A 
HETATM   17  C   UNL     1       6.212  24.870  55.968  1.00  0.00     0.012 A 
HETATM   18  C   UNL     1       6.944  24.551  54.816  1.00  0.00    -0.030 A 
HETATM   19  C   UNL     1       7.419  25.617  54.035  1.00  0.00     0.012 A 
HETATM   20  C   UNL     1       7.160  26.948  54.385  1.00  0.00     0.030 A 
BRANCH  18  21
HETATM   21  C   UNL     1       7.302  23.122  54.447  1.00  0.00     0.147 C 
HETATM   22  C   UNL     1       8.000  22.938  53.101  1.00  0.00     0.044 C 
BRANCH  21  23
HETATM   23  O   UNL     1       8.156  22.574  55.456  1.00  0.00    -0.391 OA
HETATM   24  H   UNL     1       7.763  21.730  55.736  1.00  0.00     0.210 HD
ENDBRANCH  21  23
ENDBRANCH  18  21
ENDBRANCH  12  15
ENDBRANCH   7  11
BRANCH   1  25
HETATM   25  C   UNL     1       2.567  33.914  54.399  1.00  0.00    -0.035 A 
HETATM   26  C   UNL     1       1.764  32.819  54.762  1.00  0.00     0.010 A 
HETATM   27  C   UNL     1       0.389  32.964  54.967  1.00  0.00     0.007 A 
HETATM   28  C   UNL     1      -0.224  34.208  54.810  1.00  0.00    -0.062 A 
HETATM   29  C   UNL     1      -1.700  34.367  55.032  1.00  0.00     0.048 C 
HETATM   30  C   UNL     1       0.551  35.294  54.395  1.00  0.00     0.007 A 
HETATM   31  C   UNL     1       1.927  35.147  54.187  1.00  0.00     0.010 A 
ENDBRANCH   1  25
BRANCH   8  32
HETATM   32  C   UNL     1       3.887  34.821  57.396  1.00  0.00     0.409 C 
HETATM   33  F   UNL     1       2.880  33.939  57.523  1.00  0.00    -0.169 F 
HETATM   34  F   UNL     1       4.302  35.145  58.644  1.00  0.00    -0.169 F 
HETATM   35  F   UNL     1       3.360  35.960  56.871  1.00  0.00    -0.169 F 
ENDBRANCH   8  32
TORSDOF 6
ENDMDL
