MODEL 1
REMARK VINA RESULT:      -9.2      0.000      0.000
REMARK  2 active torsions:
REMARK  status: ('A' for Active; 'I' for Inactive)
REMARK    1  A    between atoms: C_2  and  N_3 
REMARK    2  A    between atoms: N_3  and  C_4 
ROOT
HETATM    1  C   UNL     1       5.826  26.083  55.181  1.00  0.00     0.143 A 
HETATM    2  N   UNL     1       5.615  27.088  56.065  1.00  0.00    -0.223 NA
HETATM    3  C   UNL     1       6.356  27.167  57.178  1.00  0.00     0.236 A 
HETATM    4  N   UNL     1       7.326  26.342  57.559  1.00  0.00    -0.234 NA
HETATM    5  C   UNL     1       7.537  25.359  56.672  1.00  0.00     0.114 A 
HETATM    6  C   UNL     1       6.864  25.153  55.472  1.00  0.00     0.053 A 
HETATM    7  S   UNL     1       8.736  24.191  56.983  1.00  0.00    -0.073 SA
HETATM    8  C   UNL     1       8.412  23.385  55.528  1.00  0.00    -0.008 A 
HETATM    9  C   UNL     1       7.419  23.997  54.782  1.00  0.00    -0.028 A 
HETATM   10  C   UNL     1       7.011  23.442  53.444  1.00  0.00     0.041 C 
HETATM   11  C   UNL     1       8.015  22.414  52.898  1.00  0.00     0.005 C 
HETATM   12  C   UNL     1       8.475  21.434  53.981  1.00  0.00     0.005 C 
HETATM   13  C   UNL     1       9.186  22.167  55.125  1.00  0.00     0.047 C 
ENDROOT
BRANCH   1  14
HETATM   14  N   UNL     1       5.028  25.971  54.031  1.00  0.00    -0.340 N 
HETATM   15  H   UNL     1       4.141  25.526  54.208  1.00  0.00     0.167 HD
BRANCH  14  16
HETATM   16  C   UNL     1       5.136  26.490  52.725  1.00  0.00     0.036 A 
HETATM   17  C   UNL     1       4.896  25.738  51.555  1.00  0.00     0.032 A 
HETATM   18  C   UNL     1       4.991  26.309  50.278  1.00  0.00     0.042 A 
HETATM   19  C   UNL     1       5.318  27.641  50.192  1.00  0.00     0.105 A 
HETATM   20  C   UNL     1       5.544  28.394  51.315  1.00  0.00     0.107 A 
HETATM   21  O   UNL     1       5.450  28.361  49.047  1.00  0.00    -0.323 OA
HETATM   22  C   UNL     1       5.458  27.853  52.583  1.00  0.00     0.069 A 
HETATM   23  O   UNL     1       5.845  29.688  51.023  1.00  0.00    -0.323 OA
HETATM   24  C   UNL     1       5.781  29.660  49.581  1.00  0.00     0.352 A 
ENDBRANCH  14  16
ENDBRANCH   1  14
TORSDOF 2
ENDMDL
MODEL 2
REMARK VINA RESULT:      -9.2      4.021      6.242
REMARK  2 active torsions:
REMARK  status: ('A' for Active; 'I' for Inactive)
REMARK    1  A    between atoms: C_2  and  N_3 
REMARK    2  A    between atoms: N_3  and  C_4 
ROOT
HETATM    1  C   UNL     1       7.470  27.314  55.485  1.00  0.00     0.143 A 
HETATM    2  N   UNL     1       6.911  28.353  54.819  1.00  0.00    -0.223 NA
HETATM    3  C   UNL     1       6.274  28.140  53.661  1.00  0.00     0.236 A 
HETATM    4  N   UNL     1       6.107  26.979  53.035  1.00  0.00    -0.234 NA
HETATM    5  C   UNL     1       6.652  25.955  53.708  1.00  0.00     0.114 A 
HETATM    6  C   UNL     1       7.328  26.014  54.922  1.00  0.00     0.053 A 
HETATM    7  S   UNL     1       6.552  24.381  53.066  1.00  0.00    -0.073 SA
HETATM    8  C   UNL     1       7.389  23.726  54.386  1.00  0.00    -0.008 A 
HETATM    9  C   UNL     1       7.729  24.676  55.333  1.00  0.00    -0.028 A 
HETATM   10  C   UNL     1       8.454  24.280  56.591  1.00  0.00     0.041 C 
HETATM   11  C   UNL     1       8.434  22.762  56.835  1.00  0.00     0.005 C 
HETATM   12  C   UNL     1       8.722  21.975  55.553  1.00  0.00     0.005 C 
HETATM   13  C   UNL     1       7.661  22.256  54.481  1.00  0.00     0.047 C 
ENDROOT
BRANCH   1  14
HETATM   14  N   UNL     1       8.174  27.533  56.680  1.00  0.00    -0.340 N 
HETATM   15  H   UNL     1       8.423  26.680  57.154  1.00  0.00     0.167 HD
BRANCH  14  16
HETATM   16  C   UNL     1       8.743  28.680  57.270  1.00  0.00     0.036 A 
HETATM   17  C   UNL     1       9.967  29.252  56.862  1.00  0.00     0.032 A 
HETATM   18  C   UNL     1      10.478  30.411  57.464  1.00  0.00     0.042 A 
HETATM   19  C   UNL     1       9.742  30.991  58.469  1.00  0.00     0.105 A 
HETATM   20  C   UNL     1       8.544  30.461  58.873  1.00  0.00     0.107 A 
HETATM   21  O   UNL     1      10.075  32.113  59.160  1.00  0.00    -0.323 OA
HETATM   22  C   UNL     1       8.022  29.319  58.297  1.00  0.00     0.069 A 
HETATM   23  O   UNL     1       7.966  31.182  59.871  1.00  0.00    -0.323 OA
HETATM   24  C   UNL     1       8.942  32.230  60.046  1.00  0.00     0.352 A 
ENDBRANCH  14  16
ENDBRANCH   1  14
TORSDOF 2
ENDMDL
MODEL 3
REMARK VINA RESULT:      -8.8      0.679      1.452
REMARK  2 active torsions:
REMARK  status: ('A' for Active; 'I' for Inactive)
REMARK    1  A    between atoms: C_2  and  N_3 
REMARK    2  A    between atoms: N_3  and  C_4 
ROOT
HETATM    1  C   UNL     1       5.824  26.238  55.151  1.00  0.00     0.143 A 
HETATM    2  N   UNL     1       5.637  27.243  56.040  1.00  0.00    -0.223 NA
HETATM    3  C   UNL     1       6.338  27.266  57.180  1.00  0.00     0.236 A 
HETATM    4  N   UNL     1       7.245  26.384  57.587  1.00  0.00    -0.234 NA
HETATM    5  C   UNL     1       7.433  25.400  56.695  1.00  0.00     0.114 A 
HETATM    6  C   UNL     1       6.797  25.248  55.467  1.00  0.00     0.053 A 
HETATM    7  S   UNL     1       8.551  24.162  57.035  1.00  0.00    -0.073 SA
HETATM    8  C   UNL     1       8.239  23.393  55.557  1.00  0.00    -0.008 A 
HETATM    9  C   UNL     1       7.311  24.070  54.783  1.00  0.00    -0.028 A 
HETATM   10  C   UNL     1       6.925  23.554  53.423  1.00  0.00     0.041 C 
HETATM   11  C   UNL     1       7.889  22.477  52.901  1.00  0.00     0.005 C 
HETATM   12  C   UNL     1       8.250  21.460  53.987  1.00  0.00     0.005 C 
HETATM   13  C   UNL     1       8.958  22.137  55.167  1.00  0.00     0.047 C 
ENDROOT
BRANCH   1  14
HETATM   14  N   UNL     1       5.066  26.185  53.970  1.00  0.00    -0.340 N 
HETATM   15  H   UNL     1       4.255  25.594  54.048  1.00  0.00     0.167 HD
BRANCH  14  16
HETATM   16  C   UNL     1       5.110  26.907  52.760  1.00  0.00     0.036 A 
HETATM   17  C   UNL     1       5.449  28.274  52.669  1.00  0.00     0.032 A 
HETATM   18  C   UNL     1       5.504  28.941  51.436  1.00  0.00     0.042 A 
HETATM   19  C   UNL     1       5.228  28.217  50.302  1.00  0.00     0.105 A 
HETATM   20  C   UNL     1       4.909  26.886  50.364  1.00  0.00     0.107 A 
HETATM   21  O   UNL     1       5.238  28.691  49.028  1.00  0.00    -0.323 OA
HETATM   22  C   UNL     1       4.846  26.208  51.566  1.00  0.00     0.069 A 
HETATM   23  O   UNL     1       4.679  26.347  49.137  1.00  0.00    -0.323 OA
HETATM   24  C   UNL     1       4.892  27.499  48.293  1.00  0.00     0.352 A 
ENDBRANCH  14  16
ENDBRANCH   1  14
TORSDOF 2
ENDMDL
MODEL 4
REMARK VINA RESULT:      -8.6      3.493      5.751
REMARK  2 active torsions:
REMARK  status: ('A' for Active; 'I' for Inactive)
REMARK    1  A    between atoms: C_2  and  N_3 
REMARK    2  A    between atoms: N_3  and  C_4 
ROOT
HETATM    1  C   UNL     1       5.457  27.486  55.378  1.00  0.00     0.143 A 
HETATM    2  N   UNL     1       4.532  28.400  54.995  1.00  0.00    -0.223 NA
HETATM    3  C   UNL     1       3.912  28.270  53.816  1.00  0.00     0.236 A 
HETATM    4  N   UNL     1       4.091  27.312  52.912  1.00  0.00    -0.234 NA
HETATM    5  C   UNL     1       4.997  26.404  53.305  1.00  0.00     0.114 A 
HETATM    6  C   UNL     1       5.710  26.394  54.500  1.00  0.00     0.053 A 
HETATM    7  S   UNL     1       5.375  25.098  52.281  1.00  0.00    -0.073 SA
HETATM    8  C   UNL     1       6.485  24.468  53.396  1.00  0.00    -0.008 A 
HETATM    9  C   UNL     1       6.565  25.217  54.558  1.00  0.00    -0.028 A 
HETATM   10  C   UNL     1       7.478  24.799  55.679  1.00  0.00     0.041 C 
HETATM   11  C   UNL     1       7.984  23.356  55.525  1.00  0.00     0.005 C 
HETATM   12  C   UNL     1       8.414  23.052  54.087  1.00  0.00     0.005 C 
HETATM   13  C   UNL     1       7.238  23.204  53.114  1.00  0.00     0.047 C 
ENDROOT
BRANCH   1  14
HETATM   14  N   UNL     1       6.140  27.635  56.595  1.00  0.00    -0.340 N 
HETATM   15  H   UNL     1       5.979  26.873  57.234  1.00  0.00     0.167 HD
BRANCH  14  16
HETATM   16  C   UNL     1       7.125  28.536  57.046  1.00  0.00     0.036 A 
HETATM   17  C   UNL     1       6.873  29.595  57.944  1.00  0.00     0.032 A 
HETATM   18  C   UNL     1       7.895  30.450  58.384  1.00  0.00     0.042 A 
HETATM   19  C   UNL     1       9.167  30.221  57.921  1.00  0.00     0.105 A 
HETATM   20  C   UNL     1       9.438  29.191  57.058  1.00  0.00     0.107 A 
HETATM   21  O   UNL     1      10.277  30.938  58.240  1.00  0.00    -0.323 OA
HETATM   22  C   UNL     1       8.449  28.338  56.609  1.00  0.00     0.069 A 
HETATM   23  O   UNL     1      10.755  29.124  56.723  1.00  0.00    -0.323 OA
HETATM   24  C   UNL     1      11.281  30.236  57.479  1.00  0.00     0.352 A 
ENDBRANCH  14  16
ENDBRANCH   1  14
TORSDOF 2
ENDMDL
MODEL 5
REMARK VINA RESULT:      -8.6      3.831      6.581
REMARK  2 active torsions:
REMARK  status: ('A' for Active; 'I' for Inactive)
REMARK    1  A    between atoms: C_2  and  N_3 
REMARK    2  A    between atoms: N_3  and  C_4 
ROOT
HETATM    1  C   UNL     1       6.334  26.712  53.990  1.00  0.00     0.143 A 
HETATM    2  N   UNL     1       5.377  26.512  53.051  1.00  0.00    -0.223 NA
HETATM    3  C   UNL     1       4.298  27.304  53.019  1.00  0.00     0.236 A 
HETATM    4  N   UNL     1       4.017  28.317  53.831  1.00  0.00    -0.234 NA
HETATM    5  C   UNL     1       4.975  28.516  54.748  1.00  0.00     0.114 A 
HETATM    6  C   UNL     1       6.154  27.793  54.899  1.00  0.00     0.053 A 
HETATM    7  S   UNL     1       4.799  29.766  55.890  1.00  0.00    -0.073 SA
HETATM    8  C   UNL     1       6.287  29.398  56.612  1.00  0.00    -0.008 A 
HETATM    9  C   UNL     1       6.944  28.350  55.988  1.00  0.00    -0.028 A 
HETATM   10  C   UNL     1       8.295  27.896  56.470  1.00  0.00     0.041 C 
HETATM   11  C   UNL     1       8.954  28.904  57.425  1.00  0.00     0.005 C 
HETATM   12  C   UNL     1       7.961  29.447  58.456  1.00  0.00     0.005 C 
HETATM   13  C   UNL     1       6.805  30.190  57.773  1.00  0.00     0.047 C 
ENDROOT
BRANCH   1  14
HETATM   14  N   UNL     1       7.451  25.863  54.056  1.00  0.00    -0.340 N 
HETATM   15  H   UNL     1       8.310  26.355  54.238  1.00  0.00     0.167 HD
BRANCH  14  16
HETATM   16  C   UNL     1       7.599  24.462  54.083  1.00  0.00     0.036 A 
HETATM   17  C   UNL     1       7.671  23.654  52.928  1.00  0.00     0.032 A 
HETATM   18  C   UNL     1       7.846  22.264  53.008  1.00  0.00     0.042 A 
HETATM   19  C   UNL     1       7.957  21.702  54.256  1.00  0.00     0.105 A 
HETATM   20  C   UNL     1       7.903  22.468  55.392  1.00  0.00     0.107 A 
HETATM   21  O   UNL     1       8.135  20.382  54.527  1.00  0.00    -0.323 OA
HETATM   22  C   UNL     1       7.729  23.837  55.338  1.00  0.00     0.069 A 
HETATM   23  O   UNL     1       8.041  21.730  56.526  1.00  0.00    -0.323 OA
HETATM   24  C   UNL     1       8.190  20.407  55.969  1.00  0.00     0.352 A 
ENDBRANCH  14  16
ENDBRANCH   1  14
TORSDOF 2
ENDMDL
MODEL 6
REMARK VINA RESULT:      -8.6      7.630     10.841
REMARK  2 active torsions:
REMARK  status: ('A' for Active; 'I' for Inactive)
REMARK    1  A    between atoms: C_2  and  N_3 
REMARK    2  A    between atoms: N_3  and  C_4 
ROOT
HETATM    1  C   UNL     1       5.535  32.469  59.920  1.00  0.00     0.143 A 
HETATM    2  N   UNL     1       4.722  32.739  58.870  1.00  0.00    -0.223 NA
HETATM    3  C   UNL     1       3.831  33.735  58.953  1.00  0.00     0.236 A 
HETATM    4  N   UNL     1       3.618  34.542  59.988  1.00  0.00    -0.234 NA
HETATM    5  C   UNL     1       4.436  34.276  61.017  1.00  0.00     0.114 A 
HETATM    6  C   UNL     1       5.417  33.291  61.076  1.00  0.00     0.053 A 
HETATM    7  S   UNL     1       4.316  35.196  62.444  1.00  0.00    -0.073 SA
HETATM    8  C   UNL     1       5.571  34.328  63.180  1.00  0.00    -0.008 A 
HETATM    9  C   UNL     1       6.111  33.356  62.354  1.00  0.00    -0.028 A 
HETATM   10  C   UNL     1       7.256  32.500  62.824  1.00  0.00     0.041 C 
HETATM   11  C   UNL     1       7.930  33.053  64.090  1.00  0.00     0.005 C 
HETATM   12  C   UNL     1       6.903  33.522  65.124  1.00  0.00     0.005 C 
HETATM   13  C   UNL     1       6.034  34.657  64.567  1.00  0.00     0.047 C 
ENDROOT
BRANCH   1  14
HETATM   14  N   UNL     1       6.446  31.402  59.855  1.00  0.00    -0.340 N 
HETATM   15  H   UNL     1       6.069  30.540  60.215  1.00  0.00     0.167 HD
BRANCH  14  16
HETATM   16  C   UNL     1       7.708  31.245  59.249  1.00  0.00     0.036 A 
HETATM   17  C   UNL     1       8.832  32.043  59.550  1.00  0.00     0.032 A 
HETATM   18  C   UNL     1      10.076  31.829  58.937  1.00  0.00     0.042 A 
HETATM   19  C   UNL     1      10.177  30.801  58.032  1.00  0.00     0.105 A 
HETATM   20  C   UNL     1       9.102  30.004  57.733  1.00  0.00     0.107 A 
HETATM   21  O   UNL     1      11.296  30.443  57.348  1.00  0.00    -0.323 OA
HETATM   22  C   UNL     1       7.868  30.197  58.322  1.00  0.00     0.069 A 
HETATM   23  O   UNL     1       9.405  29.039  56.824  1.00  0.00    -0.323 OA
HETATM   24  C   UNL     1      10.800  29.323  56.586  1.00  0.00     0.352 A 
ENDBRANCH  14  16
ENDBRANCH   1  14
TORSDOF 2
ENDMDL
MODEL 7
REMARK VINA RESULT:      -8.2      3.610      5.844
REMARK  2 active torsions:
REMARK  status: ('A' for Active; 'I' for Inactive)
REMARK    1  A    between atoms: C_2  and  N_3 
REMARK    2  A    between atoms: N_3  and  C_4 
ROOT
HETATM    1  C   UNL     1       6.532  27.354  54.819  1.00  0.00     0.143 A 
HETATM    2  N   UNL     1       5.968  28.266  53.990  1.00  0.00    -0.223 NA
HETATM    3  C   UNL     1       5.878  28.013  52.679  1.00  0.00     0.236 A 
HETATM    4  N   UNL     1       6.294  26.925  52.038  1.00  0.00    -0.234 NA
HETATM    5  C   UNL     1       6.838  26.023  52.867  1.00  0.00     0.114 A 
HETATM    6  C   UNL     1       6.988  26.133  54.246  1.00  0.00     0.053 A 
HETATM    7  S   UNL     1       7.441  24.561  52.237  1.00  0.00    -0.073 SA
HETATM    8  C   UNL     1       7.906  24.020  53.775  1.00  0.00    -0.008 A 
HETATM    9  C   UNL     1       7.591  24.920  54.780  1.00  0.00    -0.028 A 
HETATM   10  C   UNL     1       7.901  24.604  56.218  1.00  0.00     0.041 C 
HETATM   11  C   UNL     1       8.243  23.122  56.439  1.00  0.00     0.005 C 
HETATM   12  C   UNL     1       9.186  22.586  55.358  1.00  0.00     0.005 C 
HETATM   13  C   UNL     1       8.545  22.680  53.968  1.00  0.00     0.047 C 
ENDROOT
BRANCH   1  14
HETATM   14  N   UNL     1       6.665  27.628  56.190  1.00  0.00    -0.340 N 
HETATM   15  H   UNL     1       6.612  26.802  56.764  1.00  0.00     0.167 HD
BRANCH  14  16
HETATM   16  C   UNL     1       7.017  28.784  56.915  1.00  0.00     0.036 A 
HETATM   17  C   UNL     1       6.084  29.724  57.402  1.00  0.00     0.032 A 
HETATM   18  C   UNL     1       6.484  30.846  58.142  1.00  0.00     0.042 A 
HETATM   19  C   UNL     1       7.825  31.005  58.394  1.00  0.00     0.105 A 
HETATM   20  C   UNL     1       8.748  30.098  57.942  1.00  0.00     0.107 A 
HETATM   21  O   UNL     1       8.394  32.022  59.094  1.00  0.00    -0.323 OA
HETATM   22  C   UNL     1       8.379  28.987  57.209  1.00  0.00     0.069 A 
HETATM   23  O   UNL     1      10.019  30.426  58.300  1.00  0.00    -0.323 OA
HETATM   24  C   UNL     1       9.785  31.647  59.034  1.00  0.00     0.352 A 
ENDBRANCH  14  16
ENDBRANCH   1  14
TORSDOF 2
ENDMDL
MODEL 8
REMARK VINA RESULT:      -8.2      3.697      6.640
REMARK  2 active torsions:
REMARK  status: ('A' for Active; 'I' for Inactive)
REMARK    1  A    between atoms: C_2  and  N_3 
REMARK    2  A    between atoms: N_3  and  C_4 
ROOT
HETATM    1  C   UNL     1       4.226  27.514  53.011  1.00  0.00     0.143 A 
HETATM    2  N   UNL     1       4.035  28.251  54.131  1.00  0.00    -0.223 NA
HETATM    3  C   UNL     1       3.962  29.585  54.049  1.00  0.00     0.236 A 
HETATM    4  N   UNL     1       4.060  30.332  52.954  1.00  0.00    -0.234 NA
HETATM    5  C   UNL     1       4.235  29.593  51.849  1.00  0.00     0.114 A 
HETATM    6  C   UNL     1       4.316  28.207  51.770  1.00  0.00     0.053 A 
HETATM    7  S   UNL     1       4.393  30.365  50.340  1.00  0.00    -0.073 SA
HETATM    8  C   UNL     1       4.556  28.885  49.532  1.00  0.00    -0.008 A 
HETATM    9  C   UNL     1       4.469  27.795  50.382  1.00  0.00    -0.028 A 
HETATM   10  C   UNL     1       4.564  26.393  49.844  1.00  0.00     0.041 C 
HETATM   11  C   UNL     1       4.409  26.331  48.316  1.00  0.00     0.005 C 
HETATM   12  C   UNL     1       5.210  27.433  47.616  1.00  0.00     0.005 C 
HETATM   13  C   UNL     1       4.729  28.825  48.045  1.00  0.00     0.047 C 
ENDROOT
BRANCH   1  14
HETATM   14  N   UNL     1       4.342  26.116  53.092  1.00  0.00    -0.340 N 
HETATM   15  H   UNL     1       3.576  25.631  52.653  1.00  0.00     0.167 HD
BRANCH  14  16
HETATM   16  C   UNL     1       5.376  25.255  53.510  1.00  0.00     0.036 A 
HETATM   17  C   UNL     1       6.163  24.482  52.630  1.00  0.00     0.032 A 
HETATM   18  C   UNL     1       7.200  23.660  53.095  1.00  0.00     0.042 A 
HETATM   19  C   UNL     1       7.442  23.633  54.447  1.00  0.00     0.105 A 
HETATM   20  C   UNL     1       6.699  24.385  55.319  1.00  0.00     0.107 A 
HETATM   21  O   UNL     1       8.402  22.904  55.075  1.00  0.00    -0.323 OA
HETATM   22  C   UNL     1       5.672  25.200  54.886  1.00  0.00     0.069 A 
HETATM   23  O   UNL     1       7.097  24.229  56.611  1.00  0.00    -0.323 OA
HETATM   24  C   UNL     1       8.180  23.289  56.447  1.00  0.00     0.352 A 
ENDBRANCH  14  16
ENDBRANCH   1  14
TORSDOF 2
ENDMDL
MODEL 9
REMARK VINA RESULT:      -8.0      7.447     10.635
REMARK  2 active torsions:
REMARK  status: ('A' for Active; 'I' for Inactive)
REMARK    1  A    between atoms: C_2  and  N_3 
REMARK    2  A    between atoms: N_3  and  C_4 
ROOT
HETATM    1  C   UNL     1       7.261  31.998  62.084  1.00  0.00     0.143 A 
HETATM    2  N   UNL     1       7.947  31.973  63.253  1.00  0.00    -0.223 NA
HETATM    3  C   UNL     1       7.732  32.921  64.174  1.00  0.00     0.236 A 
HETATM    4  N   UNL     1       6.891  33.946  64.095  1.00  0.00    -0.234 NA
HETATM    5  C   UNL     1       6.207  33.956  62.941  1.00  0.00     0.114 A 
HETATM    6  C   UNL     1       6.307  33.038  61.900  1.00  0.00     0.053 A 
HETATM    7  S   UNL     1       5.082  35.198  62.642  1.00  0.00    -0.073 SA
HETATM    8  C   UNL     1       4.680  34.550  61.128  1.00  0.00    -0.008 A 
HETATM    9  C   UNL     1       5.366  33.382  60.843  1.00  0.00    -0.028 A 
HETATM   10  C   UNL     1       5.122  32.645  59.554  1.00  0.00     0.041 C 
HETATM   11  C   UNL     1       3.850  33.117  58.831  1.00  0.00     0.005 C 
HETATM   12  C   UNL     1       3.730  34.644  58.828  1.00  0.00     0.005 C 
HETATM   13  C   UNL     1       3.647  35.196  60.256  1.00  0.00     0.047 C 
ENDROOT
BRANCH   1  14
HETATM   14  N   UNL     1       7.507  31.031  61.097  1.00  0.00    -0.340 N 
HETATM   15  H   UNL     1       6.846  30.272  61.114  1.00  0.00     0.167 HD
BRANCH  14  16
HETATM   16  C   UNL     1       8.379  30.980  59.990  1.00  0.00     0.036 A 
HETATM   17  C   UNL     1       9.404  31.920  59.750  1.00  0.00     0.032 A 
HETATM   18  C   UNL     1      10.263  31.810  58.647  1.00  0.00     0.042 A 
HETATM   19  C   UNL     1      10.087  30.743  57.799  1.00  0.00     0.105 A 
HETATM   20  C   UNL     1       9.106  29.811  58.019  1.00  0.00     0.107 A 
HETATM   21  O   UNL     1      10.823  30.472  56.689  1.00  0.00    -0.323 OA
HETATM   22  C   UNL     1       8.247  29.899  59.097  1.00  0.00     0.069 A 
HETATM   23  O   UNL     1       9.098  28.830  57.077  1.00  0.00    -0.323 OA
HETATM   24  C   UNL     1      10.193  29.256  56.237  1.00  0.00     0.352 A 
ENDBRANCH  14  16
ENDBRANCH   1  14
TORSDOF 2
ENDMDL
MODEL 10
REMARK VINA RESULT:      -7.9      3.848      6.013
REMARK  2 active torsions:
REMARK  status: ('A' for Active; 'I' for Inactive)
REMARK    1  A    between atoms: C_2  and  N_3 
REMARK    2  A    between atoms: N_3  and  C_4 
ROOT
HETATM    1  C   UNL     1       5.614  29.040  55.785  1.00  0.00     0.143 A 
HETATM    2  N   UNL     1       4.284  29.227  55.961  1.00  0.00    -0.223 NA
HETATM    3  C   UNL     1       3.845  30.011  56.953  1.00  0.00     0.236 A 
HETATM    4  N   UNL     1       4.578  30.667  57.846  1.00  0.00    -0.234 NA
HETATM    5  C   UNL     1       5.893  30.487  57.656  1.00  0.00     0.114 A 
HETATM    6  C   UNL     1       6.501  29.721  56.667  1.00  0.00     0.053 A 
HETATM    7  S   UNL     1       7.004  31.240  58.704  1.00  0.00    -0.073 SA
HETATM    8  C   UNL     1       8.326  30.586  57.870  1.00  0.00    -0.008 A 
HETATM    9  C   UNL     1       7.949  29.817  56.781  1.00  0.00    -0.028 A 
HETATM   10  C   UNL     1       8.986  29.175  55.900  1.00  0.00     0.041 C 
HETATM   11  C   UNL     1      10.395  29.744  56.130  1.00  0.00     0.005 C 
HETATM   12  C   UNL     1      10.709  29.907  57.620  1.00  0.00     0.005 C 
HETATM   13  C   UNL     1       9.733  30.884  58.288  1.00  0.00     0.047 C 
ENDROOT
BRANCH   1  14
HETATM   14  N   UNL     1       6.083  28.189  54.770  1.00  0.00    -0.340 N 
HETATM   15  H   UNL     1       6.352  28.683  53.934  1.00  0.00     0.167 HD
BRANCH  14  16
HETATM   16  C   UNL     1       6.408  26.819  54.732  1.00  0.00     0.036 A 
HETATM   17  C   UNL     1       6.028  25.890  55.725  1.00  0.00     0.032 A 
HETATM   18  C   UNL     1       6.355  24.529  55.627  1.00  0.00     0.042 A 
HETATM   19  C   UNL     1       7.054  24.114  54.520  1.00  0.00     0.105 A 
HETATM   20  C   UNL     1       7.423  24.996  53.537  1.00  0.00     0.107 A 
HETATM   21  O   UNL     1       7.451  22.842  54.254  1.00  0.00    -0.323 OA
HETATM   22  C   UNL     1       7.115  26.340  53.612  1.00  0.00     0.069 A 
HETATM   23  O   UNL     1       8.099  24.392  52.523  1.00  0.00    -0.323 OA
HETATM   24  C   UNL     1       8.110  23.024  52.984  1.00  0.00     0.352 A 
ENDBRANCH  14  16
ENDBRANCH   1  14
TORSDOF 2
ENDMDL
