MODEL 1
REMARK VINA RESULT:      -9.3      0.000      0.000
REMARK  8 active torsions:
REMARK  status: ('A' for Active; 'I' for Inactive)
REMARK    1  A    between atoms: C_2  and  C_3 
REMARK    2  A    between atoms: C_3  and  N_4 
REMARK    3  A    between atoms: C_7  and  C_8 
REMARK       I    between atoms: C_8  and  N_9 
REMARK    4  A    between atoms: N_9  and  N_10 
REMARK       I    between atoms: N_10  and  C_11 
REMARK    5  A    between atoms: C_11  and  C_12 
REMARK    6  A    between atoms: C_12  and  O_13 
REMARK    7  A    between atoms: O_13  and  C_14 
REMARK    8  A    between atoms: C_23  and  C_24 
ROOT
HETATM    1  C   UNL     1       7.650  26.875  57.126  1.00  0.00     0.273 C 
HETATM    2  N   UNL     1       8.805  27.630  57.051  1.00  0.00    -0.263 N 
HETATM    3  O   UNL     1       6.556  27.352  57.414  1.00  0.00    -0.266 OA
HETATM    4  H   UNL     1       9.715  27.171  57.075  1.00  0.00     0.190 HD
ENDROOT
BRANCH   2   5
HETATM    5  N   UNL     1       8.768  28.952  57.524  1.00  0.00    -0.265 N 
HETATM    6  C   UNL     1       9.929  29.695  57.441  1.00  0.00     0.260 C 
HETATM    7  O   UNL     1      10.920  29.311  56.821  1.00  0.00    -0.269 OA
HETATM    8  H   UNL     1       8.101  29.156  58.271  1.00  0.00     0.190 HD
BRANCH   6   9
HETATM    9  C   UNL     1       9.879  31.043  58.156  1.00  0.00     0.280 C 
BRANCH   9  10
HETATM   10  O   UNL     1       8.541  31.436  58.444  1.00  0.00    -0.342 OA
BRANCH  10  11
HETATM   11  C   UNL     1       8.279  31.809  59.735  1.00  0.00     0.069 A 
HETATM   12  C   UNL     1       9.332  31.610  60.629  1.00  0.00     0.037 A 
HETATM   13  C   UNL     1       9.192  31.936  61.981  1.00  0.00     0.009 A 
HETATM   14  C   UNL     1       7.991  32.471  62.456  1.00  0.00    -0.062 A 
HETATM   15  C   UNL     1       7.820  32.826  63.903  1.00  0.00     0.048 C 
HETATM   16  C   UNL     1       6.943  32.687  61.554  1.00  0.00     0.009 A 
HETATM   17  C   UNL     1       7.086  32.361  60.201  1.00  0.00     0.037 A 
ENDBRANCH  10  11
ENDBRANCH   9  10
ENDBRANCH   6   9
ENDBRANCH   2   5
BRANCH   1  18
HETATM   18  C   UNL     1       7.864  25.486  56.793  1.00  0.00     0.077 A 
HETATM   19  C   UNL     1       8.851  24.658  57.370  1.00  0.00     0.158 A 
HETATM   20  N   UNL     1       8.832  23.417  56.894  1.00  0.00    -0.183 NA
HETATM   21  N   UNL     1       7.835  23.432  55.985  1.00  0.00    -0.268 N 
HETATM   22  C   UNL     1       7.200  24.657  55.900  1.00  0.00     0.052 A 
BRANCH  21  23
HETATM   23  C   UNL     1       7.556  22.227  55.204  1.00  0.00     0.106 C 
HETATM   24  C   UNL     1       7.669  20.930  56.018  1.00  0.00     0.034 C 
BRANCH  23  25
HETATM   25  C   UNL     1       8.389  22.179  53.908  1.00  0.00     0.022 C 
HETATM   26  C   UNL     1       8.069  21.016  52.977  1.00  0.00     0.007 C 
ENDBRANCH  23  25
ENDBRANCH  21  23
BRANCH  22  27
HETATM   27  C   UNL     1       6.002  24.948  54.995  1.00  0.00     0.038 A 
HETATM   28  C   UNL     1       6.025  26.151  54.078  1.00  0.00     0.011 A 
HETATM   29  C   UNL     1       6.106  24.780  53.498  1.00  0.00     0.011 A 
ENDBRANCH  22  27
ENDBRANCH   1  18
TORSDOF 8
ENDMDL
MODEL 2
REMARK VINA RESULT:      -9.1      1.575      2.485
REMARK  8 active torsions:
REMARK  status: ('A' for Active; 'I' for Inactive)
REMARK    1  A    between atoms: C_2  and  C_3 
REMARK    2  A    between atoms: C_3  and  N_4 
REMARK    3  A    between atoms: C_7  and  C_8 
REMARK       I    between atoms: C_8  and  N_9 
REMARK    4  A    between atoms: N_9  and  N_10 
REMARK       I    between atoms: N_10  and  C_11 
REMARK    5  A    between atoms: C_11  and  C_12 
REMARK    6  A    between atoms: C_12  and  O_13 
REMARK    7  A    between atoms: O_13  and  C_14 
REMARK    8  A    between atoms: C_23  and  C_24 
ROOT
HETATM    1  C   UNL     1       6.785  27.488  54.924  1.00  0.00     0.273 C 
HETATM    2  N   UNL     1       7.820  28.316  55.312  1.00  0.00    -0.263 N 
HETATM    3  O   UNL     1       5.605  27.823  54.971  1.00  0.00    -0.266 OA
HETATM    4  H   UNL     1       8.740  27.923  55.509  1.00  0.00     0.190 HD
ENDROOT
BRANCH   2   5
HETATM    5  N   UNL     1       7.502  29.508  55.983  1.00  0.00    -0.265 N 
HETATM    6  C   UNL     1       7.802  29.585  57.329  1.00  0.00     0.260 C 
HETATM    7  O   UNL     1       8.482  28.738  57.907  1.00  0.00    -0.269 OA
HETATM    8  H   UNL     1       6.714  30.047  55.620  1.00  0.00     0.190 HD
BRANCH   6   9
HETATM    9  C   UNL     1       7.249  30.817  58.039  1.00  0.00     0.280 C 
BRANCH   9  10
HETATM   10  O   UNL     1       8.291  31.636  58.561  1.00  0.00    -0.342 OA
BRANCH  10  11
HETATM   11  C   UNL     1       8.246  31.901  59.903  1.00  0.00     0.069 A 
HETATM   12  C   UNL     1       7.041  32.441  60.356  1.00  0.00     0.037 A 
HETATM   13  C   UNL     1       6.868  32.770  61.703  1.00  0.00     0.009 A 
HETATM   14  C   UNL     1       7.902  32.557  62.619  1.00  0.00    -0.062 A 
HETATM   15  C   UNL     1       7.736  32.904  64.069  1.00  0.00     0.048 C 
HETATM   16  C   UNL     1       9.102  31.997  62.166  1.00  0.00     0.009 A 
HETATM   17  C   UNL     1       9.273  31.669  60.817  1.00  0.00     0.037 A 
ENDBRANCH  10  11
ENDBRANCH   9  10
ENDBRANCH   6   9
ENDBRANCH   2   5
BRANCH   1  18
HETATM   18  C   UNL     1       7.243  26.213  54.422  1.00  0.00     0.077 A 
HETATM   19  C   UNL     1       7.644  25.964  53.092  1.00  0.00     0.158 A 
HETATM   20  N   UNL     1       8.030  24.707  52.892  1.00  0.00    -0.183 NA
HETATM   21  N   UNL     1       7.866  24.121  54.096  1.00  0.00    -0.268 N 
HETATM   22  C   UNL     1       7.413  24.995  55.066  1.00  0.00     0.052 A 
BRANCH  21  23
HETATM   23  C   UNL     1       8.145  22.692  54.243  1.00  0.00     0.106 C 
HETATM   24  C   UNL     1       9.490  22.398  54.923  1.00  0.00     0.034 C 
BRANCH  23  25
HETATM   25  C   UNL     1       7.985  21.937  52.910  1.00  0.00     0.022 C 
HETATM   26  C   UNL     1       8.192  20.429  52.992  1.00  0.00     0.007 C 
ENDBRANCH  23  25
ENDBRANCH  21  23
BRANCH  22  27
HETATM   27  C   UNL     1       7.190  24.619  56.532  1.00  0.00     0.038 A 
HETATM   28  C   UNL     1       8.302  24.822  57.538  1.00  0.00     0.011 A 
HETATM   29  C   UNL     1       7.088  25.686  57.596  1.00  0.00     0.011 A 
ENDBRANCH  22  27
ENDBRANCH   1  18
TORSDOF 8
ENDMDL
MODEL 3
REMARK VINA RESULT:      -8.8      1.356      1.483
REMARK  8 active torsions:
REMARK  status: ('A' for Active; 'I' for Inactive)
REMARK    1  A    between atoms: C_2  and  C_3 
REMARK    2  A    between atoms: C_3  and  N_4 
REMARK    3  A    between atoms: C_7  and  C_8 
REMARK       I    between atoms: C_8  and  N_9 
REMARK    4  A    between atoms: N_9  and  N_10 
REMARK       I    between atoms: N_10  and  C_11 
REMARK    5  A    between atoms: C_11  and  C_12 
REMARK    6  A    between atoms: C_12  and  O_13 
REMARK    7  A    between atoms: O_13  and  C_14 
REMARK    8  A    between atoms: C_23  and  C_24 
ROOT
HETATM    1  C   UNL     1       7.477  27.234  56.216  1.00  0.00     0.273 C 
HETATM    2  N   UNL     1       7.031  27.692  57.441  1.00  0.00    -0.263 N 
HETATM    3  O   UNL     1       7.773  27.982  55.289  1.00  0.00    -0.266 OA
HETATM    4  H   UNL     1       6.552  27.055  58.077  1.00  0.00     0.190 HD
ENDROOT
BRANCH   2   5
HETATM    5  N   UNL     1       6.701  29.051  57.564  1.00  0.00    -0.265 N 
HETATM    6  C   UNL     1       7.555  29.855  58.292  1.00  0.00     0.260 C 
HETATM    7  O   UNL     1       8.659  29.472  58.678  1.00  0.00    -0.269 OA
HETATM    8  H   UNL     1       5.708  29.290  57.525  1.00  0.00     0.190 HD
BRANCH   6   9
HETATM    9  C   UNL     1       7.036  31.265  58.558  1.00  0.00     0.280 C 
BRANCH   9  10
HETATM   10  O   UNL     1       8.009  32.067  59.220  1.00  0.00    -0.342 OA
BRANCH  10  11
HETATM   11  C   UNL     1       7.749  32.391  60.524  1.00  0.00     0.069 A 
HETATM   12  C   UNL     1       8.748  32.033  61.430  1.00  0.00     0.037 A 
HETATM   13  C   UNL     1       8.602  32.294  62.795  1.00  0.00     0.009 A 
HETATM   14  C   UNL     1       7.449  32.925  63.273  1.00  0.00    -0.062 A 
HETATM   15  C   UNL     1       7.272  33.213  64.734  1.00  0.00     0.048 C 
HETATM   16  C   UNL     1       6.456  33.300  62.360  1.00  0.00     0.009 A 
HETATM   17  C   UNL     1       6.605  33.037  60.994  1.00  0.00     0.037 A 
ENDBRANCH  10  11
ENDBRANCH   9  10
ENDBRANCH   6   9
ENDBRANCH   2   5
BRANCH   1  18
HETATM   18  C   UNL     1       7.597  25.795  56.163  1.00  0.00     0.077 A 
HETATM   19  C   UNL     1       8.001  24.977  57.239  1.00  0.00     0.158 A 
HETATM   20  N   UNL     1       8.020  23.683  56.930  1.00  0.00    -0.183 NA
HETATM   21  N   UNL     1       7.641  23.653  55.636  1.00  0.00    -0.268 N 
HETATM   22  C   UNL     1       7.350  24.905  55.127  1.00  0.00     0.052 A 
BRANCH  21  23
HETATM   23  C   UNL     1       7.602  22.373  54.929  1.00  0.00     0.106 C 
HETATM   24  C   UNL     1       7.564  21.157  55.865  1.00  0.00     0.034 C 
BRANCH  23  25
HETATM   25  C   UNL     1       8.722  22.265  53.876  1.00  0.00     0.022 C 
HETATM   26  C   UNL     1       8.713  20.983  53.052  1.00  0.00     0.007 C 
ENDBRANCH  23  25
ENDBRANCH  21  23
BRANCH  22  27
HETATM   27  C   UNL     1       6.845  25.165  53.707  1.00  0.00     0.038 A 
HETATM   28  C   UNL     1       5.533  24.561  53.254  1.00  0.00     0.011 A 
HETATM   29  C   UNL     1       5.634  26.034  53.466  1.00  0.00     0.011 A 
ENDBRANCH  22  27
ENDBRANCH   1  18
TORSDOF 8
ENDMDL
MODEL 4
REMARK VINA RESULT:      -8.6      5.866      9.857
REMARK  8 active torsions:
REMARK  status: ('A' for Active; 'I' for Inactive)
REMARK    1  A    between atoms: C_2  and  C_3 
REMARK    2  A    between atoms: C_3  and  N_4 
REMARK    3  A    between atoms: C_7  and  C_8 
REMARK       I    between atoms: C_8  and  N_9 
REMARK    4  A    between atoms: N_9  and  N_10 
REMARK       I    between atoms: N_10  and  C_11 
REMARK    5  A    between atoms: C_11  and  C_12 
REMARK    6  A    between atoms: C_12  and  O_13 
REMARK    7  A    between atoms: O_13  and  C_14 
REMARK    8  A    between atoms: C_23  and  C_24 
ROOT
HETATM    1  C   UNL     1       5.013  26.827  51.289  1.00  0.00     0.273 C 
HETATM    2  N   UNL     1       4.236  26.870  52.431  1.00  0.00    -0.263 N 
HETATM    3  O   UNL     1       5.895  25.991  51.110  1.00  0.00    -0.266 OA
HETATM    4  H   UNL     1       3.713  27.716  52.658  1.00  0.00     0.190 HD
ENDROOT
BRANCH   2   5
HETATM    5  N   UNL     1       4.605  26.063  53.519  1.00  0.00    -0.265 N 
HETATM    6  C   UNL     1       5.335  26.648  54.533  1.00  0.00     0.260 C 
HETATM    7  O   UNL     1       5.517  27.864  54.604  1.00  0.00    -0.269 OA
HETATM    8  H   UNL     1       4.727  25.065  53.332  1.00  0.00     0.190 HD
BRANCH   6   9
HETATM    9  C   UNL     1       5.877  25.676  55.577  1.00  0.00     0.280 C 
BRANCH   9  10
HETATM   10  O   UNL     1       7.250  25.374  55.351  1.00  0.00    -0.342 OA
BRANCH  10  11
HETATM   11  C   UNL     1       7.517  24.216  54.670  1.00  0.00     0.069 A 
HETATM   12  C   UNL     1       7.482  23.057  55.446  1.00  0.00     0.037 A 
HETATM   13  C   UNL     1       7.749  21.809  54.877  1.00  0.00     0.009 A 
HETATM   14  C   UNL     1       8.052  21.705  53.516  1.00  0.00    -0.062 A 
HETATM   15  C   UNL     1       8.342  20.375  52.886  1.00  0.00     0.048 C 
HETATM   16  C   UNL     1       8.067  22.867  52.736  1.00  0.00     0.009 A 
HETATM   17  C   UNL     1       7.799  24.115  53.308  1.00  0.00     0.037 A 
ENDBRANCH  10  11
ENDBRANCH   9  10
ENDBRANCH   6   9
ENDBRANCH   2   5
BRANCH   1  18
HETATM   18  C   UNL     1       4.649  27.837  50.323  1.00  0.00     0.077 A 
HETATM   19  C   UNL     1       4.553  29.219  50.594  1.00  0.00     0.158 A 
HETATM   20  N   UNL     1       4.208  29.935  49.528  1.00  0.00    -0.183 NA
HETATM   21  N   UNL     1       4.061  29.016  48.552  1.00  0.00    -0.268 N 
HETATM   22  C   UNL     1       4.339  27.729  48.975  1.00  0.00     0.052 A 
BRANCH  21  23
HETATM   23  C   UNL     1       3.622  29.443  47.223  1.00  0.00     0.106 C 
HETATM   24  C   UNL     1       4.596  30.412  46.539  1.00  0.00     0.034 C 
BRANCH  23  25
HETATM   25  C   UNL     1       2.178  29.981  47.243  1.00  0.00     0.022 C 
HETATM   26  C   UNL     1       1.180  29.126  48.014  1.00  0.00     0.007 C 
ENDBRANCH  23  25
ENDBRANCH  21  23
BRANCH  22  27
HETATM   27  C   UNL     1       4.307  26.497  48.069  1.00  0.00     0.038 A 
HETATM   28  C   UNL     1       3.321  25.384  48.347  1.00  0.00     0.011 A 
HETATM   29  C   UNL     1       3.139  26.248  47.145  1.00  0.00     0.011 A 
ENDBRANCH  22  27
ENDBRANCH   1  18
TORSDOF 8
ENDMDL
MODEL 5
REMARK VINA RESULT:      -8.5      2.270     10.333
REMARK  8 active torsions:
REMARK  status: ('A' for Active; 'I' for Inactive)
REMARK    1  A    between atoms: C_2  and  C_3 
REMARK    2  A    between atoms: C_3  and  N_4 
REMARK    3  A    between atoms: C_7  and  C_8 
REMARK       I    between atoms: C_8  and  N_9 
REMARK    4  A    between atoms: N_9  and  N_10 
REMARK       I    between atoms: N_10  and  C_11 
REMARK    5  A    between atoms: C_11  and  C_12 
REMARK    6  A    between atoms: C_12  and  O_13 
REMARK    7  A    between atoms: O_13  and  C_14 
REMARK    8  A    between atoms: C_23  and  C_24 
ROOT
HETATM    1  C   UNL     1       7.822  30.849  58.719  1.00  0.00     0.273 C 
HETATM    2  N   UNL     1       7.131  29.670  58.511  1.00  0.00    -0.263 N 
HETATM    3  O   UNL     1       8.888  31.107  58.168  1.00  0.00    -0.266 OA
HETATM    4  H   UNL     1       6.409  29.381  59.170  1.00  0.00     0.190 HD
ENDROOT
BRANCH   2   5
HETATM    5  N   UNL     1       7.773  28.638  57.807  1.00  0.00    -0.265 N 
HETATM    6  C   UNL     1       6.981  27.758  57.096  1.00  0.00     0.260 C 
HETATM    7  O   UNL     1       5.778  27.945  56.916  1.00  0.00    -0.269 OA
HETATM    8  H   UNL     1       8.666  28.311  58.180  1.00  0.00     0.190 HD
BRANCH   6   9
HETATM    9  C   UNL     1       7.718  26.549  56.527  1.00  0.00     0.280 C 
BRANCH   9  10
HETATM   10  O   UNL     1       7.293  26.250  55.202  1.00  0.00    -0.342 OA
BRANCH  10  11
HETATM   11  C   UNL     1       7.472  24.960  54.779  1.00  0.00     0.069 A 
HETATM   12  C   UNL     1       7.790  24.824  53.427  1.00  0.00     0.037 A 
HETATM   13  C   UNL     1       7.986  23.560  52.864  1.00  0.00     0.009 A 
HETATM   14  C   UNL     1       7.870  22.411  53.652  1.00  0.00    -0.062 A 
HETATM   15  C   UNL     1       8.075  21.046  53.066  1.00  0.00     0.048 C 
HETATM   16  C   UNL     1       7.570  22.552  55.012  1.00  0.00     0.009 A 
HETATM   17  C   UNL     1       7.375  23.818  55.574  1.00  0.00     0.037 A 
ENDBRANCH  10  11
ENDBRANCH   9  10
ENDBRANCH   6   9
ENDBRANCH   2   5
BRANCH   1  18
HETATM   18  C   UNL     1       7.137  31.751  59.615  1.00  0.00     0.077 A 
HETATM   19  C   UNL     1       5.906  32.386  59.339  1.00  0.00     0.158 A 
HETATM   20  N   UNL     1       5.487  33.161  60.335  1.00  0.00    -0.183 NA
HETATM   21  N   UNL     1       6.456  33.049  61.266  1.00  0.00    -0.268 N 
HETATM   22  C   UNL     1       7.470  32.187  60.890  1.00  0.00     0.052 A 
BRANCH  21  23
HETATM   23  C   UNL     1       6.359  33.824  62.503  1.00  0.00     0.106 C 
HETATM   24  C   UNL     1       5.660  33.072  63.644  1.00  0.00     0.034 C 
BRANCH  23  25
HETATM   25  C   UNL     1       5.746  35.217  62.258  1.00  0.00     0.022 C 
HETATM   26  C   UNL     1       4.466  35.505  63.034  1.00  0.00     0.007 C 
ENDBRANCH  23  25
ENDBRANCH  21  23
BRANCH  22  27
HETATM   27  C   UNL     1       8.668  31.827  61.769  1.00  0.00     0.038 A 
HETATM   28  C   UNL     1       8.543  30.723  62.796  1.00  0.00     0.011 A 
HETATM   29  C   UNL     1       9.393  30.514  61.588  1.00  0.00     0.011 A 
ENDBRANCH  22  27
ENDBRANCH   1  18
TORSDOF 8
ENDMDL
MODEL 6
REMARK VINA RESULT:      -8.4      2.278      3.466
REMARK  8 active torsions:
REMARK  status: ('A' for Active; 'I' for Inactive)
REMARK    1  A    between atoms: C_2  and  C_3 
REMARK    2  A    between atoms: C_3  and  N_4 
REMARK    3  A    between atoms: C_7  and  C_8 
REMARK       I    between atoms: C_8  and  N_9 
REMARK    4  A    between atoms: N_9  and  N_10 
REMARK       I    between atoms: N_10  and  C_11 
REMARK    5  A    between atoms: C_11  and  C_12 
REMARK    6  A    between atoms: C_12  and  O_13 
REMARK    7  A    between atoms: O_13  and  C_14 
REMARK    8  A    between atoms: C_23  and  C_24 
ROOT
HETATM    1  C   UNL     1       7.770  28.652  56.870  1.00  0.00     0.273 C 
HETATM    2  N   UNL     1       6.551  29.147  57.289  1.00  0.00    -0.263 N 
HETATM    3  O   UNL     1       8.824  28.883  57.456  1.00  0.00    -0.266 OA
HETATM    4  H   UNL     1       5.759  29.160  56.647  1.00  0.00     0.190 HD
ENDROOT
BRANCH   2   5
HETATM    5  N   UNL     1       6.540  30.120  58.301  1.00  0.00    -0.265 N 
HETATM    6  C   UNL     1       5.935  31.329  58.021  1.00  0.00     0.260 C 
HETATM    7  O   UNL     1       5.266  31.517  57.005  1.00  0.00    -0.269 OA
HETATM    8  H   UNL     1       7.308  30.095  58.974  1.00  0.00     0.190 HD
BRANCH   6   9
HETATM    9  C   UNL     1       6.137  32.408  59.081  1.00  0.00     0.280 C 
BRANCH   9  10
HETATM   10  O   UNL     1       7.233  32.105  59.938  1.00  0.00    -0.342 OA
BRANCH  10  11
HETATM   11  C   UNL     1       7.149  32.566  61.224  1.00  0.00     0.069 A 
HETATM   12  C   UNL     1       8.069  32.005  62.111  1.00  0.00     0.037 A 
HETATM   13  C   UNL     1       8.081  32.378  63.457  1.00  0.00     0.009 A 
HETATM   14  C   UNL     1       7.170  33.324  63.935  1.00  0.00    -0.062 A 
HETATM   15  C   UNL     1       7.166  33.737  65.377  1.00  0.00     0.048 C 
HETATM   16  C   UNL     1       6.261  33.899  63.040  1.00  0.00     0.009 A 
HETATM   17  C   UNL     1       6.250  33.525  61.692  1.00  0.00     0.037 A 
ENDBRANCH  10  11
ENDBRANCH   9  10
ENDBRANCH   6   9
ENDBRANCH   2   5
BRANCH   1  18
HETATM   18  C   UNL     1       7.664  27.810  55.701  1.00  0.00     0.077 A 
HETATM   19  C   UNL     1       7.777  28.258  54.367  1.00  0.00     0.158 A 
HETATM   20  N   UNL     1       7.648  27.279  53.477  1.00  0.00    -0.183 NA
HETATM   21  N   UNL     1       7.433  26.181  54.230  1.00  0.00    -0.268 N 
HETATM   22  C   UNL     1       7.455  26.443  55.587  1.00  0.00     0.052 A 
BRANCH  21  23
HETATM   23  C   UNL     1       7.185  24.897  53.574  1.00  0.00     0.106 C 
HETATM   24  C   UNL     1       7.879  24.762  52.211  1.00  0.00     0.034 C 
BRANCH  23  25
HETATM   25  C   UNL     1       5.680  24.573  53.498  1.00  0.00     0.022 C 
HETATM   26  C   UNL     1       4.989  25.009  52.212  1.00  0.00     0.007 C 
ENDBRANCH  23  25
ENDBRANCH  21  23
BRANCH  22  27
HETATM   27  C   UNL     1       7.295  25.379  56.675  1.00  0.00     0.038 A 
HETATM   28  C   UNL     1       8.344  24.301  56.833  1.00  0.00     0.011 A 
HETATM   29  C   UNL     1       8.210  25.358  57.875  1.00  0.00     0.011 A 
ENDBRANCH  22  27
ENDBRANCH   1  18
TORSDOF 8
ENDMDL
MODEL 7
REMARK VINA RESULT:      -8.1      2.319     10.005
REMARK  8 active torsions:
REMARK  status: ('A' for Active; 'I' for Inactive)
REMARK    1  A    between atoms: C_2  and  C_3 
REMARK    2  A    between atoms: C_3  and  N_4 
REMARK    3  A    between atoms: C_7  and  C_8 
REMARK       I    between atoms: C_8  and  N_9 
REMARK    4  A    between atoms: N_9  and  N_10 
REMARK       I    between atoms: N_10  and  C_11 
REMARK    5  A    between atoms: C_11  and  C_12 
REMARK    6  A    between atoms: C_12  and  O_13 
REMARK    7  A    between atoms: O_13  and  C_14 
REMARK    8  A    between atoms: C_23  and  C_24 
ROOT
HETATM    1  C   UNL     1       8.212  30.715  58.972  1.00  0.00     0.273 C 
HETATM    2  N   UNL     1       7.562  29.499  58.889  1.00  0.00    -0.263 N 
HETATM    3  O   UNL     1       9.108  31.051  58.202  1.00  0.00    -0.266 OA
HETATM    4  H   UNL     1       7.028  29.153  59.686  1.00  0.00     0.190 HD
ENDROOT
BRANCH   2   5
HETATM    5  N   UNL     1       8.085  28.523  58.026  1.00  0.00    -0.265 N 
HETATM    6  C   UNL     1       7.189  27.731  57.336  1.00  0.00     0.260 C 
HETATM    7  O   UNL     1       5.980  27.961  57.314  1.00  0.00    -0.269 OA
HETATM    8  H   UNL     1       9.003  28.142  58.262  1.00  0.00     0.190 HD
BRANCH   6   9
HETATM    9  C   UNL     1       7.815  26.564  56.579  1.00  0.00     0.280 C 
BRANCH   9  10
HETATM   10  O   UNL     1       7.282  26.443  55.263  1.00  0.00    -0.342 OA
BRANCH  10  11
HETATM   11  C   UNL     1       7.459  25.236  54.642  1.00  0.00     0.069 A 
HETATM   12  C   UNL     1       7.309  24.122  55.469  1.00  0.00     0.037 A 
HETATM   13  C   UNL     1       7.476  22.830  54.963  1.00  0.00     0.009 A 
HETATM   14  C   UNL     1       7.793  22.636  53.615  1.00  0.00    -0.062 A 
HETATM   15  C   UNL     1       7.977  21.258  53.053  1.00  0.00     0.048 C 
HETATM   16  C   UNL     1       7.924  23.754  52.783  1.00  0.00     0.009 A 
HETATM   17  C   UNL     1       7.755  25.047  53.292  1.00  0.00     0.037 A 
ENDBRANCH  10  11
ENDBRANCH   9  10
ENDBRANCH   6   9
ENDBRANCH   2   5
BRANCH   1  18
HETATM   18  C   UNL     1       7.699  31.556  60.029  1.00  0.00     0.077 A 
HETATM   19  C   UNL     1       8.416  31.928  61.187  1.00  0.00     0.158 A 
HETATM   20  N   UNL     1       7.717  32.716  62.000  1.00  0.00    -0.183 NA
HETATM   21  N   UNL     1       6.527  32.850  61.379  1.00  0.00    -0.268 N 
HETATM   22  C   UNL     1       6.470  32.185  60.168  1.00  0.00     0.052 A 
BRANCH  21  23
HETATM   23  C   UNL     1       5.464  33.621  62.024  1.00  0.00     0.106 C 
HETATM   24  C   UNL     1       5.890  35.043  62.416  1.00  0.00     0.034 C 
BRANCH  23  25
HETATM   25  C   UNL     1       4.833  32.854  63.202  1.00  0.00     0.022 C 
HETATM   26  C   UNL     1       5.222  33.360  64.585  1.00  0.00     0.007 C 
ENDBRANCH  23  25
ENDBRANCH  21  23
BRANCH  22  27
HETATM   27  C   UNL     1       5.266  32.208  59.226  1.00  0.00     0.038 A 
HETATM   28  C   UNL     1       4.942  33.466  58.449  1.00  0.00     0.011 A 
HETATM   29  C   UNL     1       5.457  32.265  57.730  1.00  0.00     0.011 A 
ENDBRANCH  22  27
ENDBRANCH   1  18
TORSDOF 8
ENDMDL
MODEL 8
REMARK VINA RESULT:      -7.9      2.993     10.580
REMARK  8 active torsions:
REMARK  status: ('A' for Active; 'I' for Inactive)
REMARK    1  A    between atoms: C_2  and  C_3 
REMARK    2  A    between atoms: C_3  and  N_4 
REMARK    3  A    between atoms: C_7  and  C_8 
REMARK       I    between atoms: C_8  and  N_9 
REMARK    4  A    between atoms: N_9  and  N_10 
REMARK       I    between atoms: N_10  and  C_11 
REMARK    5  A    between atoms: C_11  and  C_12 
REMARK    6  A    between atoms: C_12  and  O_13 
REMARK    7  A    between atoms: O_13  and  C_14 
REMARK    8  A    between atoms: C_23  and  C_24 
ROOT
HETATM    1  C   UNL     1       7.329  31.596  60.520  1.00  0.00     0.273 C 
HETATM    2  N   UNL     1       7.134  31.165  59.222  1.00  0.00    -0.263 N 
HETATM    3  O   UNL     1       8.318  31.295  61.184  1.00  0.00    -0.266 OA
HETATM    4  H   UNL     1       6.204  31.209  58.807  1.00  0.00     0.190 HD
ENDROOT
BRANCH   2   5
HETATM    5  N   UNL     1       7.990  30.176  58.713  1.00  0.00    -0.265 N 
HETATM    6  C   UNL     1       7.457  29.259  57.829  1.00  0.00     0.260 C 
HETATM    7  O   UNL     1       6.331  29.380  57.346  1.00  0.00    -0.269 OA
HETATM    8  H   UNL     1       8.775  29.896  59.304  1.00  0.00     0.190 HD
BRANCH   6   9
HETATM    9  C   UNL     1       8.381  28.097  57.476  1.00  0.00     0.280 C 
BRANCH   9  10
HETATM   10  O   UNL     1       7.874  26.856  57.958  1.00  0.00    -0.342 OA
BRANCH  10  11
HETATM   11  C   UNL     1       7.999  25.780  57.121  1.00  0.00     0.069 A 
HETATM   12  C   UNL     1       7.437  25.951  55.855  1.00  0.00     0.037 A 
HETATM   13  C   UNL     1       7.484  24.924  54.909  1.00  0.00     0.009 A 
HETATM   14  C   UNL     1       8.099  23.707  55.218  1.00  0.00    -0.062 A 
HETATM   15  C   UNL     1       8.158  22.592  54.217  1.00  0.00     0.048 C 
HETATM   16  C   UNL     1       8.678  23.545  56.482  1.00  0.00     0.009 A 
HETATM   17  C   UNL     1       8.631  24.575  57.428  1.00  0.00     0.037 A 
ENDBRANCH  10  11
ENDBRANCH   9  10
ENDBRANCH   6   9
ENDBRANCH   2   5
BRANCH   1  18
HETATM   18  C   UNL     1       6.274  32.464  60.990  1.00  0.00     0.077 A 
HETATM   19  C   UNL     1       5.312  33.087  60.166  1.00  0.00     0.158 A 
HETATM   20  N   UNL     1       4.446  33.829  60.849  1.00  0.00    -0.183 NA
HETATM   21  N   UNL     1       4.850  33.707  62.129  1.00  0.00    -0.268 N 
HETATM   22  C   UNL     1       5.942  32.871  62.274  1.00  0.00     0.052 A 
BRANCH  21  23
HETATM   23  C   UNL     1       4.150  34.448  63.178  1.00  0.00     0.106 C 
HETATM   24  C   UNL     1       2.700  33.989  63.388  1.00  0.00     0.034 C 
BRANCH  23  25
HETATM   25  C   UNL     1       4.257  35.971  62.972  1.00  0.00     0.022 C 
HETATM   26  C   UNL     1       5.678  36.516  62.908  1.00  0.00     0.007 C 
ENDBRANCH  23  25
ENDBRANCH  21  23
BRANCH  22  27
HETATM   27  C   UNL     1       6.579  32.506  63.616  1.00  0.00     0.038 A 
HETATM   28  C   UNL     1       7.958  33.024  63.961  1.00  0.00     0.011 A 
HETATM   29  C   UNL     1       6.769  33.550  64.690  1.00  0.00     0.011 A 
ENDBRANCH  22  27
ENDBRANCH   1  18
TORSDOF 8
ENDMDL
MODEL 9
REMARK VINA RESULT:      -7.7      6.113     10.153
REMARK  8 active torsions:
REMARK  status: ('A' for Active; 'I' for Inactive)
REMARK    1  A    between atoms: C_2  and  C_3 
REMARK    2  A    between atoms: C_3  and  N_4 
REMARK    3  A    between atoms: C_7  and  C_8 
REMARK       I    between atoms: C_8  and  N_9 
REMARK    4  A    between atoms: N_9  and  N_10 
REMARK       I    between atoms: N_10  and  C_11 
REMARK    5  A    between atoms: C_11  and  C_12 
REMARK    6  A    between atoms: C_12  and  O_13 
REMARK    7  A    between atoms: O_13  and  C_14 
REMARK    8  A    between atoms: C_23  and  C_24 
ROOT
HETATM    1  C   UNL     1       6.079  26.413  52.611  1.00  0.00     0.273 C 
HETATM    2  N   UNL     1       4.931  26.178  51.879  1.00  0.00    -0.263 N 
HETATM    3  O   UNL     1       6.485  27.541  52.878  1.00  0.00    -0.266 OA
HETATM    4  H   UNL     1       4.776  25.263  51.459  1.00  0.00     0.190 HD
ENDROOT
BRANCH   2   5
HETATM    5  N   UNL     1       4.318  27.265  51.236  1.00  0.00    -0.265 N 
HETATM    6  C   UNL     1       4.360  27.300  49.856  1.00  0.00     0.260 C 
HETATM    7  O   UNL     1       4.750  26.349  49.179  1.00  0.00    -0.269 OA
HETATM    8  H   UNL     1       4.279  28.145  51.753  1.00  0.00     0.190 HD
BRANCH   6   9
HETATM    9  C   UNL     1       3.860  28.600  49.233  1.00  0.00     0.280 C 
BRANCH   9  10
HETATM   10  O   UNL     1       3.799  28.513  47.812  1.00  0.00    -0.342 OA
BRANCH  10  11
HETATM   11  C   UNL     1       2.549  28.487  47.256  1.00  0.00     0.069 A 
HETATM   12  C   UNL     1       2.061  29.730  46.849  1.00  0.00     0.037 A 
HETATM   13  C   UNL     1       0.792  29.847  46.278  1.00  0.00     0.009 A 
HETATM   14  C   UNL     1      -0.009  28.714  46.101  1.00  0.00    -0.062 A 
HETATM   15  C   UNL     1      -1.375  28.819  45.491  1.00  0.00     0.048 C 
HETATM   16  C   UNL     1       0.489  27.467  46.493  1.00  0.00     0.009 A 
HETATM   17  C   UNL     1       1.761  27.352  47.065  1.00  0.00     0.037 A 
ENDBRANCH  10  11
ENDBRANCH   9  10
ENDBRANCH   6   9
ENDBRANCH   2   5
BRANCH   1  18
HETATM   18  C   UNL     1       6.720  25.198  53.059  1.00  0.00     0.077 A 
HETATM   19  C   UNL     1       7.674  24.467  52.318  1.00  0.00     0.158 A 
HETATM   20  N   UNL     1       8.115  23.389  52.961  1.00  0.00    -0.183 NA
HETATM   21  N   UNL     1       7.435  23.403  54.125  1.00  0.00    -0.268 N 
HETATM   22  C   UNL     1       6.591  24.492  54.246  1.00  0.00     0.052 A 
BRANCH  21  23
HETATM   23  C   UNL     1       7.627  22.313  55.082  1.00  0.00     0.106 C 
HETATM   24  C   UNL     1       8.724  22.594  56.118  1.00  0.00     0.034 C 
BRANCH  23  25
HETATM   25  C   UNL     1       7.822  20.958  54.375  1.00  0.00     0.022 C 
HETATM   26  C   UNL     1       8.802  20.010  55.055  1.00  0.00     0.007 C 
ENDBRANCH  23  25
ENDBRANCH  21  23
BRANCH  22  27
HETATM   27  C   UNL     1       5.741  24.792  55.481  1.00  0.00     0.038 A 
HETATM   28  C   UNL     1       6.404  25.271  56.754  1.00  0.00     0.011 A 
HETATM   29  C   UNL     1       5.556  26.211  55.965  1.00  0.00     0.011 A 
ENDBRANCH  22  27
ENDBRANCH   1  18
TORSDOF 8
ENDMDL
MODEL 10
REMARK VINA RESULT:      -7.5      3.794     10.753
REMARK  8 active torsions:
REMARK  status: ('A' for Active; 'I' for Inactive)
REMARK    1  A    between atoms: C_2  and  C_3 
REMARK    2  A    between atoms: C_3  and  N_4 
REMARK    3  A    between atoms: C_7  and  C_8 
REMARK       I    between atoms: C_8  and  N_9 
REMARK    4  A    between atoms: N_9  and  N_10 
REMARK       I    between atoms: N_10  and  C_11 
REMARK    5  A    between atoms: C_11  and  C_12 
REMARK    6  A    between atoms: C_12  and  O_13 
REMARK    7  A    between atoms: O_13  and  C_14 
REMARK    8  A    between atoms: C_23  and  C_24 
ROOT
HETATM    1  C   UNL     1       4.945  32.303  60.786  1.00  0.00     0.273 C 
HETATM    2  N   UNL     1       6.204  31.735  60.780  1.00  0.00    -0.263 N 
HETATM    3  O   UNL     1       4.170  32.225  59.836  1.00  0.00    -0.266 OA
HETATM    4  H   UNL     1       6.902  32.039  61.457  1.00  0.00     0.190 HD
ENDROOT
BRANCH   2   5
HETATM    5  N   UNL     1       6.701  31.230  59.567  1.00  0.00    -0.265 N 
HETATM    6  C   UNL     1       7.953  30.649  59.579  1.00  0.00     0.260 C 
HETATM    7  O   UNL     1       8.561  30.404  60.621  1.00  0.00    -0.269 OA
HETATM    8  H   UNL     1       6.371  31.679  58.711  1.00  0.00     0.190 HD
BRANCH   6   9
HETATM    9  C   UNL     1       8.516  30.309  58.202  1.00  0.00     0.280 C 
BRANCH   9  10
HETATM   10  O   UNL     1       8.905  28.942  58.116  1.00  0.00    -0.342 OA
BRANCH  10  11
HETATM   11  C   UNL     1       8.426  28.237  57.045  1.00  0.00     0.069 A 
HETATM   12  C   UNL     1       8.391  28.946  55.843  1.00  0.00     0.037 A 
HETATM   13  C   UNL     1       7.911  28.347  54.675  1.00  0.00     0.009 A 
HETATM   14  C   UNL     1       7.460  27.024  54.695  1.00  0.00    -0.062 A 
HETATM   15  C   UNL     1       6.939  26.364  53.453  1.00  0.00     0.048 C 
HETATM   16  C   UNL     1       7.512  26.310  55.897  1.00  0.00     0.009 A 
HETATM   17  C   UNL     1       7.994  26.911  57.065  1.00  0.00     0.037 A 
ENDBRANCH  10  11
ENDBRANCH   9  10
ENDBRANCH   6   9
ENDBRANCH   2   5
BRANCH   1  18
HETATM   18  C   UNL     1       4.628  32.955  62.035  1.00  0.00     0.077 A 
HETATM   19  C   UNL     1       3.323  33.147  62.540  1.00  0.00     0.158 A 
HETATM   20  N   UNL     1       3.307  33.769  63.715  1.00  0.00    -0.183 NA
HETATM   21  N   UNL     1       4.609  34.003  63.977  1.00  0.00    -0.268 N 
HETATM   22  C   UNL     1       5.455  33.509  63.001  1.00  0.00     0.052 A 
BRANCH  21  23
HETATM   23  C   UNL     1       4.977  34.736  65.188  1.00  0.00     0.106 C 
HETATM   24  C   UNL     1       4.634  33.990  66.485  1.00  0.00     0.034 C 
BRANCH  23  25
HETATM   25  C   UNL     1       4.424  36.175  65.177  1.00  0.00     0.022 C 
HETATM   26  C   UNL     1       5.053  37.101  64.145  1.00  0.00     0.007 C 
ENDBRANCH  23  25
ENDBRANCH  21  23
BRANCH  22  27
HETATM   27  C   UNL     1       6.981  33.583  63.064  1.00  0.00     0.038 A 
HETATM   28  C   UNL     1       7.685  33.503  64.401  1.00  0.00     0.011 A 
HETATM   29  C   UNL     1       7.799  32.370  63.438  1.00  0.00     0.011 A 
ENDBRANCH  22  27
ENDBRANCH   1  18
TORSDOF 8
ENDMDL
