MODEL 1
REMARK VINA RESULT:      -8.4      0.000      0.000
REMARK  5 active torsions:
REMARK  status: ('A' for Active; 'I' for Inactive)
REMARK    1  A    between atoms: C_3  and  N_4 
REMARK       I    between atoms: N_4  and  C_5 
REMARK       I    between atoms: C_5  and  N_6 
REMARK    2  A    between atoms: N_6  and  C_7 
REMARK    3  A    between atoms: C_7  and  C_8 
REMARK    4  A    between atoms: C_20  and  C_21 
REMARK       I    between atoms: C_21  and  N_22 
REMARK    5  A    between atoms: N_22  and  C_23 
ROOT
HETATM    1  C   UNL     1       6.204  30.562  57.682  1.00  0.00     0.052 C 
HETATM    2  C   UNL     1       7.582  30.122  57.247  1.00  0.00    -0.020 A 
HETATM    3  C   UNL     1       7.755  29.263  56.131  1.00  0.00     0.043 A 
HETATM    4  C   UNL     1       9.053  28.957  55.700  1.00  0.00     0.030 A 
HETATM    5  C   UNL     1      10.172  29.494  56.343  1.00  0.00     0.003 A 
HETATM    6  C   UNL     1      10.013  30.292  57.467  1.00  0.00     0.018 A 
HETATM    7  C   UNL     1       8.728  30.576  57.943  1.00  0.00     0.040 A 
ENDROOT
BRANCH   3   8
HETATM    8  N   UNL     1       6.603  28.684  55.555  1.00  0.00    -0.309 N 
HETATM    9  C   UNL     1       6.005  27.469  55.632  1.00  0.00     0.321 C 
HETATM   10  N   UNL     1       6.712  26.419  56.122  1.00  0.00    -0.338 N 
HETATM   11  O   UNL     1       4.851  27.358  55.224  1.00  0.00    -0.247 OA
HETATM   12  H   UNL     1       7.693  26.427  55.882  1.00  0.00     0.164 HD
HETATM   13  H   UNL     1       5.996  29.309  55.042  1.00  0.00     0.170 HD
BRANCH  10  14
HETATM   14  C   UNL     1       6.081  25.119  56.152  1.00  0.00     0.167 C 
BRANCH  14  15
HETATM   15  C   UNL     1       6.782  24.200  55.217  1.00  0.00     0.009 A 
HETATM   16  C   UNL     1       6.554  24.053  53.819  1.00  0.00     0.060 A 
HETATM   17  C   UNL     1       5.581  24.781  52.968  1.00  0.00     0.073 C 
HETATM   18  N   UNL     1       7.344  23.117  53.282  1.00  0.00    -0.179 NA
HETATM   19  N   UNL     1       8.050  22.647  54.318  1.00  0.00    -0.282 N 
HETATM   20  H   UNL     1       8.712  21.898  54.145  1.00  0.00     0.189 HD
HETATM   21  C   UNL     1       7.753  23.254  55.505  1.00  0.00     0.034 A 
HETATM   22  C   UNL     1       8.411  22.860  56.773  1.00  0.00     0.070 C 
ENDBRANCH  14  15
ENDBRANCH  10  14
ENDBRANCH   3   8
BRANCH   7  23
HETATM   23  C   UNL     1       8.655  31.327  59.228  1.00  0.00     0.252 C 
HETATM   24  N   UNL     1       8.551  30.530  60.350  1.00  0.00    -0.349 N 
HETATM   25  H   UNL     1       8.713  29.540  60.215  1.00  0.00     0.163 HD
HETATM   26  O   UNL     1       8.746  32.545  59.228  1.00  0.00    -0.268 OA
BRANCH  24  27
HETATM   27  C   UNL     1       8.555  31.014  61.738  1.00  0.00     0.022 C 
HETATM   28  C   UNL     1       7.163  31.504  62.172  1.00  0.00     0.037 C 
HETATM   29  C   UNL     1       8.945  29.831  62.645  1.00  0.00     0.037 C 
HETATM   30  C   UNL     1       9.588  32.133  61.912  1.00  0.00     0.037 C 
ENDBRANCH  24  27
ENDBRANCH   7  23
TORSDOF 5
ENDMDL
MODEL 2
REMARK VINA RESULT:      -8.4      1.391      2.385
REMARK  5 active torsions:
REMARK  status: ('A' for Active; 'I' for Inactive)
REMARK    1  A    between atoms: C_3  and  N_4 
REMARK       I    between atoms: N_4  and  C_5 
REMARK       I    between atoms: C_5  and  N_6 
REMARK    2  A    between atoms: N_6  and  C_7 
REMARK    3  A    between atoms: C_7  and  C_8 
REMARK    4  A    between atoms: C_20  and  C_21 
REMARK       I    between atoms: C_21  and  N_22 
REMARK    5  A    between atoms: N_22  and  C_23 
ROOT
HETATM    1  C   UNL     1       9.020  29.479  57.443  1.00  0.00     0.052 C 
HETATM    2  C   UNL     1       7.624  30.039  57.306  1.00  0.00    -0.020 A 
HETATM    3  C   UNL     1       6.796  29.676  56.213  1.00  0.00     0.043 A 
HETATM    4  C   UNL     1       5.474  30.139  56.173  1.00  0.00     0.030 A 
HETATM    5  C   UNL     1       4.960  30.940  57.196  1.00  0.00     0.003 A 
HETATM    6  C   UNL     1       5.778  31.344  58.242  1.00  0.00     0.018 A 
HETATM    7  C   UNL     1       7.114  30.931  58.281  1.00  0.00     0.040 A 
ENDROOT
BRANCH   3   8
HETATM    8  N   UNL     1       7.374  28.927  55.164  1.00  0.00    -0.309 N 
HETATM    9  C   UNL     1       7.156  27.696  54.638  1.00  0.00     0.321 C 
HETATM   10  N   UNL     1       6.441  26.793  55.356  1.00  0.00    -0.338 N 
HETATM   11  O   UNL     1       7.645  27.434  53.541  1.00  0.00    -0.247 OA
HETATM   12  H   UNL     1       6.589  26.839  56.353  1.00  0.00     0.164 HD
HETATM   13  H   UNL     1       8.035  29.416  54.575  1.00  0.00     0.170 HD
BRANCH  10  14
HETATM   14  C   UNL     1       6.259  25.467  54.807  1.00  0.00     0.167 C 
BRANCH  14  15
HETATM   15  C   UNL     1       7.406  24.604  55.192  1.00  0.00     0.009 A 
HETATM   16  C   UNL     1       8.011  23.576  54.413  1.00  0.00     0.060 A 
HETATM   17  C   UNL     1       7.653  23.132  53.043  1.00  0.00     0.073 C 
HETATM   18  N   UNL     1       9.009  22.975  55.071  1.00  0.00    -0.179 NA
HETATM   19  N   UNL     1       9.031  23.585  56.263  1.00  0.00    -0.282 N 
HETATM   20  H   UNL     1       9.710  23.270  56.949  1.00  0.00     0.189 HD
HETATM   21  C   UNL     1       8.090  24.565  56.397  1.00  0.00     0.034 A 
HETATM   22  C   UNL     1       7.939  25.342  57.649  1.00  0.00     0.070 C 
ENDBRANCH  14  15
ENDBRANCH  10  14
ENDBRANCH   3   8
BRANCH   7  23
HETATM   23  C   UNL     1       7.953  31.518  59.363  1.00  0.00     0.252 C 
HETATM   24  N   UNL     1       7.832  30.888  60.585  1.00  0.00    -0.349 N 
HETATM   25  H   UNL     1       7.340  30.003  60.588  1.00  0.00     0.163 HD
HETATM   26  O   UNL     1       8.711  32.442  59.113  1.00  0.00    -0.268 OA
BRANCH  24  27
HETATM   27  C   UNL     1       8.613  31.210  61.788  1.00  0.00     0.022 C 
HETATM   28  C   UNL     1       9.943  31.894  61.435  1.00  0.00     0.037 C 
HETATM   29  C   UNL     1       7.783  32.193  62.636  1.00  0.00     0.037 C 
HETATM   30  C   UNL     1       8.872  29.942  62.612  1.00  0.00     0.037 C 
ENDBRANCH  24  27
ENDBRANCH   7  23
TORSDOF 5
ENDMDL
MODEL 3
REMARK VINA RESULT:      -8.4      1.000      1.962
REMARK  5 active torsions:
REMARK  status: ('A' for Active; 'I' for Inactive)
REMARK    1  A    between atoms: C_3  and  N_4 
REMARK       I    between atoms: N_4  and  C_5 
REMARK       I    between atoms: C_5  and  N_6 
REMARK    2  A    between atoms: N_6  and  C_7 
REMARK    3  A    between atoms: C_7  and  C_8 
REMARK    4  A    between atoms: C_20  and  C_21 
REMARK       I    between atoms: C_21  and  N_22 
REMARK    5  A    between atoms: N_22  and  C_23 
ROOT
HETATM    1  C   UNL     1       5.935  31.110  57.932  1.00  0.00     0.052 C 
HETATM    2  C   UNL     1       7.289  30.452  57.797  1.00  0.00    -0.020 A 
HETATM    3  C   UNL     1       7.503  29.410  56.858  1.00  0.00     0.043 A 
HETATM    4  C   UNL     1       8.795  28.894  56.693  1.00  0.00     0.030 A 
HETATM    5  C   UNL     1       9.872  29.397  57.429  1.00  0.00     0.003 A 
HETATM    6  C   UNL     1       9.662  30.379  58.387  1.00  0.00     0.018 A 
HETATM    7  C   UNL     1       8.373  30.879  58.600  1.00  0.00     0.040 A 
ENDROOT
BRANCH   3   8
HETATM    8  N   UNL     1       6.378  28.880  56.188  1.00  0.00    -0.309 N 
HETATM    9  C   UNL     1       5.821  27.648  56.086  1.00  0.00     0.321 C 
HETATM   10  N   UNL     1       6.558  26.564  56.436  1.00  0.00    -0.338 N 
HETATM   11  O   UNL     1       4.676  27.558  55.647  1.00  0.00    -0.247 OA
HETATM   12  H   UNL     1       7.541  26.636  56.216  1.00  0.00     0.164 HD
HETATM   13  H   UNL     1       5.756  29.551  55.756  1.00  0.00     0.170 HD
BRANCH  10  14
HETATM   14  C   UNL     1       5.971  25.252  56.275  1.00  0.00     0.167 C 
BRANCH  14  15
HETATM   15  C   UNL     1       6.582  24.571  55.103  1.00  0.00     0.009 A 
HETATM   16  C   UNL     1       7.839  23.904  55.052  1.00  0.00     0.060 A 
HETATM   17  C   UNL     1       8.824  23.720  56.146  1.00  0.00     0.073 C 
HETATM   18  N   UNL     1       8.097  23.421  53.832  1.00  0.00    -0.179 NA
HETATM   19  N   UNL     1       7.039  23.794  53.100  1.00  0.00    -0.282 N 
HETATM   20  H   UNL     1       7.029  23.549  52.115  1.00  0.00     0.189 HD
HETATM   21  C   UNL     1       6.101  24.492  53.806  1.00  0.00     0.034 A 
HETATM   22  C   UNL     1       4.868  25.010  53.171  1.00  0.00     0.070 C 
ENDBRANCH  14  15
ENDBRANCH  10  14
ENDBRANCH   3   8
BRANCH   7  23
HETATM   23  C   UNL     1       8.218  31.831  59.736  1.00  0.00     0.252 C 
HETATM   24  N   UNL     1       7.316  31.428  60.700  1.00  0.00    -0.349 N 
HETATM   25  H   UNL     1       6.991  30.472  60.639  1.00  0.00     0.163 HD
HETATM   26  O   UNL     1       8.906  32.840  59.785  1.00  0.00    -0.268 OA
BRANCH  24  27
HETATM   27  C   UNL     1       7.046  32.136  61.960  1.00  0.00     0.022 C 
HETATM   28  C   UNL     1       6.573  33.578  61.712  1.00  0.00     0.037 C 
HETATM   29  C   UNL     1       5.915  31.383  62.686  1.00  0.00     0.037 C 
HETATM   30  C   UNL     1       8.294  32.135  62.852  1.00  0.00     0.037 C 
ENDBRANCH  24  27
ENDBRANCH   7  23
TORSDOF 5
ENDMDL
MODEL 4
REMARK VINA RESULT:      -8.1      5.323      8.380
REMARK  5 active torsions:
REMARK  status: ('A' for Active; 'I' for Inactive)
REMARK    1  A    between atoms: C_3  and  N_4 
REMARK       I    between atoms: N_4  and  C_5 
REMARK       I    between atoms: C_5  and  N_6 
REMARK    2  A    between atoms: N_6  and  C_7 
REMARK    3  A    between atoms: C_7  and  C_8 
REMARK    4  A    between atoms: C_20  and  C_21 
REMARK       I    between atoms: C_21  and  N_22 
REMARK    5  A    between atoms: N_22  and  C_23 
ROOT
HETATM    1  C   UNL     1       4.867  24.935  52.245  1.00  0.00     0.052 C 
HETATM    2  C   UNL     1       4.923  26.423  52.500  1.00  0.00    -0.020 A 
HETATM    3  C   UNL     1       5.081  26.932  53.814  1.00  0.00     0.043 A 
HETATM    4  C   UNL     1       5.227  28.314  53.998  1.00  0.00     0.030 A 
HETATM    5  C   UNL     1       5.231  29.190  52.909  1.00  0.00     0.003 A 
HETATM    6  C   UNL     1       5.024  28.705  51.625  1.00  0.00     0.018 A 
HETATM    7  C   UNL     1       4.832  27.335  51.421  1.00  0.00     0.040 A 
ENDROOT
BRANCH   3   8
HETATM    8  N   UNL     1       4.998  26.024  54.892  1.00  0.00    -0.309 N 
HETATM    9  C   UNL     1       5.894  25.268  55.574  1.00  0.00     0.321 C 
HETATM   10  N   UNL     1       7.116  25.046  55.027  1.00  0.00    -0.338 N 
HETATM   11  O   UNL     1       5.551  24.783  56.651  1.00  0.00    -0.247 OA
HETATM   12  H   UNL     1       7.114  24.950  54.022  1.00  0.00     0.164 HD
HETATM   13  H   UNL     1       4.105  25.969  55.364  1.00  0.00     0.170 HD
BRANCH  10  14
HETATM   14  C   UNL     1       8.045  24.197  55.740  1.00  0.00     0.167 C 
BRANCH  14  15
HETATM   15  C   UNL     1       8.168  22.892  55.039  1.00  0.00     0.009 A 
HETATM   16  C   UNL     1       8.162  22.664  53.633  1.00  0.00     0.060 A 
HETATM   17  C   UNL     1       8.042  23.665  52.543  1.00  0.00     0.073 C 
HETATM   18  N   UNL     1       8.267  21.364  53.338  1.00  0.00    -0.179 NA
HETATM   19  N   UNL     1       8.313  20.759  54.532  1.00  0.00    -0.282 N 
HETATM   20  H   UNL     1       8.374  19.746  54.553  1.00  0.00     0.189 HD
HETATM   21  C   UNL     1       8.252  21.623  55.589  1.00  0.00     0.034 A 
HETATM   22  C   UNL     1       8.267  21.147  56.991  1.00  0.00     0.070 C 
ENDBRANCH  14  15
ENDBRANCH  10  14
ENDBRANCH   3   8
BRANCH   7  23
HETATM   23  C   UNL     1       4.484  26.920  50.032  1.00  0.00     0.252 C 
HETATM   24  N   UNL     1       3.205  27.256  49.640  1.00  0.00    -0.349 N 
HETATM   25  H   UNL     1       2.701  27.892  50.245  1.00  0.00     0.163 HD
HETATM   26  O   UNL     1       5.326  26.385  49.328  1.00  0.00    -0.268 OA
BRANCH  24  27
HETATM   27  C   UNL     1       2.645  27.044  48.296  1.00  0.00     0.022 C 
HETATM   28  C   UNL     1       1.147  27.385  48.246  1.00  0.00     0.037 C 
HETATM   29  C   UNL     1       3.381  27.990  47.329  1.00  0.00     0.037 C 
HETATM   30  C   UNL     1       2.874  25.597  47.843  1.00  0.00     0.037 C 
ENDBRANCH  24  27
ENDBRANCH   7  23
TORSDOF 5
ENDMDL
MODEL 5
REMARK VINA RESULT:      -8.1      2.444      8.580
REMARK  5 active torsions:
REMARK  status: ('A' for Active; 'I' for Inactive)
REMARK    1  A    between atoms: C_3  and  N_4 
REMARK       I    between atoms: N_4  and  C_5 
REMARK       I    between atoms: C_5  and  N_6 
REMARK    2  A    between atoms: N_6  and  C_7 
REMARK    3  A    between atoms: C_7  and  C_8 
REMARK    4  A    between atoms: C_20  and  C_21 
REMARK       I    between atoms: C_21  and  N_22 
REMARK    5  A    between atoms: N_22  and  C_23 
ROOT
HETATM    1  C   UNL     1       4.672  28.476  56.187  1.00  0.00     0.052 C 
HETATM    2  C   UNL     1       6.141  28.435  56.537  1.00  0.00    -0.020 A 
HETATM    3  C   UNL     1       6.787  29.564  57.104  1.00  0.00     0.043 A 
HETATM    4  C   UNL     1       8.125  29.455  57.506  1.00  0.00     0.030 A 
HETATM    5  C   UNL     1       8.824  28.253  57.366  1.00  0.00     0.003 A 
HETATM    6  C   UNL     1       8.216  27.159  56.764  1.00  0.00     0.018 A 
HETATM    7  C   UNL     1       6.895  27.258  56.315  1.00  0.00     0.040 A 
ENDROOT
BRANCH   3   8
HETATM    8  N   UNL     1       6.070  30.779  57.161  1.00  0.00    -0.309 N 
HETATM    9  C   UNL     1       6.040  31.830  58.018  1.00  0.00     0.321 C 
HETATM   10  N   UNL     1       6.564  31.680  59.260  1.00  0.00    -0.338 N 
HETATM   11  O   UNL     1       5.506  32.873  57.645  1.00  0.00    -0.247 OA
HETATM   12  H   UNL     1       6.432  30.763  59.662  1.00  0.00     0.164 HD
HETATM   13  H   UNL     1       5.517  31.012  56.347  1.00  0.00     0.170 HD
BRANCH  10  14
HETATM   14  C   UNL     1       6.480  32.791  60.181  1.00  0.00     0.167 C 
BRANCH  14  15
HETATM   15  C   UNL     1       5.694  32.391  61.378  1.00  0.00     0.009 A 
HETATM   16  C   UNL     1       4.283  32.218  61.464  1.00  0.00     0.060 A 
HETATM   17  C   UNL     1       3.272  32.384  60.390  1.00  0.00     0.073 C 
HETATM   18  N   UNL     1       3.898  31.877  62.699  1.00  0.00    -0.179 NA
HETATM   19  N   UNL     1       5.035  31.857  63.404  1.00  0.00    -0.282 N 
HETATM   20  H   UNL     1       4.980  31.638  64.394  1.00  0.00     0.189 HD
HETATM   21  C   UNL     1       6.144  32.163  62.668  1.00  0.00     0.034 A 
HETATM   22  C   UNL     1       7.496  32.214  63.272  1.00  0.00     0.070 C 
ENDBRANCH  14  15
ENDBRANCH  10  14
ENDBRANCH   3   8
BRANCH   7  23
HETATM   23  C   UNL     1       6.368  26.085  55.562  1.00  0.00     0.252 C 
HETATM   24  N   UNL     1       6.875  25.950  54.286  1.00  0.00    -0.349 N 
HETATM   25  H   UNL     1       7.667  26.536  54.053  1.00  0.00     0.163 HD
HETATM   26  O   UNL     1       5.599  25.307  56.107  1.00  0.00    -0.268 OA
BRANCH  24  27
HETATM   27  C   UNL     1       6.591  24.834  53.372  1.00  0.00     0.022 C 
HETATM   28  C   UNL     1       5.109  24.800  52.963  1.00  0.00     0.037 C 
HETATM   29  C   UNL     1       7.431  25.047  52.098  1.00  0.00     0.037 C 
HETATM   30  C   UNL     1       6.994  23.501  54.014  1.00  0.00     0.037 C 
ENDBRANCH  24  27
ENDBRANCH   7  23
TORSDOF 5
ENDMDL
MODEL 6
REMARK VINA RESULT:      -8.0      1.930      3.178
REMARK  5 active torsions:
REMARK  status: ('A' for Active; 'I' for Inactive)
REMARK    1  A    between atoms: C_3  and  N_4 
REMARK       I    between atoms: N_4  and  C_5 
REMARK       I    between atoms: C_5  and  N_6 
REMARK    2  A    between atoms: N_6  and  C_7 
REMARK    3  A    between atoms: C_7  and  C_8 
REMARK    4  A    between atoms: C_20  and  C_21 
REMARK       I    between atoms: C_21  and  N_22 
REMARK    5  A    between atoms: N_22  and  C_23 
ROOT
HETATM    1  C   UNL     1       8.780  28.980  55.948  1.00  0.00     0.052 C 
HETATM    2  C   UNL     1       7.336  28.585  56.149  1.00  0.00    -0.020 A 
HETATM    3  C   UNL     1       6.741  27.569  55.357  1.00  0.00     0.043 A 
HETATM    4  C   UNL     1       5.430  27.163  55.639  1.00  0.00     0.030 A 
HETATM    5  C   UNL     1       4.709  27.734  56.691  1.00  0.00     0.003 A 
HETATM    6  C   UNL     1       5.264  28.765  57.437  1.00  0.00     0.018 A 
HETATM    7  C   UNL     1       6.555  29.218  57.146  1.00  0.00     0.040 A 
ENDROOT
BRANCH   3   8
HETATM    8  N   UNL     1       7.475  27.069  54.259  1.00  0.00    -0.309 N 
HETATM    9  C   UNL     1       7.555  25.869  53.631  1.00  0.00     0.321 C 
HETATM   10  N   UNL     1       7.082  24.766  54.262  1.00  0.00    -0.338 N 
HETATM   11  O   UNL     1       8.086  25.824  52.522  1.00  0.00    -0.247 OA
HETATM   12  H   UNL     1       7.220  24.764  55.262  1.00  0.00     0.164 HD
HETATM   13  H   UNL     1       7.996  27.749  53.721  1.00  0.00     0.170 HD
BRANCH  10  14
HETATM   14  C   UNL     1       7.219  23.485  53.604  1.00  0.00     0.167 C 
BRANCH  14  15
HETATM   15  C   UNL     1       7.882  22.521  54.520  1.00  0.00     0.009 A 
HETATM   16  C   UNL     1       8.302  21.194  54.217  1.00  0.00     0.060 A 
HETATM   17  C   UNL     1       8.190  20.468  52.927  1.00  0.00     0.073 C 
HETATM   18  N   UNL     1       8.842  20.588  55.280  1.00  0.00    -0.179 NA
HETATM   19  N   UNL     1       8.748  21.496  56.259  1.00  0.00    -0.282 N 
HETATM   20  H   UNL     1       9.085  21.241  57.182  1.00  0.00     0.189 HD
HETATM   21  C   UNL     1       8.176  22.672  55.866  1.00  0.00     0.034 A 
HETATM   22  C   UNL     1       7.963  23.795  56.808  1.00  0.00     0.070 C 
ENDBRANCH  14  15
ENDBRANCH  10  14
ENDBRANCH   3   8
BRANCH   7  23
HETATM   23  C   UNL     1       7.019  30.413  57.905  1.00  0.00     0.252 C 
HETATM   24  N   UNL     1       7.750  30.121  59.038  1.00  0.00    -0.349 N 
HETATM   25  H   UNL     1       8.048  29.160  59.146  1.00  0.00     0.163 HD
HETATM   26  O   UNL     1       6.792  31.534  57.476  1.00  0.00    -0.268 OA
BRANCH  24  27
HETATM   27  C   UNL     1       8.398  31.112  59.910  1.00  0.00     0.022 C 
HETATM   28  C   UNL     1       9.019  30.453  61.153  1.00  0.00     0.037 C 
HETATM   29  C   UNL     1       9.533  31.772  59.105  1.00  0.00     0.037 C 
HETATM   30  C   UNL     1       7.394  32.193  60.329  1.00  0.00     0.037 C 
ENDBRANCH  24  27
ENDBRANCH   7  23
TORSDOF 5
ENDMDL
MODEL 7
REMARK VINA RESULT:      -8.0      3.362      5.841
REMARK  5 active torsions:
REMARK  status: ('A' for Active; 'I' for Inactive)
REMARK    1  A    between atoms: C_3  and  N_4 
REMARK       I    between atoms: N_4  and  C_5 
REMARK       I    between atoms: C_5  and  N_6 
REMARK    2  A    between atoms: N_6  and  C_7 
REMARK    3  A    between atoms: C_7  and  C_8 
REMARK    4  A    between atoms: C_20  and  C_21 
REMARK       I    between atoms: C_21  and  N_22 
REMARK    5  A    between atoms: N_22  and  C_23 
ROOT
HETATM    1  C   UNL     1       4.919  33.139  60.875  1.00  0.00     0.052 C 
HETATM    2  C   UNL     1       6.287  32.720  61.361  1.00  0.00    -0.020 A 
HETATM    3  C   UNL     1       7.267  32.237  60.456  1.00  0.00     0.043 A 
HETATM    4  C   UNL     1       8.554  31.953  60.930  1.00  0.00     0.030 A 
HETATM    5  C   UNL     1       8.887  32.148  62.273  1.00  0.00     0.003 A 
HETATM    6  C   UNL     1       7.921  32.570  63.176  1.00  0.00     0.018 A 
HETATM    7  C   UNL     1       6.617  32.818  62.735  1.00  0.00     0.040 A 
ENDROOT
BRANCH   3   8
HETATM    8  N   UNL     1       6.871  31.984  59.124  1.00  0.00    -0.309 N 
HETATM    9  C   UNL     1       6.837  30.884  58.331  1.00  0.00     0.321 C 
HETATM   10  N   UNL     1       7.558  29.793  58.691  1.00  0.00    -0.338 N 
HETATM   11  O   UNL     1       6.176  30.930  57.295  1.00  0.00    -0.247 OA
HETATM   12  H   UNL     1       8.439  30.002  59.138  1.00  0.00     0.164 HD
HETATM   13  H   UNL     1       6.404  32.742  58.643  1.00  0.00     0.170 HD
BRANCH  10  14
HETATM   14  C   UNL     1       7.554  28.645  57.812  1.00  0.00     0.167 C 
BRANCH  14  15
HETATM   15  C   UNL     1       8.386  28.929  56.614  1.00  0.00     0.009 A 
HETATM   16  C   UNL     1       8.086  28.608  55.260  1.00  0.00     0.060 A 
HETATM   17  C   UNL     1       6.878  27.931  54.724  1.00  0.00     0.073 C 
HETATM   18  N   UNL     1       9.065  28.983  54.430  1.00  0.00    -0.179 NA
HETATM   19  N   UNL     1       9.994  29.512  55.236  1.00  0.00    -0.282 N 
HETATM   20  H   UNL     1      10.854  29.851  54.816  1.00  0.00     0.189 HD
HETATM   21  C   UNL     1       9.647  29.502  56.556  1.00  0.00     0.034 A 
HETATM   22  C   UNL     1      10.550  30.023  57.609  1.00  0.00     0.070 C 
ENDBRANCH  14  15
ENDBRANCH  10  14
ENDBRANCH   3   8
BRANCH   7  23
HETATM   23  C   UNL     1       5.615  33.137  63.791  1.00  0.00     0.252 C 
HETATM   24  N   UNL     1       5.608  34.457  64.192  1.00  0.00    -0.349 N 
HETATM   25  H   UNL     1       6.139  35.103  63.621  1.00  0.00     0.163 HD
HETATM   26  O   UNL     1       4.849  32.271  64.186  1.00  0.00    -0.268 OA
BRANCH  24  27
HETATM   27  C   UNL     1       4.661  35.050  65.147  1.00  0.00     0.022 C 
HETATM   28  C   UNL     1       4.746  36.585  65.152  1.00  0.00     0.037 C 
HETATM   29  C   UNL     1       3.239  34.654  64.704  1.00  0.00     0.037 C 
HETATM   30  C   UNL     1       4.911  34.501  66.558  1.00  0.00     0.037 C 
ENDBRANCH  24  27
ENDBRANCH   7  23
TORSDOF 5
ENDMDL
MODEL 8
REMARK VINA RESULT:      -7.8      2.367      8.866
REMARK  5 active torsions:
REMARK  status: ('A' for Active; 'I' for Inactive)
REMARK    1  A    between atoms: C_3  and  N_4 
REMARK       I    between atoms: N_4  and  C_5 
REMARK       I    between atoms: C_5  and  N_6 
REMARK    2  A    between atoms: N_6  and  C_7 
REMARK    3  A    between atoms: C_7  and  C_8 
REMARK    4  A    between atoms: C_20  and  C_21 
REMARK       I    between atoms: C_21  and  N_22 
REMARK    5  A    between atoms: N_22  and  C_23 
ROOT
HETATM    1  C   UNL     1       8.400  28.708  55.725  1.00  0.00     0.052 C 
HETATM    2  C   UNL     1       6.928  28.829  56.040  1.00  0.00    -0.020 A 
HETATM    3  C   UNL     1       6.485  29.488  57.215  1.00  0.00     0.043 A 
HETATM    4  C   UNL     1       5.111  29.666  57.422  1.00  0.00     0.030 A 
HETATM    5  C   UNL     1       4.176  29.216  56.486  1.00  0.00     0.003 A 
HETATM    6  C   UNL     1       4.597  28.523  55.359  1.00  0.00     0.018 A 
HETATM    7  C   UNL     1       5.962  28.295  55.152  1.00  0.00     0.040 A 
ENDROOT
BRANCH   3   8
HETATM    8  N   UNL     1       7.455  29.863  58.171  1.00  0.00    -0.309 N 
HETATM    9  C   UNL     1       7.507  30.778  59.170  1.00  0.00     0.321 C 
HETATM   10  N   UNL     1       6.602  31.789  59.182  1.00  0.00    -0.338 N 
HETATM   11  O   UNL     1       8.397  30.675  60.012  1.00  0.00    -0.247 OA
HETATM   12  H   UNL     1       6.344  32.130  58.267  1.00  0.00     0.164 HD
HETATM   13  H   UNL     1       8.276  29.274  58.231  1.00  0.00     0.170 HD
BRANCH  10  14
HETATM   14  C   UNL     1       6.699  32.787  60.223  1.00  0.00     0.167 C 
BRANCH  14  15
HETATM   15  C   UNL     1       5.795  32.429  61.346  1.00  0.00     0.009 A 
HETATM   16  C   UNL     1       6.162  32.144  62.693  1.00  0.00     0.060 A 
HETATM   17  C   UNL     1       7.520  32.148  63.292  1.00  0.00     0.073 C 
HETATM   18  N   UNL     1       5.101  31.832  63.443  1.00  0.00    -0.179 NA
HETATM   19  N   UNL     1       4.069  31.886  62.592  1.00  0.00    -0.282 N 
HETATM   20  H   UNL     1       3.144  31.660  62.946  1.00  0.00     0.189 HD
HETATM   21  C   UNL     1       4.423  32.233  61.320  1.00  0.00     0.034 A 
HETATM   22  C   UNL     1       3.428  32.327  60.227  1.00  0.00     0.070 C 
ENDBRANCH  14  15
ENDBRANCH  10  14
ENDBRANCH   3   8
BRANCH   7  23
HETATM   23  C   UNL     1       6.315  27.431  53.991  1.00  0.00     0.252 C 
HETATM   24  N   UNL     1       6.404  26.086  54.286  1.00  0.00    -0.349 N 
HETATM   25  H   UNL     1       6.054  25.800  55.192  1.00  0.00     0.163 HD
HETATM   26  O   UNL     1       6.443  27.924  52.881  1.00  0.00    -0.268 OA
BRANCH  24  27
HETATM   27  C   UNL     1       6.646  25.016  53.307  1.00  0.00     0.022 C 
HETATM   28  C   UNL     1       7.890  25.301  52.451  1.00  0.00     0.037 C 
HETATM   29  C   UNL     1       6.896  23.713  54.091  1.00  0.00     0.037 C 
HETATM   30  C   UNL     1       5.417  24.824  52.409  1.00  0.00     0.037 C 
ENDBRANCH  24  27
ENDBRANCH   7  23
TORSDOF 5
ENDMDL
MODEL 9
REMARK VINA RESULT:      -7.7      3.141      9.089
REMARK  5 active torsions:
REMARK  status: ('A' for Active; 'I' for Inactive)
REMARK    1  A    between atoms: C_3  and  N_4 
REMARK       I    between atoms: N_4  and  C_5 
REMARK       I    between atoms: C_5  and  N_6 
REMARK    2  A    between atoms: N_6  and  C_7 
REMARK    3  A    between atoms: C_7  and  C_8 
REMARK    4  A    between atoms: C_20  and  C_21 
REMARK       I    between atoms: C_21  and  N_22 
REMARK    5  A    between atoms: N_22  and  C_23 
ROOT
HETATM    1  C   UNL     1       3.472  28.177  52.903  1.00  0.00     0.052 C 
HETATM    2  C   UNL     1       4.593  27.196  53.154  1.00  0.00    -0.020 A 
HETATM    3  C   UNL     1       5.008  26.886  54.475  1.00  0.00     0.043 A 
HETATM    4  C   UNL     1       5.984  25.898  54.669  1.00  0.00     0.030 A 
HETATM    5  C   UNL     1       6.541  25.212  53.587  1.00  0.00     0.003 A 
HETATM    6  C   UNL     1       6.179  25.547  52.289  1.00  0.00     0.018 A 
HETATM    7  C   UNL     1       5.240  26.559  52.068  1.00  0.00     0.040 A 
ENDROOT
BRANCH   3   8
HETATM    8  N   UNL     1       4.476  27.651  55.535  1.00  0.00    -0.309 N 
HETATM    9  C   UNL     1       4.762  28.862  56.076  1.00  0.00     0.321 C 
HETATM   10  N   UNL     1       5.960  29.436  55.803  1.00  0.00    -0.338 N 
HETATM   11  O   UNL     1       3.933  29.379  56.822  1.00  0.00    -0.247 OA
HETATM   12  H   UNL     1       6.727  28.785  55.719  1.00  0.00     0.164 HD
HETATM   13  H   UNL     1       3.620  27.307  55.950  1.00  0.00     0.170 HD
BRANCH  10  14
HETATM   14  C   UNL     1       6.274  30.703  56.426  1.00  0.00     0.167 C 
BRANCH  14  15
HETATM   15  C   UNL     1       7.016  30.467  57.692  1.00  0.00     0.009 A 
HETATM   16  C   UNL     1       8.029  29.495  57.930  1.00  0.00     0.060 A 
HETATM   17  C   UNL     1       8.587  28.501  56.979  1.00  0.00     0.073 C 
HETATM   18  N   UNL     1       8.471  29.535  59.191  1.00  0.00    -0.179 NA
HETATM   19  N   UNL     1       7.739  30.497  59.766  1.00  0.00    -0.282 N 
HETATM   20  H   UNL     1       7.893  30.692  60.750  1.00  0.00     0.189 HD
HETATM   21  C   UNL     1       6.845  31.088  58.919  1.00  0.00     0.034 A 
HETATM   22  C   UNL     1       5.929  32.160  59.370  1.00  0.00     0.070 C 
ENDBRANCH  14  15
ENDBRANCH  10  14
ENDBRANCH   3   8
BRANCH   7  23
HETATM   23  C   UNL     1       5.011  26.943  50.646  1.00  0.00     0.252 C 
HETATM   24  N   UNL     1       4.205  26.072  49.942  1.00  0.00    -0.349 N 
HETATM   25  H   UNL     1       3.713  25.375  50.487  1.00  0.00     0.163 HD
HETATM   26  O   UNL     1       5.475  27.987  50.215  1.00  0.00    -0.268 OA
BRANCH  24  27
HETATM   27  C   UNL     1       3.751  26.266  48.557  1.00  0.00     0.022 C 
HETATM   28  C   UNL     1       3.041  25.015  48.013  1.00  0.00     0.037 C 
HETATM   29  C   UNL     1       2.737  27.426  48.555  1.00  0.00     0.037 C 
HETATM   30  C   UNL     1       4.933  26.639  47.654  1.00  0.00     0.037 C 
ENDBRANCH  24  27
ENDBRANCH   7  23
TORSDOF 5
ENDMDL
MODEL 10
REMARK VINA RESULT:      -7.7      2.834      3.695
REMARK  5 active torsions:
REMARK  status: ('A' for Active; 'I' for Inactive)
REMARK    1  A    between atoms: C_3  and  N_4 
REMARK       I    between atoms: N_4  and  C_5 
REMARK       I    between atoms: C_5  and  N_6 
REMARK    2  A    between atoms: N_6  and  C_7 
REMARK    3  A    between atoms: C_7  and  C_8 
REMARK    4  A    between atoms: C_20  and  C_21 
REMARK       I    between atoms: C_21  and  N_22 
REMARK    5  A    between atoms: N_22  and  C_23 
ROOT
HETATM    1  C   UNL     1       5.744  29.784  57.700  1.00  0.00     0.052 C 
HETATM    2  C   UNL     1       7.181  30.120  58.020  1.00  0.00    -0.020 A 
HETATM    3  C   UNL     1       8.241  29.290  57.574  1.00  0.00     0.043 A 
HETATM    4  C   UNL     1       9.565  29.689  57.806  1.00  0.00     0.030 A 
HETATM    5  C   UNL     1       9.852  30.891  58.458  1.00  0.00     0.003 A 
HETATM    6  C   UNL     1       8.821  31.683  58.945  1.00  0.00     0.018 A 
HETATM    7  C   UNL     1       7.493  31.284  58.764  1.00  0.00     0.040 A 
ENDROOT
BRANCH   3   8
HETATM    8  N   UNL     1       7.910  28.050  56.986  1.00  0.00    -0.309 N 
HETATM    9  C   UNL     1       7.653  27.632  55.721  1.00  0.00     0.321 C 
HETATM   10  N   UNL     1       7.357  28.555  54.772  1.00  0.00    -0.338 N 
HETATM   11  O   UNL     1       7.666  26.424  55.491  1.00  0.00    -0.247 OA
HETATM   12  H   UNL     1       6.821  29.342  55.107  1.00  0.00     0.164 HD
HETATM   13  H   UNL     1       7.967  27.239  57.588  1.00  0.00     0.170 HD
BRANCH  10  14
HETATM   14  C   UNL     1       7.034  28.093  53.440  1.00  0.00     0.167 C 
BRANCH  14  15
HETATM   15  C   UNL     1       5.575  27.830  53.342  1.00  0.00     0.009 A 
HETATM   16  C   UNL     1       4.518  28.776  53.462  1.00  0.00     0.060 A 
HETATM   17  C   UNL     1       4.619  30.237  53.702  1.00  0.00     0.073 C 
HETATM   18  N   UNL     1       3.317  28.199  53.347  1.00  0.00    -0.179 NA
HETATM   19  N   UNL     1       3.592  26.899  53.182  1.00  0.00    -0.282 N 
HETATM   20  H   UNL     1       2.814  26.253  53.093  1.00  0.00     0.189 HD
HETATM   21  C   UNL     1       4.928  26.615  53.177  1.00  0.00     0.034 A 
HETATM   22  C   UNL     1       5.435  25.232  53.028  1.00  0.00     0.070 C 
ENDBRANCH  14  15
ENDBRANCH  10  14
ENDBRANCH   3   8
BRANCH   7  23
HETATM   23  C   UNL     1       6.458  32.123  59.433  1.00  0.00     0.252 C 
HETATM   24  N   UNL     1       6.236  31.807  60.757  1.00  0.00    -0.349 N 
HETATM   25  H   UNL     1       6.903  31.177  61.188  1.00  0.00     0.163 HD
HETATM   26  O   UNL     1       5.930  33.040  58.824  1.00  0.00    -0.268 OA
BRANCH  24  27
HETATM   27  C   UNL     1       5.340  32.535  61.667  1.00  0.00     0.022 C 
HETATM   28  C   UNL     1       3.896  32.563  61.138  1.00  0.00     0.037 C 
HETATM   29  C   UNL     1       5.338  31.794  63.017  1.00  0.00     0.037 C 
HETATM   30  C   UNL     1       5.849  33.965  61.888  1.00  0.00     0.037 C 
ENDBRANCH  24  27
ENDBRANCH   7  23
TORSDOF 5
ENDMDL
