MODEL 1
REMARK VINA RESULT:      -9.7      0.000      0.000
REMARK  4 active torsions:
REMARK  status: ('A' for Active; 'I' for Inactive)
REMARK    1  A    between atoms: O_2  and  C_3 
REMARK    2  A    between atoms: C_6  and  C_7 
REMARK    3  A    between atoms: C_11  and  C_12 
REMARK       I    between atoms: C_12  and  N_13 
REMARK    4  A    between atoms: N_13  and  N_14 
ROOT
HETATM    1  C   UNL     1       7.005  27.718  53.658  1.00  0.00     0.289 C 
HETATM    2  N   UNL     1       6.512  26.792  54.563  1.00  0.00    -0.241 N 
HETATM    3  O   UNL     1       8.095  28.273  53.738  1.00  0.00    -0.264 OA
HETATM    4  H   UNL     1       5.534  26.550  54.520  1.00  0.00     0.192 HD
ENDROOT
BRANCH   1   5
HETATM    5  C   UNL     1       6.109  27.970  52.553  1.00  0.00     0.121 A 
HETATM    6  N   UNL     1       5.851  29.233  52.100  1.00  0.00    -0.272 N 
HETATM    7  N   UNL     1       5.011  29.279  51.052  1.00  0.00    -0.174 NA
HETATM    8  H   UNL     1       6.228  30.101  52.469  1.00  0.00     0.189 HD
HETATM    9  C   UNL     1       4.726  27.995  50.787  1.00  0.00     0.089 A 
HETATM   10  C   UNL     1       5.377  27.145  51.723  1.00  0.00     0.071 A 
BRANCH   9  11
HETATM   11  C   UNL     1       3.853  27.591  49.681  1.00  0.00    -0.005 A 
HETATM   12  C   UNL     1       2.705  28.330  49.367  1.00  0.00     0.016 A 
HETATM   13  C   UNL     1       1.889  27.959  48.294  1.00  0.00     0.037 A 
HETATM   14  C   UNL     1       2.205  26.848  47.513  1.00  0.00     0.068 A 
HETATM   15  C   UNL     1       3.334  26.092  47.829  1.00  0.00     0.037 A 
HETATM   16  C   UNL     1       4.149  26.461  48.908  1.00  0.00     0.016 A 
BRANCH  14  17
HETATM   17  O   UNL     1       1.334  26.609  46.488  1.00  0.00    -0.356 OA
HETATM   18  C   UNL     1       0.260  27.527  46.336  1.00  0.00     0.210 C 
ENDBRANCH  14  17
ENDBRANCH   9  11
ENDBRANCH   1   5
BRANCH   2  19
HETATM   19  N   UNL     1       7.186  26.476  55.703  1.00  0.00    -0.165 NA
HETATM   20  C   UNL     1       7.706  25.290  55.795  1.00  0.00     0.157 A 
HETATM   21  C   UNL     1       8.292  24.767  57.124  1.00  0.00     0.277 A 
HETATM   22  C   UNL     1       7.864  24.187  54.833  1.00  0.00     0.027 A 
HETATM   23  O   UNL     1       8.406  25.383  58.159  1.00  0.00    -0.266 OA
HETATM   24  N   UNL     1       8.628  23.453  56.881  1.00  0.00    -0.321 N 
HETATM   25  C   UNL     1       8.390  23.113  55.555  1.00  0.00     0.048 A 
HETATM   26  H   UNL     1       9.039  22.860  57.586  1.00  0.00     0.169 HD
HETATM   27  C   UNL     1       8.660  21.895  54.963  1.00  0.00     0.030 A 
HETATM   28  C   UNL     1       8.406  21.771  53.595  1.00  0.00     0.002 A 
HETATM   29  C   UNL     1       7.917  22.860  52.852  1.00  0.00     0.001 A 
HETATM   30  C   UNL     1       7.653  24.089  53.468  1.00  0.00     0.016 A 
ENDBRANCH   2  19
TORSDOF 4
ENDMDL
MODEL 2
REMARK VINA RESULT:      -9.3      5.176      9.409
REMARK  4 active torsions:
REMARK  status: ('A' for Active; 'I' for Inactive)
REMARK    1  A    between atoms: O_2  and  C_3 
REMARK    2  A    between atoms: C_6  and  C_7 
REMARK    3  A    between atoms: C_11  and  C_12 
REMARK       I    between atoms: C_12  and  N_13 
REMARK    4  A    between atoms: N_13  and  N_14 
ROOT
HETATM    1  C   UNL     1       7.694  28.413  55.374  1.00  0.00     0.289 C 
HETATM    2  N   UNL     1       6.548  27.661  55.580  1.00  0.00    -0.241 N 
HETATM    3  O   UNL     1       8.260  28.556  54.295  1.00  0.00    -0.264 OA
HETATM    4  H   UNL     1       6.281  27.443  56.528  1.00  0.00     0.192 HD
ENDROOT
BRANCH   1   5
HETATM    5  C   UNL     1       8.175  29.063  56.570  1.00  0.00     0.121 A 
HETATM    6  N   UNL     1       9.494  29.372  56.750  1.00  0.00    -0.272 N 
HETATM    7  N   UNL     1       9.759  29.993  57.912  1.00  0.00    -0.174 NA
HETATM    8  H   UNL     1      10.256  29.184  56.105  1.00  0.00     0.189 HD
HETATM    9  C   UNL     1       8.564  30.122  58.509  1.00  0.00     0.089 A 
HETATM   10  C   UNL     1       7.550  29.530  57.709  1.00  0.00     0.071 A 
BRANCH   9  11
HETATM   11  C   UNL     1       8.397  30.784  59.806  1.00  0.00    -0.005 A 
HETATM   12  C   UNL     1       9.305  30.556  60.849  1.00  0.00     0.016 A 
HETATM   13  C   UNL     1       9.159  31.211  62.076  1.00  0.00     0.037 A 
HETATM   14  C   UNL     1       8.109  32.105  62.284  1.00  0.00     0.068 A 
HETATM   15  C   UNL     1       7.188  32.323  61.260  1.00  0.00     0.037 A 
HETATM   16  C   UNL     1       7.331  31.664  60.031  1.00  0.00     0.016 A 
BRANCH  14  17
HETATM   17  O   UNL     1       8.095  32.686  63.521  1.00  0.00    -0.356 OA
HETATM   18  C   UNL     1       6.837  33.152  63.992  1.00  0.00     0.210 C 
ENDBRANCH  14  17
ENDBRANCH   9  11
ENDBRANCH   1   5
BRANCH   2  19
HETATM   19  N   UNL     1       5.986  26.923  54.584  1.00  0.00    -0.165 NA
HETATM   20  C   UNL     1       6.334  25.677  54.478  1.00  0.00     0.157 A 
HETATM   21  C   UNL     1       5.924  24.827  53.256  1.00  0.00     0.277 A 
HETATM   22  C   UNL     1       7.140  24.785  55.328  1.00  0.00     0.027 A 
HETATM   23  O   UNL     1       5.209  25.168  52.342  1.00  0.00    -0.266 OA
HETATM   24  N   UNL     1       6.566  23.619  53.423  1.00  0.00    -0.321 N 
HETATM   25  C   UNL     1       7.265  23.586  54.623  1.00  0.00     0.048 A 
HETATM   26  H   UNL     1       6.476  22.862  52.762  1.00  0.00     0.169 HD
HETATM   27  C   UNL     1       7.977  22.514  55.125  1.00  0.00     0.030 A 
HETATM   28  C   UNL     1       8.560  22.658  56.385  1.00  0.00     0.002 A 
HETATM   29  C   UNL     1       8.404  23.847  57.119  1.00  0.00     0.001 A 
HETATM   30  C   UNL     1       7.676  24.922  56.597  1.00  0.00     0.016 A 
ENDBRANCH   2  19
TORSDOF 4
ENDMDL
MODEL 3
REMARK VINA RESULT:      -9.2      1.254      1.591
REMARK  4 active torsions:
REMARK  status: ('A' for Active; 'I' for Inactive)
REMARK    1  A    between atoms: O_2  and  C_3 
REMARK    2  A    between atoms: C_6  and  C_7 
REMARK    3  A    between atoms: C_11  and  C_12 
REMARK       I    between atoms: C_12  and  N_13 
REMARK    4  A    between atoms: N_13  and  N_14 
ROOT
HETATM    1  C   UNL     1       6.277  27.271  53.646  1.00  0.00     0.289 C 
HETATM    2  N   UNL     1       6.940  26.120  54.041  1.00  0.00    -0.241 N 
HETATM    3  O   UNL     1       6.185  28.297  54.311  1.00  0.00    -0.264 OA
HETATM    4  H   UNL     1       6.786  25.272  53.516  1.00  0.00     0.192 HD
ENDROOT
BRANCH   1   5
HETATM    5  C   UNL     1       5.702  27.175  52.324  1.00  0.00     0.121 A 
HETATM    6  N   UNL     1       6.102  26.226  51.425  1.00  0.00    -0.272 N 
HETATM    7  N   UNL     1       5.445  26.271  50.253  1.00  0.00    -0.174 NA
HETATM    8  H   UNL     1       6.818  25.519  51.564  1.00  0.00     0.189 HD
HETATM    9  C   UNL     1       4.561  27.270  50.396  1.00  0.00     0.089 A 
HETATM   10  C   UNL     1       4.708  27.876  51.673  1.00  0.00     0.071 A 
BRANCH   9  11
HETATM   11  C   UNL     1       3.610  27.638  49.343  1.00  0.00    -0.005 A 
HETATM   12  C   UNL     1       3.652  27.016  48.088  1.00  0.00     0.016 A 
HETATM   13  C   UNL     1       2.726  27.350  47.096  1.00  0.00     0.037 A 
HETATM   14  C   UNL     1       1.740  28.306  47.337  1.00  0.00     0.068 A 
HETATM   15  C   UNL     1       1.701  28.947  48.575  1.00  0.00     0.037 A 
HETATM   16  C   UNL     1       2.632  28.616  49.569  1.00  0.00     0.016 A 
BRANCH  14  17
HETATM   17  O   UNL     1       0.891  28.523  46.288  1.00  0.00    -0.356 OA
HETATM   18  C   UNL     1      -0.183  27.605  46.136  1.00  0.00     0.210 C 
ENDBRANCH  14  17
ENDBRANCH   9  11
ENDBRANCH   1   5
BRANCH   2  19
HETATM   19  N   UNL     1       7.488  25.999  55.281  1.00  0.00    -0.165 NA
HETATM   20  C   UNL     1       7.785  24.808  55.704  1.00  0.00     0.157 A 
HETATM   21  C   UNL     1       8.200  24.552  57.168  1.00  0.00     0.277 A 
HETATM   22  C   UNL     1       7.795  23.487  55.053  1.00  0.00     0.027 A 
HETATM   23  O   UNL     1       8.368  25.384  58.030  1.00  0.00    -0.266 OA
HETATM   24  N   UNL     1       8.311  23.183  57.280  1.00  0.00    -0.321 N 
HETATM   25  C   UNL     1       8.085  22.562  56.059  1.00  0.00     0.048 A 
HETATM   26  H   UNL     1       8.574  22.730  58.143  1.00  0.00     0.169 HD
HETATM   27  C   UNL     1       8.165  21.207  55.804  1.00  0.00     0.030 A 
HETATM   28  C   UNL     1       7.964  20.783  54.489  1.00  0.00     0.002 A 
HETATM   29  C   UNL     1       7.713  21.712  53.463  1.00  0.00     0.001 A 
HETATM   30  C   UNL     1       7.640  23.082  53.739  1.00  0.00     0.016 A 
ENDBRANCH   2  19
TORSDOF 4
ENDMDL
MODEL 4
REMARK VINA RESULT:      -9.0      4.953      8.128
REMARK  4 active torsions:
REMARK  status: ('A' for Active; 'I' for Inactive)
REMARK    1  A    between atoms: O_2  and  C_3 
REMARK    2  A    between atoms: C_6  and  C_7 
REMARK    3  A    between atoms: C_11  and  C_12 
REMARK       I    between atoms: C_12  and  N_13 
REMARK    4  A    between atoms: N_13  and  N_14 
ROOT
HETATM    1  C   UNL     1       5.100  29.361  55.795  1.00  0.00     0.289 C 
HETATM    2  N   UNL     1       5.765  30.576  55.850  1.00  0.00    -0.241 N 
HETATM    3  O   UNL     1       3.969  29.155  56.221  1.00  0.00    -0.264 OA
HETATM    4  H   UNL     1       6.755  30.591  55.660  1.00  0.00     0.192 HD
ENDROOT
BRANCH   1   5
HETATM    5  C   UNL     1       5.863  28.320  55.146  1.00  0.00     0.121 A 
HETATM    6  N   UNL     1       6.672  28.572  54.075  1.00  0.00    -0.272 N 
HETATM    7  N   UNL     1       7.323  27.491  53.611  1.00  0.00    -0.174 NA
HETATM    8  H   UNL     1       6.821  29.469  53.622  1.00  0.00     0.189 HD
HETATM    9  C   UNL     1       6.948  26.493  54.427  1.00  0.00     0.089 A 
HETATM   10  C   UNL     1       6.014  26.970  55.387  1.00  0.00     0.071 A 
BRANCH   9  11
HETATM   11  C   UNL     1       7.459  25.127  54.289  1.00  0.00    -0.005 A 
HETATM   12  C   UNL     1       7.644  24.555  53.023  1.00  0.00     0.016 A 
HETATM   13  C   UNL     1       8.158  23.261  52.894  1.00  0.00     0.037 A 
HETATM   14  C   UNL     1       8.500  22.516  54.022  1.00  0.00     0.068 A 
HETATM   15  C   UNL     1       8.300  23.067  55.288  1.00  0.00     0.037 A 
HETATM   16  C   UNL     1       7.781  24.362  55.418  1.00  0.00     0.016 A 
BRANCH  14  17
HETATM   17  O   UNL     1       9.006  21.276  53.752  1.00  0.00    -0.356 OA
HETATM   18  C   UNL     1       8.225  20.438  52.909  1.00  0.00     0.210 C 
ENDBRANCH  14  17
ENDBRANCH   9  11
ENDBRANCH   1   5
BRANCH   2  19
HETATM   19  N   UNL     1       5.231  31.656  56.482  1.00  0.00    -0.165 NA
HETATM   20  C   UNL     1       5.651  31.932  57.678  1.00  0.00     0.157 A 
HETATM   21  C   UNL     1       4.953  32.994  58.554  1.00  0.00     0.277 A 
HETATM   22  C   UNL     1       6.744  31.394  58.506  1.00  0.00     0.027 A 
HETATM   23  O   UNL     1       4.036  33.713  58.229  1.00  0.00    -0.266 OA
HETATM   24  N   UNL     1       5.581  32.926  59.779  1.00  0.00    -0.321 N 
HETATM   25  C   UNL     1       6.622  32.007  59.756  1.00  0.00     0.048 A 
HETATM   26  H   UNL     1       5.322  33.518  60.554  1.00  0.00     0.169 HD
HETATM   27  C   UNL     1       7.487  31.726  60.795  1.00  0.00     0.030 A 
HETATM   28  C   UNL     1       8.514  30.812  60.552  1.00  0.00     0.002 A 
HETATM   29  C   UNL     1       8.669  30.222  59.285  1.00  0.00     0.001 A 
HETATM   30  C   UNL     1       7.785  30.522  58.242  1.00  0.00     0.016 A 
ENDBRANCH   2  19
TORSDOF 4
ENDMDL
MODEL 5
REMARK VINA RESULT:      -9.0      5.410      9.709
REMARK  4 active torsions:
REMARK  status: ('A' for Active; 'I' for Inactive)
REMARK    1  A    between atoms: O_2  and  C_3 
REMARK    2  A    between atoms: C_6  and  C_7 
REMARK    3  A    between atoms: C_11  and  C_12 
REMARK       I    between atoms: C_12  and  N_13 
REMARK    4  A    between atoms: N_13  and  N_14 
ROOT
HETATM    1  C   UNL     1       5.957  29.735  55.486  1.00  0.00     0.289 C 
HETATM    2  N   UNL     1       6.497  28.745  54.680  1.00  0.00    -0.241 N 
HETATM    3  O   UNL     1       4.947  30.382  55.230  1.00  0.00    -0.264 OA
HETATM    4  H   UNL     1       7.431  28.420  54.878  1.00  0.00     0.192 HD
ENDROOT
BRANCH   1   5
HETATM    5  C   UNL     1       6.691  29.937  56.713  1.00  0.00     0.121 A 
HETATM    6  N   UNL     1       7.925  29.386  56.921  1.00  0.00    -0.272 N 
HETATM    7  N   UNL     1       8.470  29.695  58.111  1.00  0.00    -0.174 NA
HETATM    8  H   UNL     1       8.443  28.792  56.280  1.00  0.00     0.189 HD
HETATM    9  C   UNL     1       7.573  30.503  58.697  1.00  0.00     0.089 A 
HETATM   10  C   UNL     1       6.434  30.659  57.861  1.00  0.00     0.071 A 
BRANCH   9  11
HETATM   11  C   UNL     1       7.794  31.101  60.016  1.00  0.00    -0.005 A 
HETATM   12  C   UNL     1       6.800  31.879  60.626  1.00  0.00     0.016 A 
HETATM   13  C   UNL     1       7.003  32.425  61.897  1.00  0.00     0.037 A 
HETATM   14  C   UNL     1       8.196  32.202  62.584  1.00  0.00     0.068 A 
HETATM   15  C   UNL     1       9.200  31.448  61.978  1.00  0.00     0.037 A 
HETATM   16  C   UNL     1       8.999  30.904  60.702  1.00  0.00     0.016 A 
BRANCH  14  17
HETATM   17  O   UNL     1       8.254  32.779  63.822  1.00  0.00    -0.356 OA
HETATM   18  C   UNL     1       7.096  33.482  64.253  1.00  0.00     0.210 C 
ENDBRANCH  14  17
ENDBRANCH   9  11
ENDBRANCH   1   5
BRANCH   2  19
HETATM   19  N   UNL     1       5.980  28.460  53.454  1.00  0.00    -0.165 NA
HETATM   20  C   UNL     1       6.228  27.292  52.944  1.00  0.00     0.157 A 
HETATM   21  C   UNL     1       5.876  26.960  51.478  1.00  0.00     0.277 A 
HETATM   22  C   UNL     1       6.863  26.078  53.483  1.00  0.00     0.027 A 
HETATM   23  O   UNL     1       5.290  27.671  50.694  1.00  0.00    -0.266 OA
HETATM   24  N   UNL     1       6.391  25.701  51.257  1.00  0.00    -0.321 N 
HETATM   25  C   UNL     1       6.957  25.182  52.414  1.00  0.00     0.048 A 
HETATM   26  H   UNL     1       6.305  25.229  50.370  1.00  0.00     0.169 HD
HETATM   27  C   UNL     1       7.518  23.928  52.559  1.00  0.00     0.030 A 
HETATM   28  C   UNL     1       7.978  23.568  53.827  1.00  0.00     0.002 A 
HETATM   29  C   UNL     1       7.849  24.447  54.917  1.00  0.00     0.001 A 
HETATM   30  C   UNL     1       7.274  25.713  54.753  1.00  0.00     0.016 A 
ENDBRANCH   2  19
TORSDOF 4
ENDMDL
MODEL 6
REMARK VINA RESULT:      -8.6      2.632      9.224
REMARK  4 active torsions:
REMARK  status: ('A' for Active; 'I' for Inactive)
REMARK    1  A    between atoms: O_2  and  C_3 
REMARK    2  A    between atoms: C_6  and  C_7 
REMARK    3  A    between atoms: C_11  and  C_12 
REMARK       I    between atoms: C_12  and  N_13 
REMARK    4  A    between atoms: N_13  and  N_14 
ROOT
HETATM    1  C   UNL     1       5.180  28.438  51.113  1.00  0.00     0.289 C 
HETATM    2  N   UNL     1       5.350  28.435  49.738  1.00  0.00    -0.241 N 
HETATM    3  O   UNL     1       4.849  29.411  51.782  1.00  0.00    -0.264 OA
HETATM    4  H   UNL     1       5.816  27.648  49.312  1.00  0.00     0.192 HD
ENDROOT
BRANCH   1   5
HETATM    5  C   UNL     1       5.407  27.147  51.720  1.00  0.00     0.121 A 
HETATM    6  N   UNL     1       4.563  26.091  51.520  1.00  0.00    -0.272 N 
HETATM    7  N   UNL     1       4.939  24.962  52.145  1.00  0.00    -0.174 NA
HETATM    8  H   UNL     1       3.715  26.087  50.960  1.00  0.00     0.189 HD
HETATM    9  C   UNL     1       6.090  25.279  52.758  1.00  0.00     0.089 A 
HETATM   10  C   UNL     1       6.403  26.648  52.534  1.00  0.00     0.071 A 
BRANCH   9  11
HETATM   11  C   UNL     1       6.862  24.309  53.538  1.00  0.00    -0.005 A 
HETATM   12  C   UNL     1       6.778  24.283  54.937  1.00  0.00     0.016 A 
HETATM   13  C   UNL     1       7.494  23.338  55.677  1.00  0.00     0.037 A 
HETATM   14  C   UNL     1       8.303  22.400  55.037  1.00  0.00     0.068 A 
HETATM   15  C   UNL     1       8.413  22.429  53.647  1.00  0.00     0.037 A 
HETATM   16  C   UNL     1       7.698  23.379  52.905  1.00  0.00     0.016 A 
BRANCH  14  17
HETATM   17  O   UNL     1       8.933  21.526  55.878  1.00  0.00    -0.356 OA
HETATM   18  C   UNL     1       8.926  20.156  55.496  1.00  0.00     0.210 C 
ENDBRANCH  14  17
ENDBRANCH   9  11
ENDBRANCH   1   5
BRANCH   2  19
HETATM   19  N   UNL     1       5.243  29.574  49.001  1.00  0.00    -0.165 NA
HETATM   20  C   UNL     1       4.221  29.696  48.211  1.00  0.00     0.157 A 
HETATM   21  C   UNL     1       4.129  30.841  47.180  1.00  0.00     0.277 A 
HETATM   22  C   UNL     1       2.999  28.897  48.022  1.00  0.00     0.027 A 
HETATM   23  O   UNL     1       4.909  31.756  47.041  1.00  0.00    -0.266 OA
HETATM   24  N   UNL     1       2.991  30.581  46.447  1.00  0.00    -0.321 N 
HETATM   25  C   UNL     1       2.329  29.462  46.934  1.00  0.00     0.048 A 
HETATM   26  H   UNL     1       2.684  31.178  45.694  1.00  0.00     0.169 HD
HETATM   27  C   UNL     1       1.134  28.952  46.466  1.00  0.00     0.030 A 
HETATM   28  C   UNL     1       0.595  27.849  47.134  1.00  0.00     0.002 A 
HETATM   29  C   UNL     1       1.242  27.301  48.256  1.00  0.00     0.001 A 
HETATM   30  C   UNL     1       2.451  27.833  48.719  1.00  0.00     0.016 A 
ENDBRANCH   2  19
TORSDOF 4
ENDMDL
MODEL 7
REMARK VINA RESULT:      -8.5      7.057      9.839
REMARK  4 active torsions:
REMARK  status: ('A' for Active; 'I' for Inactive)
REMARK    1  A    between atoms: O_2  and  C_3 
REMARK    2  A    between atoms: C_6  and  C_7 
REMARK    3  A    between atoms: C_11  and  C_12 
REMARK       I    between atoms: C_12  and  N_13 
REMARK    4  A    between atoms: N_13  and  N_14 
ROOT
HETATM    1  C   UNL     1       9.044  31.196  60.239  1.00  0.00     0.289 C 
HETATM    2  N   UNL     1       8.144  30.694  61.167  1.00  0.00    -0.241 N 
HETATM    3  O   UNL     1       9.779  32.160  60.418  1.00  0.00    -0.264 OA
HETATM    4  H   UNL     1       7.449  30.033  60.854  1.00  0.00     0.192 HD
ENDROOT
BRANCH   1   5
HETATM    5  C   UNL     1       9.067  30.448  59.003  1.00  0.00     0.121 A 
HETATM    6  N   UNL     1      10.154  30.447  58.175  1.00  0.00    -0.272 N 
HETATM    7  N   UNL     1      10.009  29.681  57.080  1.00  0.00    -0.174 NA
HETATM    8  H   UNL     1      11.026  30.950  58.314  1.00  0.00     0.189 HD
HETATM    9  C   UNL     1       8.789  29.136  57.206  1.00  0.00     0.089 A 
HETATM   10  C   UNL     1       8.159  29.612  58.387  1.00  0.00     0.071 A 
BRANCH   9  11
HETATM   11  C   UNL     1       8.240  28.195  56.225  1.00  0.00    -0.005 A 
HETATM   12  C   UNL     1       8.094  28.565  54.881  1.00  0.00     0.016 A 
HETATM   13  C   UNL     1       7.596  27.656  53.942  1.00  0.00     0.037 A 
HETATM   14  C   UNL     1       7.240  26.363  54.324  1.00  0.00     0.068 A 
HETATM   15  C   UNL     1       7.361  25.991  55.663  1.00  0.00     0.037 A 
HETATM   16  C   UNL     1       7.856  26.903  56.605  1.00  0.00     0.016 A 
BRANCH  14  17
HETATM   17  O   UNL     1       6.784  25.575  53.305  1.00  0.00    -0.356 OA
HETATM   18  C   UNL     1       7.765  25.038  52.427  1.00  0.00     0.210 C 
ENDBRANCH  14  17
ENDBRANCH   9  11
ENDBRANCH   1   5
BRANCH   2  19
HETATM   19  N   UNL     1       7.935  31.305  62.364  1.00  0.00    -0.165 NA
HETATM   20  C   UNL     1       7.097  32.296  62.405  1.00  0.00     0.157 A 
HETATM   21  C   UNL     1       6.962  33.187  63.658  1.00  0.00     0.277 A 
HETATM   22  C   UNL     1       6.156  32.854  61.420  1.00  0.00     0.027 A 
HETATM   23  O   UNL     1       7.524  33.037  64.719  1.00  0.00    -0.266 OA
HETATM   24  N   UNL     1       6.090  34.191  63.298  1.00  0.00    -0.321 N 
HETATM   25  C   UNL     1       5.615  34.001  62.007  1.00  0.00     0.048 A 
HETATM   26  H   UNL     1       5.817  34.926  63.933  1.00  0.00     0.169 HD
HETATM   27  C   UNL     1       4.691  34.790  61.351  1.00  0.00     0.030 A 
HETATM   28  C   UNL     1       4.292  34.394  60.073  1.00  0.00     0.002 A 
HETATM   29  C   UNL     1       4.800  33.218  59.492  1.00  0.00     0.001 A 
HETATM   30  C   UNL     1       5.733  32.428  60.173  1.00  0.00     0.016 A 
ENDBRANCH   2  19
TORSDOF 4
ENDMDL
MODEL 8
REMARK VINA RESULT:      -8.3      1.490      2.077
REMARK  4 active torsions:
REMARK  status: ('A' for Active; 'I' for Inactive)
REMARK    1  A    between atoms: O_2  and  C_3 
REMARK    2  A    between atoms: C_6  and  C_7 
REMARK    3  A    between atoms: C_11  and  C_12 
REMARK       I    between atoms: C_12  and  N_13 
REMARK    4  A    between atoms: N_13  and  N_14 
ROOT
HETATM    1  C   UNL     1       6.720  26.724  55.331  1.00  0.00     0.289 C 
HETATM    2  N   UNL     1       7.459  25.570  55.123  1.00  0.00    -0.241 N 
HETATM    3  O   UNL     1       6.514  27.244  56.422  1.00  0.00    -0.264 OA
HETATM    4  H   UNL     1       7.400  25.116  54.224  1.00  0.00     0.192 HD
ENDROOT
BRANCH   1   5
HETATM    5  C   UNL     1       6.211  27.305  54.110  1.00  0.00     0.121 A 
HETATM    6  N   UNL     1       6.908  28.246  53.407  1.00  0.00    -0.272 N 
HETATM    7  N   UNL     1       6.294  28.661  52.285  1.00  0.00    -0.174 NA
HETATM    8  H   UNL     1       7.815  28.638  53.647  1.00  0.00     0.189 HD
HETATM    9  C   UNL     1       5.160  27.944  52.234  1.00  0.00     0.089 A 
HETATM   10  C   UNL     1       5.062  27.100  53.374  1.00  0.00     0.071 A 
BRANCH   9  11
HETATM   11  C   UNL     1       4.198  28.067  51.136  1.00  0.00    -0.005 A 
HETATM   12  C   UNL     1       4.364  27.337  49.951  1.00  0.00     0.016 A 
HETATM   13  C   UNL     1       3.430  27.435  48.916  1.00  0.00     0.037 A 
HETATM   14  C   UNL     1       2.311  28.258  49.045  1.00  0.00     0.068 A 
HETATM   15  C   UNL     1       2.146  29.006  50.210  1.00  0.00     0.037 A 
HETATM   16  C   UNL     1       3.085  28.911  51.246  1.00  0.00     0.016 A 
BRANCH  14  17
HETATM   17  O   UNL     1       1.471  28.247  47.967  1.00  0.00    -0.356 OA
HETATM   18  C   UNL     1       1.649  27.192  47.031  1.00  0.00     0.210 C 
ENDBRANCH  14  17
ENDBRANCH   9  11
ENDBRANCH   1   5
BRANCH   2  19
HETATM   19  N   UNL     1       7.964  24.846  56.159  1.00  0.00    -0.165 NA
HETATM   20  C   UNL     1       8.144  23.573  55.983  1.00  0.00     0.157 A 
HETATM   21  C   UNL     1       8.499  22.638  57.159  1.00  0.00     0.277 A 
HETATM   22  C   UNL     1       8.056  22.703  54.799  1.00  0.00     0.027 A 
HETATM   23  O   UNL     1       8.717  22.963  58.304  1.00  0.00    -0.266 OA
HETATM   24  N   UNL     1       8.487  21.367  56.629  1.00  0.00    -0.321 N 
HETATM   25  C   UNL     1       8.239  21.397  55.263  1.00  0.00     0.048 A 
HETATM   26  H   UNL     1       8.687  20.547  57.182  1.00  0.00     0.169 HD
HETATM   27  C   UNL     1       8.207  20.309  54.413  1.00  0.00     0.030 A 
HETATM   28  C   UNL     1       8.003  20.555  53.054  1.00  0.00     0.002 A 
HETATM   29  C   UNL     1       7.861  21.869  52.573  1.00  0.00     0.001 A 
HETATM   30  C   UNL     1       7.899  22.961  53.448  1.00  0.00     0.016 A 
ENDBRANCH   2  19
TORSDOF 4
ENDMDL
MODEL 9
REMARK VINA RESULT:      -8.2      5.350      8.982
REMARK  4 active torsions:
REMARK  status: ('A' for Active; 'I' for Inactive)
REMARK    1  A    between atoms: O_2  and  C_3 
REMARK    2  A    between atoms: C_6  and  C_7 
REMARK    3  A    between atoms: C_11  and  C_12 
REMARK       I    between atoms: C_12  and  N_13 
REMARK    4  A    between atoms: N_13  and  N_14 
ROOT
HETATM    1  C   UNL     1       5.443  28.873  55.061  1.00  0.00     0.289 C 
HETATM    2  N   UNL     1       6.627  28.478  54.459  1.00  0.00    -0.241 N 
HETATM    3  O   UNL     1       4.344  28.368  54.857  1.00  0.00    -0.264 OA
HETATM    4  H   UNL     1       7.432  29.082  54.539  1.00  0.00     0.192 HD
ENDROOT
BRANCH   1   5
HETATM    5  C   UNL     1       5.614  29.952  56.006  1.00  0.00     0.121 A 
HETATM    6  N   UNL     1       5.286  31.243  55.703  1.00  0.00    -0.272 N 
HETATM    7  N   UNL     1       5.491  32.112  56.708  1.00  0.00    -0.174 NA
HETATM    8  H   UNL     1       4.912  31.585  54.822  1.00  0.00     0.189 HD
HETATM    9  C   UNL     1       5.946  31.360  57.721  1.00  0.00     0.089 A 
HETATM   10  C   UNL     1       6.059  30.003  57.312  1.00  0.00     0.071 A 
BRANCH   9  11
HETATM   11  C   UNL     1       6.269  31.919  59.036  1.00  0.00    -0.005 A 
HETATM   12  C   UNL     1       5.328  32.679  59.743  1.00  0.00     0.016 A 
HETATM   13  C   UNL     1       5.630  33.188  61.010  1.00  0.00     0.037 A 
HETATM   14  C   UNL     1       6.872  32.945  61.596  1.00  0.00     0.068 A 
HETATM   15  C   UNL     1       7.825  32.209  60.892  1.00  0.00     0.037 A 
HETATM   16  C   UNL     1       7.524  31.702  59.621  1.00  0.00     0.016 A 
BRANCH  14  17
HETATM   17  O   UNL     1       7.028  33.486  62.841  1.00  0.00    -0.356 OA
HETATM   18  C   UNL     1       7.938  32.828  63.713  1.00  0.00     0.210 C 
ENDBRANCH  14  17
ENDBRANCH   9  11
ENDBRANCH   1   5
BRANCH   2  19
HETATM   19  N   UNL     1       6.655  27.521  53.493  1.00  0.00    -0.165 NA
HETATM   20  C   UNL     1       7.114  26.349  53.808  1.00  0.00     0.157 A 
HETATM   21  C   UNL     1       7.390  25.274  52.735  1.00  0.00     0.277 A 
HETATM   22  C   UNL     1       7.506  25.737  55.088  1.00  0.00     0.027 A 
HETATM   23  O   UNL     1       7.153  25.354  51.551  1.00  0.00    -0.266 OA
HETATM   24  N   UNL     1       7.979  24.228  53.410  1.00  0.00    -0.321 N 
HETATM   25  C   UNL     1       8.043  24.486  54.773  1.00  0.00     0.048 A 
HETATM   26  H   UNL     1       8.269  23.379  52.948  1.00  0.00     0.169 HD
HETATM   27  C   UNL     1       8.528  23.633  55.745  1.00  0.00     0.030 A 
HETATM   28  C   UNL     1       8.447  24.053  57.074  1.00  0.00     0.002 A 
HETATM   29  C   UNL     1       7.870  25.293  57.403  1.00  0.00     0.001 A 
HETATM   30  C   UNL     1       7.380  26.143  56.406  1.00  0.00     0.016 A 
ENDBRANCH   2  19
TORSDOF 4
ENDMDL
MODEL 10
REMARK VINA RESULT:      -8.2      4.829      6.998
REMARK  4 active torsions:
REMARK  status: ('A' for Active; 'I' for Inactive)
REMARK    1  A    between atoms: O_2  and  C_3 
REMARK    2  A    between atoms: C_6  and  C_7 
REMARK    3  A    between atoms: C_11  and  C_12 
REMARK       I    between atoms: C_12  and  N_13 
REMARK    4  A    between atoms: N_13  and  N_14 
ROOT
HETATM    1  C   UNL     1       5.549  26.203  57.156  1.00  0.00     0.289 C 
HETATM    2  N   UNL     1       6.925  26.036  57.119  1.00  0.00    -0.241 N 
HETATM    3  O   UNL     1       4.737  25.316  57.396  1.00  0.00    -0.264 OA
HETATM    4  H   UNL     1       7.488  26.770  56.716  1.00  0.00     0.192 HD
ENDROOT
BRANCH   1   5
HETATM    5  C   UNL     1       5.132  27.562  56.905  1.00  0.00     0.121 A 
HETATM    6  N   UNL     1       4.067  27.859  56.101  1.00  0.00    -0.272 N 
HETATM    7  N   UNL     1       3.808  29.174  55.996  1.00  0.00    -0.174 NA
HETATM    8  H   UNL     1       3.478  27.198  55.601  1.00  0.00     0.189 HD
HETATM    9  C   UNL     1       4.720  29.764  56.783  1.00  0.00     0.089 A 
HETATM   10  C   UNL     1       5.583  28.787  57.351  1.00  0.00     0.071 A 
BRANCH   9  11
HETATM   11  C   UNL     1       4.771  31.215  56.981  1.00  0.00    -0.005 A 
HETATM   12  C   UNL     1       4.620  32.092  55.899  1.00  0.00     0.016 A 
HETATM   13  C   UNL     1       4.641  33.476  56.094  1.00  0.00     0.037 A 
HETATM   14  C   UNL     1       4.810  34.011  57.371  1.00  0.00     0.068 A 
HETATM   15  C   UNL     1       4.983  33.148  58.453  1.00  0.00     0.037 A 
HETATM   16  C   UNL     1       4.966  31.760  58.257  1.00  0.00     0.016 A 
BRANCH  14  17
HETATM   17  O   UNL     1       4.794  35.376  57.422  1.00  0.00    -0.356 OA
HETATM   18  C   UNL     1       5.060  36.063  56.206  1.00  0.00     0.210 C 
ENDBRANCH  14  17
ENDBRANCH   9  11
ENDBRANCH   1   5
BRANCH   2  19
HETATM   19  N   UNL     1       7.502  24.812  57.267  1.00  0.00    -0.165 NA
HETATM   20  C   UNL     1       7.773  24.132  56.195  1.00  0.00     0.157 A 
HETATM   21  C   UNL     1       8.219  22.656  56.267  1.00  0.00     0.277 A 
HETATM   22  C   UNL     1       7.727  24.461  54.761  1.00  0.00     0.027 A 
HETATM   23  O   UNL     1       8.435  22.012  57.268  1.00  0.00    -0.266 OA
HETATM   24  N   UNL     1       8.292  22.234  54.957  1.00  0.00    -0.321 N 
HETATM   25  C   UNL     1       8.016  23.275  54.081  1.00  0.00     0.048 A 
HETATM   26  H   UNL     1       8.563  21.296  54.705  1.00  0.00     0.169 HD
HETATM   27  C   UNL     1       8.048  23.213  52.701  1.00  0.00     0.030 A 
HETATM   28  C   UNL     1       7.800  24.391  51.994  1.00  0.00     0.002 A 
HETATM   29  C   UNL     1       7.551  25.598  52.672  1.00  0.00     0.001 A 
HETATM   30  C   UNL     1       7.525  25.644  54.070  1.00  0.00     0.016 A 
ENDBRANCH   2  19
TORSDOF 4
ENDMDL
