MODEL 1
REMARK VINA RESULT:      -8.2      0.000      0.000
REMARK  7 active torsions:
REMARK  status: ('A' for Active; 'I' for Inactive)
REMARK    1  A    between atoms: O_2  and  C_3 
REMARK    2  A    between atoms: C_4  and  O_5 
REMARK    3  A    between atoms: C_9  and  C_10 
REMARK    4  A    between atoms: C_10  and  N_11 
REMARK    5  A    between atoms: C_14  and  C_15 
REMARK    6  A    between atoms: C_15  and  N_16 
REMARK    7  A    between atoms: N_16  and  C_17 
ROOT
HETATM    1  N   UNL     1       6.885  27.483  57.412  1.00  0.00    -0.067 N 
HETATM    2  H   UNL     1       6.547  27.951  58.269  1.00  0.00     0.280 HD
HETATM    3  C   UNL     1       7.454  26.147  57.844  1.00  0.00     0.241 C 
HETATM    4  C   UNL     1       6.815  25.114  56.917  1.00  0.00     0.031 C 
HETATM    5  C   UNL     1       5.434  25.717  56.674  1.00  0.00     0.035 C 
HETATM    6  C   UNL     1       5.672  27.213  56.545  1.00  0.00     0.235 C 
ENDROOT
BRANCH   1   7
HETATM    7  C   UNL     1       7.849  28.473  56.795  1.00  0.00     0.274 C 
BRANCH   7   8
HETATM    8  C   UNL     1       8.168  29.656  57.671  1.00  0.00    -0.012 A 
HETATM    9  C   UNL     1       9.460  30.204  57.754  1.00  0.00     0.021 A 
HETATM   10  C   UNL     1       9.713  31.302  58.575  1.00  0.00     0.059 A 
HETATM   11 BR   UNL     1      10.911  29.502  56.751  1.00  0.00    -0.050 Br
HETATM   12  C   UNL     1       8.671  31.863  59.302  1.00  0.00     0.100 A 
HETATM   13  C   UNL     1       7.372  31.357  59.231  1.00  0.00     0.101 A 
HETATM   14  C   UNL     1       7.128  30.243  58.429  1.00  0.00     0.049 A 
BRANCH  12  15
HETATM   15  O   UNL     1       8.954  32.943  60.090  1.00  0.00    -0.358 OA
HETATM   16  H   UNL     1       8.155  33.120  60.622  1.00  0.00     0.218 HD
ENDBRANCH  12  15
BRANCH  13  17
HETATM   17  O   UNL     1       6.447  32.024  59.987  1.00  0.00    -0.353 OA
HETATM   18  C   UNL     1       5.457  32.779  59.300  1.00  0.00     0.210 C 
ENDBRANCH  13  17
ENDBRANCH   7   8
ENDBRANCH   1   7
BRANCH   4  19
HETATM   19  C   UNL     1       7.653  24.909  55.641  1.00  0.00     0.127 C 
BRANCH  19  20
HETATM   20  N   UNL     1       6.961  24.040  54.685  1.00  0.00    -0.376 N 
HETATM   21  H   UNL     1       5.949  24.133  54.685  1.00  0.00     0.161 HD
BRANCH  20  22
HETATM   22  C   UNL     1       7.457  22.764  54.439  1.00  0.00     0.100 A 
HETATM   23  N   UNL     1       7.628  21.928  55.479  1.00  0.00    -0.353 N 
HETATM   24  H   UNL     1       7.385  22.257  56.409  1.00  0.00     0.166 HD
HETATM   25  C   UNL     1       8.092  20.672  55.361  1.00  0.00     0.089 A 
HETATM   26  C   UNL     1       8.410  20.162  54.113  1.00  0.00     0.017 A 
HETATM   27  C   UNL     1       8.227  20.966  52.999  1.00  0.00     0.005 A 
HETATM   28  C   UNL     1       7.744  22.264  53.159  1.00  0.00     0.048 A 
ENDBRANCH  20  22
ENDBRANCH  19  20
ENDBRANCH   4  19
TORSDOF 7
ENDMDL
MODEL 2
REMARK VINA RESULT:      -8.2      5.976      8.469
REMARK  7 active torsions:
REMARK  status: ('A' for Active; 'I' for Inactive)
REMARK    1  A    between atoms: O_2  and  C_3 
REMARK    2  A    between atoms: C_4  and  O_5 
REMARK    3  A    between atoms: C_9  and  C_10 
REMARK    4  A    between atoms: C_10  and  N_11 
REMARK    5  A    between atoms: C_14  and  C_15 
REMARK    6  A    between atoms: C_15  and  N_16 
REMARK    7  A    between atoms: N_16  and  C_17 
ROOT
HETATM    1  N   UNL     1       6.025  25.729  54.150  1.00  0.00    -0.067 N 
HETATM    2  H   UNL     1       5.701  25.508  55.106  1.00  0.00     0.280 HD
HETATM    3  C   UNL     1       5.151  24.937  53.201  1.00  0.00     0.241 C 
HETATM    4  C   UNL     1       4.667  25.943  52.158  1.00  0.00     0.031 C 
HETATM    5  C   UNL     1       4.553  27.223  52.981  1.00  0.00     0.035 C 
HETATM    6  C   UNL     1       5.751  27.201  53.917  1.00  0.00     0.235 C 
ENDROOT
BRANCH   1   7
HETATM    7  C   UNL     1       7.501  25.394  54.166  1.00  0.00     0.274 C 
BRANCH   7   8
HETATM    8  C   UNL     1       7.842  24.130  54.910  1.00  0.00    -0.012 A 
HETATM    9  C   UNL     1       8.099  24.115  56.292  1.00  0.00     0.021 A 
HETATM   10  C   UNL     1       8.408  22.923  56.944  1.00  0.00     0.059 A 
HETATM   11 BR   UNL     1       8.020  25.697  57.340  1.00  0.00    -0.050 Br
HETATM   12  C   UNL     1       8.446  21.740  56.217  1.00  0.00     0.100 A 
HETATM   13  C   UNL     1       8.179  21.711  54.847  1.00  0.00     0.101 A 
HETATM   14  C   UNL     1       7.896  22.910  54.194  1.00  0.00     0.049 A 
BRANCH  12  15
HETATM   15  O   UNL     1       8.744  20.589  56.891  1.00  0.00    -0.358 OA
HETATM   16  H   UNL     1       8.925  19.906  56.215  1.00  0.00     0.218 HD
ENDBRANCH  12  15
BRANCH  13  17
HETATM   17  O   UNL     1       8.235  20.473  54.269  1.00  0.00    -0.353 OA
HETATM   18  C   UNL     1       8.268  20.411  52.848  1.00  0.00     0.210 C 
ENDBRANCH  13  17
ENDBRANCH   7   8
ENDBRANCH   1   7
BRANCH   4  19
HETATM   19  C   UNL     1       5.644  26.035  50.970  1.00  0.00     0.127 C 
BRANCH  19  20
HETATM   20  N   UNL     1       5.250  27.098  50.041  1.00  0.00    -0.376 N 
HETATM   21  H   UNL     1       5.388  28.041  50.394  1.00  0.00     0.161 HD
BRANCH  20  22
HETATM   22  C   UNL     1       4.147  26.909  49.215  1.00  0.00     0.100 A 
HETATM   23  N   UNL     1       3.077  27.710  49.378  1.00  0.00    -0.353 N 
HETATM   24  H   UNL     1       3.115  28.427  50.097  1.00  0.00     0.166 HD
HETATM   25  C   UNL     1       1.961  27.626  48.636  1.00  0.00     0.089 A 
HETATM   26  C   UNL     1       1.867  26.687  47.622  1.00  0.00     0.017 A 
HETATM   27  C   UNL     1       2.948  25.852  47.387  1.00  0.00     0.005 A 
HETATM   28  C   UNL     1       4.091  25.967  48.177  1.00  0.00     0.048 A 
ENDBRANCH  20  22
ENDBRANCH  19  20
ENDBRANCH   4  19
TORSDOF 7
ENDMDL
MODEL 3
REMARK VINA RESULT:      -8.1      2.651      3.496
REMARK  7 active torsions:
REMARK  status: ('A' for Active; 'I' for Inactive)
REMARK    1  A    between atoms: O_2  and  C_3 
REMARK    2  A    between atoms: C_4  and  O_5 
REMARK    3  A    between atoms: C_9  and  C_10 
REMARK    4  A    between atoms: C_10  and  N_11 
REMARK    5  A    between atoms: C_14  and  C_15 
REMARK    6  A    between atoms: C_15  and  N_16 
REMARK    7  A    between atoms: N_16  and  C_17 
ROOT
HETATM    1  N   UNL     1       5.007  27.062  54.294  1.00  0.00    -0.067 N 
HETATM    2  H   UNL     1       4.062  27.301  54.634  1.00  0.00     0.280 HD
HETATM    3  C   UNL     1       5.554  26.008  55.235  1.00  0.00     0.241 C 
HETATM    4  C   UNL     1       6.069  24.886  54.335  1.00  0.00     0.031 C 
HETATM    5  C   UNL     1       5.090  24.944  53.165  1.00  0.00     0.035 C 
HETATM    6  C   UNL     1       4.840  26.425  52.929  1.00  0.00     0.235 C 
ENDROOT
BRANCH   1   7
HETATM    7  C   UNL     1       5.739  28.386  54.246  1.00  0.00     0.274 C 
BRANCH   7   8
HETATM    8  C   UNL     1       6.420  28.765  55.535  1.00  0.00    -0.012 A 
HETATM    9  C   UNL     1       5.724  29.335  56.616  1.00  0.00     0.021 A 
HETATM   10  C   UNL     1       6.391  29.668  57.793  1.00  0.00     0.059 A 
HETATM   11 BR   UNL     1       3.854  29.662  56.540  1.00  0.00    -0.050 Br
HETATM   12  C   UNL     1       7.753  29.417  57.898  1.00  0.00     0.100 A 
HETATM   13  C   UNL     1       8.475  28.835  56.854  1.00  0.00     0.101 A 
HETATM   14  C   UNL     1       7.808  28.528  55.668  1.00  0.00     0.049 A 
BRANCH  12  15
HETATM   15  O   UNL     1       8.372  29.748  59.070  1.00  0.00    -0.358 OA
HETATM   16  H   UNL     1       7.743  29.543  59.789  1.00  0.00     0.218 HD
ENDBRANCH  12  15
BRANCH  13  17
HETATM   17  O   UNL     1       9.803  28.631  57.108  1.00  0.00    -0.353 OA
HETATM   18  C   UNL     1      10.724  29.595  56.612  1.00  0.00     0.210 C 
ENDBRANCH  13  17
ENDBRANCH   7   8
ENDBRANCH   1   7
BRANCH   4  19
HETATM   19  C   UNL     1       7.542  25.111  53.943  1.00  0.00     0.127 C 
BRANCH  19  20
HETATM   20  N   UNL     1       8.016  24.061  53.038  1.00  0.00    -0.376 N 
HETATM   21  H   UNL     1       7.628  24.104  52.100  1.00  0.00     0.161 HD
BRANCH  20  22
HETATM   22  C   UNL     1       8.263  22.787  53.540  1.00  0.00     0.100 A 
HETATM   23  N   UNL     1       8.885  22.673  54.728  1.00  0.00    -0.353 N 
HETATM   24  H   UNL     1       9.148  23.522  55.219  1.00  0.00     0.166 HD
HETATM   25  C   UNL     1       9.168  21.497  55.314  1.00  0.00     0.089 A 
HETATM   26  C   UNL     1       8.804  20.309  54.702  1.00  0.00     0.017 A 
HETATM   27  C   UNL     1       8.135  20.362  53.489  1.00  0.00     0.005 A 
HETATM   28  C   UNL     1       7.858  21.600  52.910  1.00  0.00     0.048 A 
ENDBRANCH  20  22
ENDBRANCH  19  20
ENDBRANCH   4  19
TORSDOF 7
ENDMDL
MODEL 4
REMARK VINA RESULT:      -8.0      4.395      8.722
REMARK  7 active torsions:
REMARK  status: ('A' for Active; 'I' for Inactive)
REMARK    1  A    between atoms: O_2  and  C_3 
REMARK    2  A    between atoms: C_4  and  O_5 
REMARK    3  A    between atoms: C_9  and  C_10 
REMARK    4  A    between atoms: C_10  and  N_11 
REMARK    5  A    between atoms: C_14  and  C_15 
REMARK    6  A    between atoms: C_15  and  N_16 
REMARK    7  A    between atoms: N_16  and  C_17 
ROOT
HETATM    1  N   UNL     1       6.000  25.507  55.416  1.00  0.00    -0.067 N 
HETATM    2  H   UNL     1       5.490  24.964  54.700  1.00  0.00     0.280 HD
HETATM    3  C   UNL     1       5.652  26.963  55.186  1.00  0.00     0.241 C 
HETATM    4  C   UNL     1       5.238  27.503  56.554  1.00  0.00     0.031 C 
HETATM    5  C   UNL     1       4.581  26.281  57.192  1.00  0.00     0.035 C 
HETATM    6  C   UNL     1       5.439  25.101  56.763  1.00  0.00     0.235 C 
ENDROOT
BRANCH   1   7
HETATM    7  C   UNL     1       7.449  25.110  55.231  1.00  0.00     0.274 C 
BRANCH   7   8
HETATM    8  C   UNL     1       7.645  23.759  54.593  1.00  0.00    -0.012 A 
HETATM    9  C   UNL     1       7.706  23.587  53.199  1.00  0.00     0.021 A 
HETATM   10  C   UNL     1       7.891  22.320  52.648  1.00  0.00     0.059 A 
HETATM   11 BR   UNL     1       7.561  25.055  52.003  1.00  0.00    -0.050 Br
HETATM   12  C   UNL     1       8.032  21.225  53.491  1.00  0.00     0.100 A 
HETATM   13  C   UNL     1       7.995  21.359  54.881  1.00  0.00     0.101 A 
HETATM   14  C   UNL     1       7.783  22.624  55.426  1.00  0.00     0.049 A 
BRANCH  12  15
HETATM   15  O   UNL     1       8.221  20.000  52.917  1.00  0.00    -0.358 OA
HETATM   16  H   UNL     1       9.182  19.903  52.770  1.00  0.00     0.218 HD
ENDBRANCH  12  15
BRANCH  13  17
HETATM   17  O   UNL     1       8.166  20.197  55.582  1.00  0.00    -0.353 OA
HETATM   18  C   UNL     1       9.352  20.065  56.356  1.00  0.00     0.210 C 
ENDBRANCH  13  17
ENDBRANCH   7   8
ENDBRANCH   1   7
BRANCH   4  19
HETATM   19  C   UNL     1       6.449  28.053  57.331  1.00  0.00     0.127 C 
BRANCH  19  20
HETATM   20  N   UNL     1       6.995  29.249  56.686  1.00  0.00    -0.376 N 
HETATM   21  H   UNL     1       6.704  29.380  55.721  1.00  0.00     0.161 HD
BRANCH  20  22
HETATM   22  C   UNL     1       8.287  29.664  56.997  1.00  0.00     0.100 A 
HETATM   23  N   UNL     1       9.275  29.401  56.121  1.00  0.00    -0.353 N 
HETATM   24  H   UNL     1       9.042  28.912  55.262  1.00  0.00     0.166 HD
HETATM   25  C   UNL     1      10.556  29.759  56.311  1.00  0.00     0.089 A 
HETATM   26  C   UNL     1      10.923  30.454  57.451  1.00  0.00     0.017 A 
HETATM   27  C   UNL     1       9.945  30.780  58.377  1.00  0.00     0.005 A 
HETATM   28  C   UNL     1       8.625  30.391  58.148  1.00  0.00     0.048 A 
ENDBRANCH  20  22
ENDBRANCH  19  20
ENDBRANCH   4  19
TORSDOF 7
ENDMDL
MODEL 5
REMARK VINA RESULT:      -7.9      4.602      8.279
REMARK  7 active torsions:
REMARK  status: ('A' for Active; 'I' for Inactive)
REMARK    1  A    between atoms: O_2  and  C_3 
REMARK    2  A    between atoms: C_4  and  O_5 
REMARK    3  A    between atoms: C_9  and  C_10 
REMARK    4  A    between atoms: C_10  and  N_11 
REMARK    5  A    between atoms: C_14  and  C_15 
REMARK    6  A    between atoms: C_15  and  N_16 
REMARK    7  A    between atoms: N_16  and  C_17 
ROOT
HETATM    1  N   UNL     1       6.348  24.909  52.919  1.00  0.00    -0.067 N 
HETATM    2  H   UNL     1       6.825  24.028  52.668  1.00  0.00     0.280 HD
HETATM    3  C   UNL     1       7.029  26.011  52.134  1.00  0.00     0.241 C 
HETATM    4  C   UNL     1       5.900  26.794  51.467  1.00  0.00     0.031 C 
HETATM    5  C   UNL     1       4.871  25.699  51.197  1.00  0.00     0.035 C 
HETATM    6  C   UNL     1       4.921  24.798  52.422  1.00  0.00     0.235 C 
ENDROOT
BRANCH   1   7
HETATM    7  C   UNL     1       6.448  24.978  54.428  1.00  0.00     0.274 C 
BRANCH   7   8
HETATM    8  C   UNL     1       7.181  23.820  55.053  1.00  0.00    -0.012 A 
HETATM    9  C   UNL     1       7.726  23.884  56.348  1.00  0.00     0.021 A 
HETATM   10  C   UNL     1       8.394  22.789  56.891  1.00  0.00     0.059 A 
HETATM   11 BR   UNL     1       7.566  25.441  57.423  1.00  0.00    -0.050 Br
HETATM   12  C   UNL     1       8.506  21.621  56.147  1.00  0.00     0.100 A 
HETATM   13  C   UNL     1       7.963  21.513  54.865  1.00  0.00     0.101 A 
HETATM   14  C   UNL     1       7.317  22.620  54.315  1.00  0.00     0.049 A 
BRANCH  12  15
HETATM   15  O   UNL     1       9.160  20.565  56.715  1.00  0.00    -0.358 OA
HETATM   16  H   UNL     1      10.094  20.835  56.817  1.00  0.00     0.218 HD
ENDBRANCH  12  15
BRANCH  13  17
HETATM   17  O   UNL     1       8.134  20.298  54.262  1.00  0.00    -0.353 OA
HETATM   18  C   UNL     1       8.505  20.293  52.888  1.00  0.00     0.210 C 
ENDBRANCH  13  17
ENDBRANCH   7   8
ENDBRANCH   1   7
BRANCH   4  19
HETATM   19  C   UNL     1       5.394  27.933  52.372  1.00  0.00     0.127 C 
BRANCH  19  20
HETATM   20  N   UNL     1       6.473  28.466  53.208  1.00  0.00    -0.376 N 
HETATM   21  H   UNL     1       7.407  28.180  52.927  1.00  0.00     0.161 HD
BRANCH  20  22
HETATM   22  C   UNL     1       6.266  28.617  54.576  1.00  0.00     0.100 A 
HETATM   23  N   UNL     1       7.239  29.181  55.315  1.00  0.00    -0.353 N 
HETATM   24  H   UNL     1       8.090  29.480  54.848  1.00  0.00     0.166 HD
HETATM   25  C   UNL     1       7.148  29.384  56.640  1.00  0.00     0.089 A 
HETATM   26  C   UNL     1       5.998  29.023  57.323  1.00  0.00     0.017 A 
HETATM   27  C   UNL     1       4.949  28.464  56.610  1.00  0.00     0.005 A 
HETATM   28  C   UNL     1       5.078  28.267  55.236  1.00  0.00     0.048 A 
ENDBRANCH  20  22
ENDBRANCH  19  20
ENDBRANCH   4  19
TORSDOF 7
ENDMDL
MODEL 6
REMARK VINA RESULT:      -7.6      3.141      4.020
REMARK  7 active torsions:
REMARK  status: ('A' for Active; 'I' for Inactive)
REMARK    1  A    between atoms: O_2  and  C_3 
REMARK    2  A    between atoms: C_4  and  O_5 
REMARK    3  A    between atoms: C_9  and  C_10 
REMARK    4  A    between atoms: C_10  and  N_11 
REMARK    5  A    between atoms: C_14  and  C_15 
REMARK    6  A    between atoms: C_15  and  N_16 
REMARK    7  A    between atoms: N_16  and  C_17 
ROOT
HETATM    1  N   UNL     1       5.111  27.345  52.832  1.00  0.00    -0.067 N 
HETATM    2  H   UNL     1       4.191  27.802  52.941  1.00  0.00     0.280 HD
HETATM    3  C   UNL     1       4.944  25.916  53.304  1.00  0.00     0.241 C 
HETATM    4  C   UNL     1       5.537  25.049  52.194  1.00  0.00     0.031 C 
HETATM    5  C   UNL     1       5.205  25.863  50.945  1.00  0.00     0.035 C 
HETATM    6  C   UNL     1       5.419  27.313  51.349  1.00  0.00     0.235 C 
ENDROOT
BRANCH   1   7
HETATM    7  C   UNL     1       6.063  28.221  53.618  1.00  0.00     0.274 C 
BRANCH   7   8
HETATM    8  C   UNL     1       5.514  28.709  54.933  1.00  0.00    -0.012 A 
HETATM    9  C   UNL     1       6.073  28.335  56.168  1.00  0.00     0.021 A 
HETATM   10  C   UNL     1       5.537  28.811  57.363  1.00  0.00     0.059 A 
HETATM   11 BR   UNL     1       7.585  27.191  56.276  1.00  0.00    -0.050 Br
HETATM   12  C   UNL     1       4.449  29.675  57.324  1.00  0.00     0.100 A 
HETATM   13  C   UNL     1       3.878  30.083  56.118  1.00  0.00     0.101 A 
HETATM   14  C   UNL     1       4.402  29.583  54.926  1.00  0.00     0.049 A 
BRANCH  12  15
HETATM   15  O   UNL     1       3.955  30.128  58.515  1.00  0.00    -0.358 OA
HETATM   16  H   UNL     1       4.308  31.031  58.641  1.00  0.00     0.218 HD
ENDBRANCH  12  15
BRANCH  13  17
HETATM   17  O   UNL     1       2.826  30.949  56.235  1.00  0.00    -0.353 OA
HETATM   18  C   UNL     1       3.068  32.320  55.945  1.00  0.00     0.210 C 
ENDBRANCH  13  17
ENDBRANCH   7   8
ENDBRANCH   1   7
BRANCH   4  19
HETATM   19  C   UNL     1       7.042  24.806  52.413  1.00  0.00     0.127 C 
BRANCH  19  20
HETATM   20  N   UNL     1       7.313  24.353  53.780  1.00  0.00    -0.376 N 
HETATM   21  H   UNL     1       7.817  25.023  54.355  1.00  0.00     0.161 HD
BRANCH  20  22
HETATM   22  C   UNL     1       7.599  23.011  54.011  1.00  0.00     0.100 A 
HETATM   23  N   UNL     1       7.542  22.550  55.275  1.00  0.00    -0.353 N 
HETATM   24  H   UNL     1       7.288  23.198  56.015  1.00  0.00     0.166 HD
HETATM   25  C   UNL     1       7.789  21.274  55.616  1.00  0.00     0.089 A 
HETATM   26  C   UNL     1       8.109  20.342  54.642  1.00  0.00     0.017 A 
HETATM   27  C   UNL     1       8.155  20.751  53.319  1.00  0.00     0.005 A 
HETATM   28  C   UNL     1       7.893  22.083  53.001  1.00  0.00     0.048 A 
ENDBRANCH  20  22
ENDBRANCH  19  20
ENDBRANCH   4  19
TORSDOF 7
ENDMDL
MODEL 7
REMARK VINA RESULT:      -7.6      4.226      9.052
REMARK  7 active torsions:
REMARK  status: ('A' for Active; 'I' for Inactive)
REMARK    1  A    between atoms: O_2  and  C_3 
REMARK    2  A    between atoms: C_4  and  O_5 
REMARK    3  A    between atoms: C_9  and  C_10 
REMARK    4  A    between atoms: C_10  and  N_11 
REMARK    5  A    between atoms: C_14  and  C_15 
REMARK    6  A    between atoms: C_15  and  N_16 
REMARK    7  A    between atoms: N_16  and  C_17 
ROOT
HETATM    1  N   UNL     1       8.081  27.044  55.738  1.00  0.00    -0.067 N 
HETATM    2  H   UNL     1       8.800  26.572  55.167  1.00  0.00     0.280 HD
HETATM    3  C   UNL     1       8.721  27.346  57.078  1.00  0.00     0.241 C 
HETATM    4  C   UNL     1       8.425  28.821  57.346  1.00  0.00     0.031 C 
HETATM    5  C   UNL     1       8.444  29.410  55.937  1.00  0.00     0.035 C 
HETATM    6  C   UNL     1       7.771  28.364  55.062  1.00  0.00     0.235 C 
ENDROOT
BRANCH   1   7
HETATM    7  C   UNL     1       6.909  26.086  55.738  1.00  0.00     0.274 C 
BRANCH   7   8
HETATM    8  C   UNL     1       7.170  24.788  55.021  1.00  0.00    -0.012 A 
HETATM    9  C   UNL     1       6.776  24.570  53.688  1.00  0.00     0.021 A 
HETATM   10  C   UNL     1       7.040  23.355  53.060  1.00  0.00     0.059 A 
HETATM   11 BR   UNL     1       5.890  25.912  52.677  1.00  0.00    -0.050 Br
HETATM   12  C   UNL     1       7.712  22.360  53.757  1.00  0.00     0.100 A 
HETATM   13  C   UNL     1       8.136  22.544  55.074  1.00  0.00     0.101 A 
HETATM   14  C   UNL     1       7.847  23.752  55.708  1.00  0.00     0.049 A 
BRANCH  12  15
HETATM   15  O   UNL     1       7.961  21.185  53.106  1.00  0.00    -0.358 OA
HETATM   16  H   UNL     1       7.317  21.127  52.373  1.00  0.00     0.218 HD
ENDBRANCH  12  15
BRANCH  13  17
HETATM   17  O   UNL     1       8.802  21.484  55.625  1.00  0.00    -0.353 OA
HETATM   18  C   UNL     1       8.404  21.061  56.924  1.00  0.00     0.210 C 
ENDBRANCH  13  17
ENDBRANCH   7   8
ENDBRANCH   1   7
BRANCH   4  19
HETATM   19  C   UNL     1       7.089  29.001  58.093  1.00  0.00     0.127 C 
BRANCH  19  20
HETATM   20  N   UNL     1       6.923  30.380  58.558  1.00  0.00    -0.376 N 
HETATM   21  H   UNL     1       6.612  31.032  57.843  1.00  0.00     0.161 HD
BRANCH  20  22
HETATM   22  C   UNL     1       7.797  30.889  59.513  1.00  0.00     0.100 A 
HETATM   23  N   UNL     1       8.203  30.081  60.510  1.00  0.00    -0.353 N 
HETATM   24  H   UNL     1       7.860  29.125  60.527  1.00  0.00     0.166 HD
HETATM   25  C   UNL     1       9.050  30.460  61.481  1.00  0.00     0.089 A 
HETATM   26  C   UNL     1       9.572  31.743  61.488  1.00  0.00     0.017 A 
HETATM   27  C   UNL     1       9.214  32.613  60.471  1.00  0.00     0.005 A 
HETATM   28  C   UNL     1       8.332  32.186  59.479  1.00  0.00     0.048 A 
ENDBRANCH  20  22
ENDBRANCH  19  20
ENDBRANCH   4  19
TORSDOF 7
ENDMDL
MODEL 8
REMARK VINA RESULT:      -7.6      4.451      8.850
REMARK  7 active torsions:
REMARK  status: ('A' for Active; 'I' for Inactive)
REMARK    1  A    between atoms: O_2  and  C_3 
REMARK    2  A    between atoms: C_4  and  O_5 
REMARK    3  A    between atoms: C_9  and  C_10 
REMARK    4  A    between atoms: C_10  and  N_11 
REMARK    5  A    between atoms: C_14  and  C_15 
REMARK    6  A    between atoms: C_15  and  N_16 
REMARK    7  A    between atoms: N_16  and  C_17 
ROOT
HETATM    1  N   UNL     1       8.024  27.881  55.949  1.00  0.00    -0.067 N 
HETATM    2  H   UNL     1       8.328  26.983  55.538  1.00  0.00     0.280 HD
HETATM    3  C   UNL     1       8.629  27.950  57.336  1.00  0.00     0.241 C 
HETATM    4  C   UNL     1       9.299  29.321  57.420  1.00  0.00     0.031 C 
HETATM    5  C   UNL     1       9.767  29.534  55.982  1.00  0.00     0.035 C 
HETATM    6  C   UNL     1       8.645  28.983  55.115  1.00  0.00     0.235 C 
ENDROOT
BRANCH   1   7
HETATM    7  C   UNL     1       6.513  27.847  55.859  1.00  0.00     0.274 C 
BRANCH   7   8
HETATM    8  C   UNL     1       5.980  27.040  54.705  1.00  0.00    -0.012 A 
HETATM    9  C   UNL     1       5.931  25.635  54.726  1.00  0.00     0.021 A 
HETATM   10  C   UNL     1       5.427  24.926  53.637  1.00  0.00     0.059 A 
HETATM   11 BR   UNL     1       6.524  24.637  56.229  1.00  0.00    -0.050 Br
HETATM   12  C   UNL     1       4.956  25.622  52.531  1.00  0.00     0.100 A 
HETATM   13  C   UNL     1       4.971  27.017  52.480  1.00  0.00     0.101 A 
HETATM   14  C   UNL     1       5.500  27.721  53.561  1.00  0.00     0.049 A 
BRANCH  12  15
HETATM   15  O   UNL     1       4.460  24.894  51.486  1.00  0.00    -0.358 OA
HETATM   16  H   UNL     1       3.998  24.125  51.873  1.00  0.00     0.218 HD
ENDBRANCH  12  15
BRANCH  13  17
HETATM   17  O   UNL     1       4.457  27.563  51.336  1.00  0.00    -0.353 OA
HETATM   18  C   UNL     1       5.376  27.931  50.314  1.00  0.00     0.210 C 
ENDBRANCH  13  17
ENDBRANCH   7   8
ENDBRANCH   1   7
BRANCH   4  19
HETATM   19  C   UNL     1       8.322  30.394  57.937  1.00  0.00     0.127 C 
BRANCH  19  20
HETATM   20  N   UNL     1       7.758  30.018  59.235  1.00  0.00    -0.376 N 
HETATM   21  H   UNL     1       6.817  29.634  59.193  1.00  0.00     0.161 HD
BRANCH  20  22
HETATM   22  C   UNL     1       8.055  30.784  60.357  1.00  0.00     0.100 A 
HETATM   23  N   UNL     1       7.075  31.032  61.246  1.00  0.00    -0.353 N 
HETATM   24  H   UNL     1       6.152  30.647  61.068  1.00  0.00     0.166 HD
HETATM   25  C   UNL     1       7.248  31.751  62.368  1.00  0.00     0.089 A 
HETATM   26  C   UNL     1       8.493  32.274  62.675  1.00  0.00     0.017 A 
HETATM   27  C   UNL     1       9.550  32.029  61.813  1.00  0.00     0.005 A 
HETATM   28  C   UNL     1       9.334  31.278  60.657  1.00  0.00     0.048 A 
ENDBRANCH  20  22
ENDBRANCH  19  20
ENDBRANCH   4  19
TORSDOF 7
ENDMDL
MODEL 9
REMARK VINA RESULT:      -7.4      5.038      6.364
REMARK  7 active torsions:
REMARK  status: ('A' for Active; 'I' for Inactive)
REMARK    1  A    between atoms: O_2  and  C_3 
REMARK    2  A    between atoms: C_4  and  O_5 
REMARK    3  A    between atoms: C_9  and  C_10 
REMARK    4  A    between atoms: C_10  and  N_11 
REMARK    5  A    between atoms: C_14  and  C_15 
REMARK    6  A    between atoms: C_15  and  N_16 
REMARK    7  A    between atoms: N_16  and  C_17 
ROOT
HETATM    1  N   UNL     1       5.826  28.170  54.867  1.00  0.00    -0.067 N 
HETATM    2  H   UNL     1       5.928  29.178  54.663  1.00  0.00     0.280 HD
HETATM    3  C   UNL     1       7.155  27.525  54.534  1.00  0.00     0.241 C 
HETATM    4  C   UNL     1       7.515  26.682  55.757  1.00  0.00     0.031 C 
HETATM    5  C   UNL     1       6.926  27.509  56.897  1.00  0.00     0.035 C 
HETATM    6  C   UNL     1       5.606  28.040  56.360  1.00  0.00     0.235 C 
ENDROOT
BRANCH   1   7
HETATM    7  C   UNL     1       4.629  27.738  54.048  1.00  0.00     0.274 C 
BRANCH   7   8
HETATM    8  C   UNL     1       4.865  27.729  52.561  1.00  0.00    -0.012 A 
HETATM    9  C   UNL     1       5.026  26.538  51.831  1.00  0.00     0.021 A 
HETATM   10  C   UNL     1       5.240  26.573  50.454  1.00  0.00     0.059 A 
HETATM   11 BR   UNL     1       4.942  24.834  52.666  1.00  0.00    -0.050 Br
HETATM   12  C   UNL     1       5.278  27.799  49.802  1.00  0.00     0.100 A 
HETATM   13  C   UNL     1       5.104  29.002  50.490  1.00  0.00     0.101 A 
HETATM   14  C   UNL     1       4.916  28.963  51.871  1.00  0.00     0.049 A 
BRANCH  12  15
HETATM   15  O   UNL     1       5.481  27.795  48.451  1.00  0.00    -0.358 OA
HETATM   16  H   UNL     1       4.676  28.173  48.044  1.00  0.00     0.218 HD
ENDBRANCH  12  15
BRANCH  13  17
HETATM   17  O   UNL     1       5.147  30.127  49.714  1.00  0.00    -0.353 OA
HETATM   18  C   UNL     1       5.797  31.273  50.252  1.00  0.00     0.210 C 
ENDBRANCH  13  17
ENDBRANCH   7   8
ENDBRANCH   1   7
BRANCH   4  19
HETATM   19  C   UNL     1       6.945  25.255  55.645  1.00  0.00     0.127 C 
BRANCH  19  20
HETATM   20  N   UNL     1       7.990  24.248  55.846  1.00  0.00    -0.376 N 
HETATM   21  H   UNL     1       8.908  24.628  56.061  1.00  0.00     0.161 HD
BRANCH  20  22
HETATM   22  C   UNL     1       7.973  23.085  55.083  1.00  0.00     0.100 A 
HETATM   23  N   UNL     1       7.837  21.904  55.714  1.00  0.00    -0.353 N 
HETATM   24  H   UNL     1       7.748  21.904  56.726  1.00  0.00     0.166 HD
HETATM   25  C   UNL     1       7.800  20.719  55.082  1.00  0.00     0.089 A 
HETATM   26  C   UNL     1       7.887  20.663  53.701  1.00  0.00     0.017 A 
HETATM   27  C   UNL     1       8.000  21.849  52.993  1.00  0.00     0.005 A 
HETATM   28  C   UNL     1       8.035  23.061  53.682  1.00  0.00     0.048 A 
ENDBRANCH  20  22
ENDBRANCH  19  20
ENDBRANCH   4  19
TORSDOF 7
ENDMDL
MODEL 10
REMARK VINA RESULT:      -7.3      5.534      9.522
REMARK  7 active torsions:
REMARK  status: ('A' for Active; 'I' for Inactive)
REMARK    1  A    between atoms: O_2  and  C_3 
REMARK    2  A    between atoms: C_4  and  O_5 
REMARK    3  A    between atoms: C_9  and  C_10 
REMARK    4  A    between atoms: C_10  and  N_11 
REMARK    5  A    between atoms: C_14  and  C_15 
REMARK    6  A    between atoms: C_15  and  N_16 
REMARK    7  A    between atoms: N_16  and  C_17 
ROOT
HETATM    1  N   UNL     1       3.979  32.600  58.062  1.00  0.00    -0.067 N 
HETATM    2  H   UNL     1       3.188  32.857  57.449  1.00  0.00     0.280 HD
HETATM    3  C   UNL     1       4.133  33.723  59.067  1.00  0.00     0.241 C 
HETATM    4  C   UNL     1       4.196  33.041  60.433  1.00  0.00     0.031 C 
HETATM    5  C   UNL     1       3.279  31.838  60.229  1.00  0.00     0.035 C 
HETATM    6  C   UNL     1       3.569  31.353  58.817  1.00  0.00     0.235 C 
ENDROOT
BRANCH   1   7
HETATM    7  C   UNL     1       5.134  32.368  57.111  1.00  0.00     0.274 C 
BRANCH   7   8
HETATM    8  C   UNL     1       5.877  31.078  57.343  1.00  0.00    -0.012 A 
HETATM    9  C   UNL     1       5.575  29.898  56.641  1.00  0.00     0.021 A 
HETATM   10  C   UNL     1       6.288  28.726  56.883  1.00  0.00     0.059 A 
HETATM   11 BR   UNL     1       4.206  29.840  55.325  1.00  0.00    -0.050 Br
HETATM   12  C   UNL     1       7.317  28.736  57.816  1.00  0.00     0.100 A 
HETATM   13  C   UNL     1       7.659  29.892  58.519  1.00  0.00     0.101 A 
HETATM   14  C   UNL     1       6.925  31.056  58.293  1.00  0.00     0.049 A 
BRANCH  12  15
HETATM   15  O   UNL     1       8.001  27.571  58.021  1.00  0.00    -0.358 OA
HETATM   16  H   UNL     1       8.629  27.738  58.751  1.00  0.00     0.218 HD
ENDBRANCH  12  15
BRANCH  13  17
HETATM   17  O   UNL     1       8.704  29.756  59.391  1.00  0.00    -0.353 OA
HETATM   18  C   UNL     1       8.783  30.676  60.472  1.00  0.00     0.210 C 
ENDBRANCH  13  17
ENDBRANCH   7   8
ENDBRANCH   1   7
BRANCH   4  19
HETATM   19  C   UNL     1       5.644  32.679  60.814  1.00  0.00     0.127 C 
BRANCH  19  20
HETATM   20  N   UNL     1       5.689  31.921  62.067  1.00  0.00    -0.376 N 
HETATM   21  H   UNL     1       5.026  31.153  62.121  1.00  0.00     0.161 HD
BRANCH  20  22
HETATM   22  C   UNL     1       5.950  32.588  63.260  1.00  0.00     0.100 A 
HETATM   23  N   UNL     1       4.918  32.878  64.074  1.00  0.00    -0.353 N 
HETATM   24  H   UNL     1       3.985  32.597  63.790  1.00  0.00     0.166 HD
HETATM   25  C   UNL     1       5.051  33.510  65.252  1.00  0.00     0.089 A 
HETATM   26  C   UNL     1       6.304  33.890  65.702  1.00  0.00     0.017 A 
HETATM   27  C   UNL     1       7.410  33.593  64.921  1.00  0.00     0.005 A 
HETATM   28  C   UNL     1       7.236  32.936  63.703  1.00  0.00     0.048 A 
ENDBRANCH  20  22
ENDBRANCH  19  20
ENDBRANCH   4  19
TORSDOF 7
ENDMDL
