MODEL 1
REMARK VINA RESULT:      -9.6      0.000      0.000
REMARK  9 active torsions:
REMARK  status: ('A' for Active; 'I' for Inactive)
REMARK    1  A    between atoms: O_2  and  C_3 
REMARK    2  A    between atoms: C_6  and  C_7 
REMARK    3  A    between atoms: C_13  and  C_14 
REMARK       I    between atoms: C_14  and  N_15 
REMARK    4  A    between atoms: N_15  and  N_16 
REMARK    5  A    between atoms: N_16  and  C_17 
REMARK    6  A    between atoms: C_17  and  N_18 
REMARK    7  A    between atoms: N_18  and  C_19 
REMARK    8  A    between atoms: C_19  and  C_20 
REMARK    9  A    between atoms: C_27  and  C_28 
ROOT
HETATM    1  C   UNL     1       5.758  25.698  54.767  1.00  0.00     0.118 C 
HETATM    2  N   UNL     1       6.539  26.697  55.495  1.00  0.00    -0.365 N 
HETATM    3  C   UNL     1       5.929  27.882  55.765  1.00  0.00     0.138 A 
HETATM    4  N   UNL     1       4.894  28.317  54.968  1.00  0.00    -0.240 N 
HETATM    5  N   UNL     1       4.279  29.412  55.439  1.00  0.00    -0.181 NA
HETATM    6  C   UNL     1       5.041  29.766  56.476  1.00  0.00     0.160 A 
HETATM    7  C   UNL     1       6.090  28.846  56.743  1.00  0.00     0.098 A 
HETATM    8  C   UNL     1       4.349  27.579  53.840  1.00  0.00     0.221 C 
HETATM    9  C   UNL     1       5.226  26.362  53.488  1.00  0.00     0.066 C 
HETATM   10  H   UNL     1       7.197  26.317  56.181  1.00  0.00     0.161 HD
ENDROOT
BRANCH   7  11
HETATM   11  C   UNL     1       7.088  28.908  57.796  1.00  0.00     0.275 C 
HETATM   12  N   UNL     1       7.024  30.065  58.557  1.00  0.00    -0.263 N 
HETATM   13  H   UNL     1       6.172  30.616  58.601  1.00  0.00     0.190 HD
HETATM   14  O   UNL     1       7.928  28.033  57.992  1.00  0.00    -0.266 OA
BRANCH  12  15
HETATM   15  N   UNL     1       7.938  30.263  59.606  1.00  0.00    -0.274 N 
HETATM   16  H   UNL     1       7.527  30.177  60.537  1.00  0.00     0.189 HD
BRANCH  15  17
HETATM   17  C   UNL     1       8.951  31.183  59.481  1.00  0.00     0.186 C 
HETATM   18  S   UNL     1      10.094  31.213  58.262  1.00  0.00    -0.040 SA
BRANCH  17  19
HETATM   19  N   UNL     1       9.043  32.099  60.490  1.00  0.00    -0.360 N 
HETATM   20  H   UNL     1       9.336  33.021  60.192  1.00  0.00     0.162 HD
BRANCH  19  21
HETATM   21  C   UNL     1       9.267  31.790  61.893  1.00  0.00     0.187 C 
BRANCH  21  22
HETATM   22  C   UNL     1       8.087  32.164  62.704  1.00  0.00     0.070 A 
HETATM   23  O   UNL     1       6.871  31.747  62.246  1.00  0.00    -0.325 OA
HETATM   24  C   UNL     1       5.938  32.225  63.108  1.00  0.00     0.142 A 
HETATM   25  C   UNL     1       6.536  32.951  64.111  1.00  0.00     0.027 A 
HETATM   26  C   UNL     1       7.926  32.915  63.850  1.00  0.00     0.036 A 
ENDBRANCH  21  22
ENDBRANCH  19  21
ENDBRANCH  17  19
ENDBRANCH  15  17
ENDBRANCH  12  15
ENDBRANCH   7  11
BRANCH   1  27
HETATM   27  C   UNL     1       6.571  24.447  54.499  1.00  0.00    -0.035 A 
HETATM   28  C   UNL     1       6.831  24.066  53.173  1.00  0.00     0.012 A 
HETATM   29  C   UNL     1       7.653  22.973  52.891  1.00  0.00     0.037 A 
HETATM   30  C   UNL     1       8.239  22.242  53.923  1.00  0.00     0.068 A 
HETATM   31  C   UNL     1       7.940  22.570  55.245  1.00  0.00     0.037 A 
HETATM   32  C   UNL     1       7.105  23.659  55.530  1.00  0.00     0.012 A 
BRANCH  30  33
HETATM   33  O   UNL     1       9.058  21.224  53.524  1.00  0.00    -0.356 OA
HETATM   34  C   UNL     1       8.842  19.970  54.162  1.00  0.00     0.210 C 
ENDBRANCH  30  33
ENDBRANCH   1  27
BRANCH   8  35
HETATM   35  C   UNL     1       4.204  28.468  52.624  1.00  0.00     0.409 C 
HETATM   36  F   UNL     1       5.215  29.360  52.511  1.00  0.00    -0.169 F 
HETATM   37  F   UNL     1       4.234  27.707  51.496  1.00  0.00    -0.169 F 
HETATM   38  F   UNL     1       3.039  29.147  52.586  1.00  0.00    -0.169 F 
ENDBRANCH   8  35
TORSDOF 9
ENDMDL
MODEL 2
REMARK VINA RESULT:      -9.3      3.302      4.977
REMARK  9 active torsions:
REMARK  status: ('A' for Active; 'I' for Inactive)
REMARK    1  A    between atoms: O_2  and  C_3 
REMARK    2  A    between atoms: C_6  and  C_7 
REMARK    3  A    between atoms: C_13  and  C_14 
REMARK       I    between atoms: C_14  and  N_15 
REMARK    4  A    between atoms: N_15  and  N_16 
REMARK    5  A    between atoms: N_16  and  C_17 
REMARK    6  A    between atoms: C_17  and  N_18 
REMARK    7  A    between atoms: N_18  and  C_19 
REMARK    8  A    between atoms: C_19  and  C_20 
REMARK    9  A    between atoms: C_27  and  C_28 
ROOT
HETATM    1  C   UNL     1       6.913  26.141  53.112  1.00  0.00     0.118 C 
HETATM    2  N   UNL     1       6.446  26.589  54.423  1.00  0.00    -0.365 N 
HETATM    3  C   UNL     1       7.157  26.177  55.508  1.00  0.00     0.138 A 
HETATM    4  N   UNL     1       7.901  25.021  55.439  1.00  0.00    -0.240 N 
HETATM    5  N   UNL     1       8.677  24.820  56.515  1.00  0.00    -0.181 NA
HETATM    6  C   UNL     1       8.300  25.791  57.347  1.00  0.00     0.160 A 
HETATM    7  C   UNL     1       7.355  26.685  56.778  1.00  0.00     0.098 A 
HETATM    8  C   UNL     1       8.029  24.184  54.257  1.00  0.00     0.221 C 
HETATM    9  C   UNL     1       7.037  24.611  53.157  1.00  0.00     0.066 C 
HETATM   10  H   UNL     1       6.025  27.522  54.438  1.00  0.00     0.161 HD
ENDROOT
BRANCH   7  11
HETATM   11  C   UNL     1       6.747  27.854  57.389  1.00  0.00     0.275 C 
HETATM   12  N   UNL     1       7.657  28.699  58.004  1.00  0.00    -0.263 N 
HETATM   13  H   UNL     1       8.640  28.684  57.748  1.00  0.00     0.190 HD
HETATM   14  O   UNL     1       5.538  28.076  57.383  1.00  0.00    -0.266 OA
BRANCH  12  15
HETATM   15  N   UNL     1       7.206  29.864  58.645  1.00  0.00    -0.274 N 
HETATM   16  H   UNL     1       6.512  30.390  58.111  1.00  0.00     0.189 HD
BRANCH  15  17
HETATM   17  C   UNL     1       8.067  30.615  59.410  1.00  0.00     0.186 C 
HETATM   18  S   UNL     1       9.560  31.186  58.918  1.00  0.00    -0.040 SA
BRANCH  17  19
HETATM   19  N   UNL     1       7.669  30.843  60.695  1.00  0.00    -0.360 N 
HETATM   20  H   UNL     1       6.671  30.974  60.807  1.00  0.00     0.162 HD
BRANCH  19  21
HETATM   21  C   UNL     1       8.499  31.403  61.750  1.00  0.00     0.187 C 
BRANCH  21  22
HETATM   22  C   UNL     1       7.662  32.055  62.781  1.00  0.00     0.070 A 
HETATM   23  O   UNL     1       6.313  31.880  62.676  1.00  0.00    -0.325 OA
HETATM   24  C   UNL     1       5.742  32.585  63.686  1.00  0.00     0.142 A 
HETATM   25  C   UNL     1       6.705  33.218  64.437  1.00  0.00     0.027 A 
HETATM   26  C   UNL     1       7.948  32.878  63.851  1.00  0.00     0.036 A 
ENDBRANCH  21  22
ENDBRANCH  19  21
ENDBRANCH  17  19
ENDBRANCH  15  17
ENDBRANCH  12  15
ENDBRANCH   7  11
BRANCH   1  27
HETATM   27  C   UNL     1       6.008  26.637  52.003  1.00  0.00    -0.035 A 
HETATM   28  C   UNL     1       5.711  28.007  51.919  1.00  0.00     0.012 A 
HETATM   29  C   UNL     1       4.957  28.512  50.857  1.00  0.00     0.037 A 
HETATM   30  C   UNL     1       4.490  27.664  49.854  1.00  0.00     0.068 A 
HETATM   31  C   UNL     1       4.724  26.294  49.957  1.00  0.00     0.037 A 
HETATM   32  C   UNL     1       5.469  25.784  51.028  1.00  0.00     0.012 A 
BRANCH  30  33
HETATM   33  O   UNL     1       3.803  28.279  48.846  1.00  0.00    -0.356 OA
HETATM   34  C   UNL     1       2.478  27.807  48.622  1.00  0.00     0.210 C 
ENDBRANCH  30  33
ENDBRANCH   1  27
BRANCH   8  35
HETATM   35  C   UNL     1       7.815  22.725  54.594  1.00  0.00     0.409 C 
HETATM   36  F   UNL     1       8.952  22.114  54.998  1.00  0.00    -0.169 F 
HETATM   37  F   UNL     1       6.934  22.620  55.626  1.00  0.00    -0.169 F 
HETATM   38  F   UNL     1       7.290  22.007  53.581  1.00  0.00    -0.169 F 
ENDBRANCH   8  35
TORSDOF 9
ENDMDL
MODEL 3
REMARK VINA RESULT:      -9.1      3.544      5.559
REMARK  9 active torsions:
REMARK  status: ('A' for Active; 'I' for Inactive)
REMARK    1  A    between atoms: O_2  and  C_3 
REMARK    2  A    between atoms: C_6  and  C_7 
REMARK    3  A    between atoms: C_13  and  C_14 
REMARK       I    between atoms: C_14  and  N_15 
REMARK    4  A    between atoms: N_15  and  N_16 
REMARK    5  A    between atoms: N_16  and  C_17 
REMARK    6  A    between atoms: C_17  and  N_18 
REMARK    7  A    between atoms: N_18  and  C_19 
REMARK    8  A    between atoms: C_19  and  C_20 
REMARK    9  A    between atoms: C_27  and  C_28 
ROOT
HETATM    1  C   UNL     1       7.042  25.831  52.984  1.00  0.00     0.118 C 
HETATM    2  N   UNL     1       6.660  26.116  54.366  1.00  0.00    -0.365 N 
HETATM    3  C   UNL     1       7.415  25.551  55.347  1.00  0.00     0.138 A 
HETATM    4  N   UNL     1       8.119  24.395  55.088  1.00  0.00    -0.240 N 
HETATM    5  N   UNL     1       8.944  24.038  56.083  1.00  0.00    -0.181 NA
HETATM    6  C   UNL     1       8.643  24.903  57.053  1.00  0.00     0.160 A 
HETATM    7  C   UNL     1       7.697  25.885  56.658  1.00  0.00     0.098 A 
HETATM    8  C   UNL     1       8.156  23.716  53.803  1.00  0.00     0.221 C 
HETATM    9  C   UNL     1       7.121  24.305  52.826  1.00  0.00     0.066 C 
HETATM   10  H   UNL     1       6.270  27.049  54.524  1.00  0.00     0.161 HD
ENDROOT
BRANCH   7  11
HETATM   11  C   UNL     1       7.159  26.979  57.447  1.00  0.00     0.275 C 
HETATM   12  N   UNL     1       5.913  27.413  57.022  1.00  0.00    -0.263 N 
HETATM   13  H   UNL     1       5.310  26.811  56.468  1.00  0.00     0.190 HD
HETATM   14  O   UNL     1       7.750  27.493  58.394  1.00  0.00    -0.266 OA
BRANCH  12  15
HETATM   15  N   UNL     1       5.278  28.473  57.690  1.00  0.00    -0.274 N 
HETATM   16  H   UNL     1       4.292  28.303  57.895  1.00  0.00     0.189 HD
BRANCH  15  17
HETATM   17  C   UNL     1       5.614  29.776  57.405  1.00  0.00     0.186 C 
HETATM   18  S   UNL     1       5.247  30.589  55.991  1.00  0.00    -0.040 SA
BRANCH  17  19
HETATM   19  N   UNL     1       6.366  30.410  58.351  1.00  0.00    -0.360 N 
HETATM   20  H   UNL     1       5.834  30.986  58.993  1.00  0.00     0.162 HD
BRANCH  19  21
HETATM   21  C   UNL     1       7.774  30.750  58.222  1.00  0.00     0.187 C 
BRANCH  21  22
HETATM   22  C   UNL     1       8.348  31.104  59.539  1.00  0.00     0.070 A 
HETATM   23  O   UNL     1       8.816  30.073  60.301  1.00  0.00    -0.325 OA
HETATM   24  C   UNL     1       9.256  30.611  61.467  1.00  0.00     0.142 A 
HETATM   25  C   UNL     1       9.072  31.973  61.470  1.00  0.00     0.027 A 
HETATM   26  C   UNL     1       8.481  32.294  60.225  1.00  0.00     0.036 A 
ENDBRANCH  21  22
ENDBRANCH  19  21
ENDBRANCH  17  19
ENDBRANCH  15  17
ENDBRANCH  12  15
ENDBRANCH   7  11
BRANCH   1  27
HETATM   27  C   UNL     1       6.095  26.488  52.001  1.00  0.00    -0.035 A 
HETATM   28  C   UNL     1       5.851  27.867  52.099  1.00  0.00     0.012 A 
HETATM   29  C   UNL     1       5.057  28.522  51.154  1.00  0.00     0.037 A 
HETATM   30  C   UNL     1       4.497  27.818  50.090  1.00  0.00     0.068 A 
HETATM   31  C   UNL     1       4.678  26.438  50.015  1.00  0.00     0.037 A 
HETATM   32  C   UNL     1       5.464  25.777  50.969  1.00  0.00     0.012 A 
BRANCH  30  33
HETATM   33  O   UNL     1       3.777  28.573  49.207  1.00  0.00    -0.356 OA
HETATM   34  C   UNL     1       3.648  28.035  47.895  1.00  0.00     0.210 C 
ENDBRANCH  30  33
ENDBRANCH   1  27
BRANCH   8  35
HETATM   35  C   UNL     1       7.915  22.231  53.963  1.00  0.00     0.409 C 
HETATM   36  F   UNL     1       9.062  21.537  54.143  1.00  0.00    -0.169 F 
HETATM   37  F   UNL     1       7.153  22.009  55.069  1.00  0.00    -0.169 F 
HETATM   38  F   UNL     1       7.246  21.677  52.931  1.00  0.00    -0.169 F 
ENDBRANCH   8  35
TORSDOF 9
ENDMDL
MODEL 4
REMARK VINA RESULT:      -9.1      1.791      2.521
REMARK  9 active torsions:
REMARK  status: ('A' for Active; 'I' for Inactive)
REMARK    1  A    between atoms: O_2  and  C_3 
REMARK    2  A    between atoms: C_6  and  C_7 
REMARK    3  A    between atoms: C_13  and  C_14 
REMARK       I    between atoms: C_14  and  N_15 
REMARK    4  A    between atoms: N_15  and  N_16 
REMARK    5  A    between atoms: N_16  and  C_17 
REMARK    6  A    between atoms: C_17  and  N_18 
REMARK    7  A    between atoms: N_18  and  C_19 
REMARK    8  A    between atoms: C_19  and  C_20 
REMARK    9  A    between atoms: C_27  and  C_28 
ROOT
HETATM    1  C   UNL     1       5.678  25.267  53.414  1.00  0.00     0.118 C 
HETATM    2  N   UNL     1       5.923  26.536  54.097  1.00  0.00    -0.365 N 
HETATM    3  C   UNL     1       5.085  27.567  53.806  1.00  0.00     0.138 A 
HETATM    4  N   UNL     1       4.423  27.591  52.598  1.00  0.00    -0.240 N 
HETATM    5  N   UNL     1       3.511  28.570  52.507  1.00  0.00    -0.181 NA
HETATM    6  C   UNL     1       3.708  29.274  53.623  1.00  0.00     0.160 A 
HETATM    7  C   UNL     1       4.675  28.697  54.489  1.00  0.00     0.098 A 
HETATM    8  C   UNL     1       4.517  26.558  51.579  1.00  0.00     0.221 C 
HETATM    9  C   UNL     1       5.634  25.547  51.905  1.00  0.00     0.066 C 
HETATM   10  H   UNL     1       6.285  26.453  55.051  1.00  0.00     0.161 HD
ENDROOT
BRANCH   7  11
HETATM   11  C   UNL     1       5.122  29.182  55.783  1.00  0.00     0.275 C 
HETATM   12  N   UNL     1       6.421  29.665  55.779  1.00  0.00    -0.263 N 
HETATM   13  H   UNL     1       6.864  29.968  54.916  1.00  0.00     0.190 HD
HETATM   14  O   UNL     1       4.430  29.156  56.797  1.00  0.00    -0.266 OA
BRANCH  12  15
HETATM   15  N   UNL     1       6.987  30.158  56.966  1.00  0.00    -0.274 N 
HETATM   16  H   UNL     1       7.333  31.116  56.895  1.00  0.00     0.189 HD
BRANCH  15  17
HETATM   17  C   UNL     1       7.700  29.325  57.795  1.00  0.00     0.186 C 
HETATM   18  S   UNL     1       8.340  27.841  57.367  1.00  0.00    -0.040 SA
BRANCH  17  19
HETATM   19  N   UNL     1       7.823  29.744  59.088  1.00  0.00    -0.360 N 
HETATM   20  H   UNL     1       6.947  29.811  59.592  1.00  0.00     0.162 HD
BRANCH  19  21
HETATM   21  C   UNL     1       8.914  30.548  59.615  1.00  0.00     0.187 C 
BRANCH  21  22
HETATM   22  C   UNL     1       8.488  31.269  60.835  1.00  0.00     0.070 A 
HETATM   23  O   UNL     1       7.332  31.989  60.750  1.00  0.00    -0.325 OA
HETATM   24  C   UNL     1       7.152  32.591  61.953  1.00  0.00     0.142 A 
HETATM   25  C   UNL     1       8.179  32.275  62.810  1.00  0.00     0.027 A 
HETATM   26  C   UNL     1       9.046  31.421  62.088  1.00  0.00     0.036 A 
ENDBRANCH  21  22
ENDBRANCH  19  21
ENDBRANCH  17  19
ENDBRANCH  15  17
ENDBRANCH  12  15
ENDBRANCH   7  11
BRANCH   1  27
HETATM   27  C   UNL     1       6.707  24.223  53.801  1.00  0.00    -0.035 A 
HETATM   28  C   UNL     1       6.960  23.978  55.159  1.00  0.00     0.012 A 
HETATM   29  C   UNL     1       7.832  22.959  55.552  1.00  0.00     0.037 A 
HETATM   30  C   UNL     1       8.464  22.162  54.600  1.00  0.00     0.068 A 
HETATM   31  C   UNL     1       8.271  22.434  53.246  1.00  0.00     0.037 A 
HETATM   32  C   UNL     1       7.406  23.464  52.850  1.00  0.00     0.012 A 
BRANCH  30  33
HETATM   33  O   UNL     1       9.259  21.171  55.104  1.00  0.00    -0.356 OA
HETATM   34  C   UNL     1       8.767  20.515  56.267  1.00  0.00     0.210 C 
ENDBRANCH  30  33
ENDBRANCH   1  27
BRANCH   8  35
HETATM   35  C   UNL     1       4.760  27.159  50.212  1.00  0.00     0.409 C 
HETATM   36  F   UNL     1       5.700  28.131  50.233  1.00  0.00    -0.169 F 
HETATM   37  F   UNL     1       5.220  26.197  49.366  1.00  0.00    -0.169 F 
HETATM   38  F   UNL     1       3.648  27.661  49.637  1.00  0.00    -0.169 F 
ENDBRANCH   8  35
TORSDOF 9
ENDMDL
MODEL 5
REMARK VINA RESULT:      -9.1      3.704      5.458
REMARK  9 active torsions:
REMARK  status: ('A' for Active; 'I' for Inactive)
REMARK    1  A    between atoms: O_2  and  C_3 
REMARK    2  A    between atoms: C_6  and  C_7 
REMARK    3  A    between atoms: C_13  and  C_14 
REMARK       I    between atoms: C_14  and  N_15 
REMARK    4  A    between atoms: N_15  and  N_16 
REMARK    5  A    between atoms: N_16  and  C_17 
REMARK    6  A    between atoms: C_17  and  N_18 
REMARK    7  A    between atoms: N_18  and  C_19 
REMARK    8  A    between atoms: C_19  and  C_20 
REMARK    9  A    between atoms: C_27  and  C_28 
ROOT
HETATM    1  C   UNL     1       6.267  26.784  52.167  1.00  0.00     0.118 C 
HETATM    2  N   UNL     1       5.459  27.047  53.357  1.00  0.00    -0.365 N 
HETATM    3  C   UNL     1       6.023  26.770  54.562  1.00  0.00     0.138 A 
HETATM    4  N   UNL     1       7.027  25.830  54.648  1.00  0.00    -0.240 N 
HETATM    5  N   UNL     1       7.604  25.772  55.858  1.00  0.00    -0.181 NA
HETATM    6  C   UNL     1       6.846  26.586  56.595  1.00  0.00     0.160 A 
HETATM    7  C   UNL     1       5.841  27.252  55.845  1.00  0.00     0.098 A 
HETATM    8  C   UNL     1       7.582  25.103  53.518  1.00  0.00     0.221 C 
HETATM    9  C   UNL     1       6.749  25.329  52.241  1.00  0.00     0.066 C 
HETATM   10  H   UNL     1       4.828  27.850  53.283  1.00  0.00     0.161 HD
ENDROOT
BRANCH   7  11
HETATM   11  C   UNL     1       4.858  28.211  56.318  1.00  0.00     0.275 C 
HETATM   12  N   UNL     1       5.165  28.760  57.553  1.00  0.00    -0.263 N 
HETATM   13  H   UNL     1       6.120  28.760  57.903  1.00  0.00     0.190 HD
HETATM   14  O   UNL     1       3.838  28.505  55.700  1.00  0.00    -0.266 OA
BRANCH  12  15
HETATM   15  N   UNL     1       4.297  29.697  58.137  1.00  0.00    -0.274 N 
HETATM   16  H   UNL     1       3.310  29.531  57.934  1.00  0.00     0.189 HD
BRANCH  15  17
HETATM   17  C   UNL     1       4.671  31.015  58.252  1.00  0.00     0.186 C 
HETATM   18  S   UNL     1       4.000  32.294  57.409  1.00  0.00    -0.040 SA
BRANCH  17  19
HETATM   19  N   UNL     1       5.724  31.259  59.085  1.00  0.00    -0.360 N 
HETATM   20  H   UNL     1       5.499  31.836  59.886  1.00  0.00     0.162 HD
BRANCH  19  21
HETATM   21  C   UNL     1       7.127  31.232  58.703  1.00  0.00     0.187 C 
BRANCH  21  22
HETATM   22  C   UNL     1       7.994  31.353  59.895  1.00  0.00     0.070 A 
HETATM   23  O   UNL     1       8.662  30.229  60.284  1.00  0.00    -0.325 OA
HETATM   24  C   UNL     1       9.359  30.549  61.404  1.00  0.00     0.142 A 
HETATM   25  C   UNL     1       9.143  31.863  61.747  1.00  0.00     0.027 A 
HETATM   26  C   UNL     1       8.258  32.384  60.773  1.00  0.00     0.036 A 
ENDBRANCH  21  22
ENDBRANCH  19  21
ENDBRANCH  17  19
ENDBRANCH  15  17
ENDBRANCH  12  15
ENDBRANCH   7  11
BRANCH   1  27
HETATM   27  C   UNL     1       5.501  27.099  50.897  1.00  0.00    -0.035 A 
HETATM   28  C   UNL     1       4.918  26.050  50.169  1.00  0.00     0.012 A 
HETATM   29  C   UNL     1       4.128  26.312  49.047  1.00  0.00     0.037 A 
HETATM   30  C   UNL     1       3.899  27.622  48.631  1.00  0.00     0.068 A 
HETATM   31  C   UNL     1       4.522  28.670  49.307  1.00  0.00     0.037 A 
HETATM   32  C   UNL     1       5.326  28.409  50.426  1.00  0.00     0.012 A 
BRANCH  30  33
HETATM   33  O   UNL     1       3.075  27.755  47.549  1.00  0.00    -0.356 OA
HETATM   34  C   UNL     1       2.534  26.545  47.031  1.00  0.00     0.210 C 
ENDBRANCH  30  33
ENDBRANCH   1  27
BRANCH   8  35
HETATM   35  C   UNL     1       7.670  23.621  53.811  1.00  0.00     0.409 C 
HETATM   36  F   UNL     1       6.703  23.203  54.660  1.00  0.00    -0.169 F 
HETATM   37  F   UNL     1       7.501  22.917  52.658  1.00  0.00    -0.169 F 
HETATM   38  F   UNL     1       8.862  23.238  54.311  1.00  0.00    -0.169 F 
ENDBRANCH   8  35
TORSDOF 9
ENDMDL
MODEL 6
REMARK VINA RESULT:      -9.0      7.154     10.633
REMARK  9 active torsions:
REMARK  status: ('A' for Active; 'I' for Inactive)
REMARK    1  A    between atoms: O_2  and  C_3 
REMARK    2  A    between atoms: C_6  and  C_7 
REMARK    3  A    between atoms: C_13  and  C_14 
REMARK       I    between atoms: C_14  and  N_15 
REMARK    4  A    between atoms: N_15  and  N_16 
REMARK    5  A    between atoms: N_16  and  C_17 
REMARK    6  A    between atoms: C_17  and  N_18 
REMARK    7  A    between atoms: N_18  and  C_19 
REMARK    8  A    between atoms: C_19  and  C_20 
REMARK    9  A    between atoms: C_27  and  C_28 
ROOT
HETATM    1  C   UNL     1       6.343  32.390  62.830  1.00  0.00     0.118 C 
HETATM    2  N   UNL     1       5.744  33.116  61.711  1.00  0.00    -0.365 N 
HETATM    3  C   UNL     1       5.927  32.598  60.467  1.00  0.00     0.138 A 
HETATM    4  N   UNL     1       7.015  31.792  60.215  1.00  0.00    -0.240 N 
HETATM    5  N   UNL     1       6.987  31.220  59.002  1.00  0.00    -0.181 NA
HETATM    6  C   UNL     1       5.937  31.797  58.418  1.00  0.00     0.160 A 
HETATM    7  C   UNL     1       5.220  32.667  59.282  1.00  0.00     0.098 A 
HETATM    8  C   UNL     1       8.006  31.402  61.205  1.00  0.00     0.221 C 
HETATM    9  C   UNL     1       7.833  32.193  62.516  1.00  0.00     0.066 C 
HETATM   10  H   UNL     1       4.857  33.582  61.923  1.00  0.00     0.161 HD
ENDROOT
BRANCH   7  11
HETATM   11  C   UNL     1       4.027  33.441  58.985  1.00  0.00     0.275 C 
HETATM   12  N   UNL     1       4.271  34.794  58.806  1.00  0.00    -0.263 N 
HETATM   13  H   UNL     1       5.197  35.130  58.559  1.00  0.00     0.190 HD
HETATM   14  O   UNL     1       2.900  32.957  58.915  1.00  0.00    -0.266 OA
BRANCH  12  15
HETATM   15  N   UNL     1       3.205  35.664  58.522  1.00  0.00    -0.274 N 
HETATM   16  H   UNL     1       3.083  35.860  57.527  1.00  0.00     0.189 HD
BRANCH  15  17
HETATM   17  C   UNL     1       2.904  36.697  59.377  1.00  0.00     0.186 C 
HETATM   18  S   UNL     1       3.469  38.265  59.245  1.00  0.00    -0.040 SA
BRANCH  17  19
HETATM   19  N   UNL     1       2.129  36.367  60.450  1.00  0.00    -0.360 N 
HETATM   20  H   UNL     1       1.409  37.045  60.671  1.00  0.00     0.162 HD
BRANCH  19  21
HETATM   21  C   UNL     1       2.527  35.494  61.543  1.00  0.00     0.187 C 
BRANCH  21  22
HETATM   22  C   UNL     1       3.649  36.088  62.302  1.00  0.00     0.070 A 
HETATM   23  O   UNL     1       4.902  35.889  61.801  1.00  0.00    -0.325 OA
HETATM   24  C   UNL     1       5.771  36.478  62.662  1.00  0.00     0.142 A 
HETATM   25  C   UNL     1       5.096  37.048  63.715  1.00  0.00     0.027 A 
HETATM   26  C   UNL     1       3.722  36.794  63.486  1.00  0.00     0.036 A 
ENDBRANCH  21  22
ENDBRANCH  19  21
ENDBRANCH  17  19
ENDBRANCH  15  17
ENDBRANCH  12  15
ENDBRANCH   7  11
BRANCH   1  27
HETATM   27  C   UNL     1       6.095  33.098  64.146  1.00  0.00    -0.035 A 
HETATM   28  C   UNL     1       4.776  33.355  64.551  1.00  0.00     0.012 A 
HETATM   29  C   UNL     1       4.508  33.922  65.800  1.00  0.00     0.037 A 
HETATM   30  C   UNL     1       5.548  34.238  66.672  1.00  0.00     0.068 A 
HETATM   31  C   UNL     1       6.866  34.047  66.259  1.00  0.00     0.037 A 
HETATM   32  C   UNL     1       7.137  33.490  65.001  1.00  0.00     0.012 A 
BRANCH  30  33
HETATM   33  O   UNL     1       5.162  34.746  67.880  1.00  0.00    -0.356 OA
HETATM   34  C   UNL     1       6.059  34.521  68.962  1.00  0.00     0.210 C 
ENDBRANCH  30  33
ENDBRANCH   1  27
BRANCH   8  35
HETATM   35  C   UNL     1       9.411  31.595  60.677  1.00  0.00     0.409 C 
HETATM   36  F   UNL     1       9.518  32.678  59.875  1.00  0.00    -0.169 F 
HETATM   37  F   UNL     1      10.265  31.800  61.717  1.00  0.00    -0.169 F 
HETATM   38  F   UNL     1       9.889  30.527  60.007  1.00  0.00    -0.169 F 
ENDBRANCH   8  35
TORSDOF 9
ENDMDL
MODEL 7
REMARK VINA RESULT:      -8.9      4.498      8.755
REMARK  9 active torsions:
REMARK  status: ('A' for Active; 'I' for Inactive)
REMARK    1  A    between atoms: O_2  and  C_3 
REMARK    2  A    between atoms: C_6  and  C_7 
REMARK    3  A    between atoms: C_13  and  C_14 
REMARK       I    between atoms: C_14  and  N_15 
REMARK    4  A    between atoms: N_15  and  N_16 
REMARK    5  A    between atoms: N_16  and  C_17 
REMARK    6  A    between atoms: C_17  and  N_18 
REMARK    7  A    between atoms: N_18  and  C_19 
REMARK    8  A    between atoms: C_19  and  C_20 
REMARK    9  A    between atoms: C_27  and  C_28 
ROOT
HETATM    1  C   UNL     1       7.106  27.297  56.693  1.00  0.00     0.118 C 
HETATM    2  N   UNL     1       7.249  27.303  55.238  1.00  0.00    -0.365 N 
HETATM    3  C   UNL     1       6.971  26.143  54.584  1.00  0.00     0.138 A 
HETATM    4  N   UNL     1       7.080  24.941  55.247  1.00  0.00    -0.240 N 
HETATM    5  N   UNL     1       6.622  23.897  54.540  1.00  0.00    -0.181 NA
HETATM    6  C   UNL     1       6.360  24.430  53.346  1.00  0.00     0.160 A 
HETATM    7  C   UNL     1       6.548  25.837  53.304  1.00  0.00     0.098 A 
HETATM    8  C   UNL     1       7.447  24.794  56.647  1.00  0.00     0.221 C 
HETATM    9  C   UNL     1       7.938  26.129  57.241  1.00  0.00     0.066 C 
HETATM   10  H   UNL     1       7.018  28.190  54.783  1.00  0.00     0.161 HD
ENDROOT
BRANCH   7  11
HETATM   11  C   UNL     1       6.342  26.735  52.182  1.00  0.00     0.275 C 
HETATM   12  N   UNL     1       5.877  26.102  51.040  1.00  0.00    -0.263 N 
HETATM   13  H   UNL     1       5.406  25.203  51.094  1.00  0.00     0.190 HD
HETATM   14  O   UNL     1       6.571  27.941  52.222  1.00  0.00    -0.266 OA
BRANCH  12  15
HETATM   15  N   UNL     1       5.643  26.849  49.873  1.00  0.00    -0.274 N 
HETATM   16  H   UNL     1       6.434  27.427  49.584  1.00  0.00     0.189 HD
BRANCH  15  17
HETATM   17  C   UNL     1       4.396  27.370  49.620  1.00  0.00     0.186 C 
HETATM   18  S   UNL     1       3.258  26.710  48.589  1.00  0.00    -0.040 SA
BRANCH  17  19
HETATM   19  N   UNL     1       4.120  28.561  50.226  1.00  0.00    -0.360 N 
HETATM   20  H   UNL     1       4.922  29.170  50.339  1.00  0.00     0.162 HD
BRANCH  19  21
HETATM   21  C   UNL     1       3.011  28.810  51.133  1.00  0.00     0.187 C 
BRANCH  21  22
HETATM   22  C   UNL     1       3.508  29.122  52.491  1.00  0.00     0.070 A 
HETATM   23  O   UNL     1       3.485  28.106  53.402  1.00  0.00    -0.325 OA
HETATM   24  C   UNL     1       3.942  28.615  54.574  1.00  0.00     0.142 A 
HETATM   25  C   UNL     1       4.252  29.946  54.434  1.00  0.00     0.027 A 
HETATM   26  C   UNL     1       3.969  30.278  53.088  1.00  0.00     0.036 A 
ENDBRANCH  21  22
ENDBRANCH  19  21
ENDBRANCH  17  19
ENDBRANCH  15  17
ENDBRANCH  12  15
ENDBRANCH   7  11
BRANCH   1  27
HETATM   27  C   UNL     1       7.486  28.637  57.292  1.00  0.00    -0.035 A 
HETATM   28  C   UNL     1       6.477  29.561  57.604  1.00  0.00     0.012 A 
HETATM   29  C   UNL     1       6.782  30.766  58.242  1.00  0.00     0.037 A 
HETATM   30  C   UNL     1       8.098  31.071  58.586  1.00  0.00     0.068 A 
HETATM   31  C   UNL     1       9.118  30.192  58.226  1.00  0.00     0.037 A 
HETATM   32  C   UNL     1       8.814  28.988  57.575  1.00  0.00     0.012 A 
BRANCH  30  33
HETATM   33  O   UNL     1       8.268  32.256  59.245  1.00  0.00    -0.356 OA
HETATM   34  C   UNL     1       9.131  32.218  60.376  1.00  0.00     0.210 C 
ENDBRANCH  30  33
ENDBRANCH   1  27
BRANCH   8  35
HETATM   35  C   UNL     1       8.514  23.736  56.824  1.00  0.00     0.409 C 
HETATM   36  F   UNL     1       9.400  23.718  55.802  1.00  0.00    -0.169 F 
HETATM   37  F   UNL     1       9.231  23.997  57.951  1.00  0.00    -0.169 F 
HETATM   38  F   UNL     1       8.021  22.490  56.974  1.00  0.00    -0.169 F 
ENDBRANCH   8  35
TORSDOF 9
ENDMDL
MODEL 8
REMARK VINA RESULT:      -8.9      4.522     10.167
REMARK  9 active torsions:
REMARK  status: ('A' for Active; 'I' for Inactive)
REMARK    1  A    between atoms: O_2  and  C_3 
REMARK    2  A    between atoms: C_6  and  C_7 
REMARK    3  A    between atoms: C_13  and  C_14 
REMARK       I    between atoms: C_14  and  N_15 
REMARK    4  A    between atoms: N_15  and  N_16 
REMARK    5  A    between atoms: N_16  and  C_17 
REMARK    6  A    between atoms: C_17  and  N_18 
REMARK    7  A    between atoms: N_18  and  C_19 
REMARK    8  A    between atoms: C_19  and  C_20 
REMARK    9  A    between atoms: C_27  and  C_28 
ROOT
HETATM    1  C   UNL     1       7.141  27.582  56.937  1.00  0.00     0.118 C 
HETATM    2  N   UNL     1       6.766  27.712  55.529  1.00  0.00    -0.365 N 
HETATM    3  C   UNL     1       6.265  26.605  54.918  1.00  0.00     0.138 A 
HETATM    4  N   UNL     1       6.586  25.354  55.396  1.00  0.00    -0.240 N 
HETATM    5  N   UNL     1       5.898  24.364  54.807  1.00  0.00    -0.181 NA
HETATM    6  C   UNL     1       5.241  24.990  53.830  1.00  0.00     0.160 A 
HETATM    7  C   UNL     1       5.417  26.399  53.845  1.00  0.00     0.098 A 
HETATM    8  C   UNL     1       7.417  25.099  56.561  1.00  0.00     0.221 C 
HETATM    9  C   UNL     1       8.099  26.388  57.057  1.00  0.00     0.066 C 
HETATM   10  H   UNL     1       6.400  28.629  55.262  1.00  0.00     0.161 HD
ENDROOT
BRANCH   7  11
HETATM   11  C   UNL     1       4.841  27.384  52.946  1.00  0.00     0.275 C 
HETATM   12  N   UNL     1       4.662  26.920  51.653  1.00  0.00    -0.263 N 
HETATM   13  H   UNL     1       4.605  25.924  51.457  1.00  0.00     0.190 HD
HETATM   14  O   UNL     1       4.552  28.529  53.284  1.00  0.00    -0.266 OA
BRANCH  12  15
HETATM   15  N   UNL     1       4.122  27.770  50.674  1.00  0.00    -0.274 N 
HETATM   16  H   UNL     1       3.320  27.377  50.179  1.00  0.00     0.189 HD
BRANCH  15  17
HETATM   17  C   UNL     1       4.943  28.586  49.931  1.00  0.00     0.186 C 
HETATM   18  S   UNL     1       5.086  30.242  50.108  1.00  0.00    -0.040 SA
BRANCH  17  19
HETATM   19  N   UNL     1       5.637  27.970  48.931  1.00  0.00    -0.360 N 
HETATM   20  H   UNL     1       6.623  27.843  49.122  1.00  0.00     0.162 HD
BRANCH  19  21
HETATM   21  C   UNL     1       5.263  27.960  47.525  1.00  0.00     0.187 C 
BRANCH  21  22
HETATM   22  C   UNL     1       3.941  27.322  47.343  1.00  0.00     0.070 A 
HETATM   23  O   UNL     1       3.921  25.959  47.277  1.00  0.00    -0.325 OA
HETATM   24  C   UNL     1       2.631  25.591  47.072  1.00  0.00     0.142 A 
HETATM   25  C   UNL     1       1.819  26.697  46.998  1.00  0.00     0.027 A 
HETATM   26  C   UNL     1       2.665  27.819  47.170  1.00  0.00     0.036 A 
ENDBRANCH  21  22
ENDBRANCH  19  21
ENDBRANCH  17  19
ENDBRANCH  15  17
ENDBRANCH  12  15
ENDBRANCH   7  11
BRANCH   1  27
HETATM   27  C   UNL     1       7.721  28.874  57.477  1.00  0.00    -0.035 A 
HETATM   28  C   UNL     1       6.856  29.855  57.987  1.00  0.00     0.012 A 
HETATM   29  C   UNL     1       7.360  31.016  58.577  1.00  0.00     0.037 A 
HETATM   30  C   UNL     1       8.735  31.221  58.676  1.00  0.00     0.068 A 
HETATM   31  C   UNL     1       9.605  30.286  58.117  1.00  0.00     0.037 A 
HETATM   32  C   UNL     1       9.100  29.126  57.514  1.00  0.00     0.012 A 
BRANCH  30  33
HETATM   33  O   UNL     1       9.109  32.372  59.311  1.00  0.00    -0.356 OA
HETATM   34  C   UNL     1       9.462  32.234  60.683  1.00  0.00     0.210 C 
ENDBRANCH  30  33
ENDBRANCH   1  27
BRANCH   8  35
HETATM   35  C   UNL     1       8.468  24.051  56.264  1.00  0.00     0.409 C 
HETATM   36  F   UNL     1       8.047  22.799  56.555  1.00  0.00    -0.169 F 
HETATM   37  F   UNL     1       8.757  24.060  54.934  1.00  0.00    -0.169 F 
HETATM   38  F   UNL     1       9.637  24.261  56.902  1.00  0.00    -0.169 F 
ENDBRANCH   8  35
TORSDOF 9
ENDMDL
MODEL 9
REMARK VINA RESULT:      -8.8      4.771      9.802
REMARK  9 active torsions:
REMARK  status: ('A' for Active; 'I' for Inactive)
REMARK    1  A    between atoms: O_2  and  C_3 
REMARK    2  A    between atoms: C_6  and  C_7 
REMARK    3  A    between atoms: C_13  and  C_14 
REMARK       I    between atoms: C_14  and  N_15 
REMARK    4  A    between atoms: N_15  and  N_16 
REMARK    5  A    between atoms: N_16  and  C_17 
REMARK    6  A    between atoms: C_17  and  N_18 
REMARK    7  A    between atoms: N_18  and  C_19 
REMARK    8  A    between atoms: C_19  and  C_20 
REMARK    9  A    between atoms: C_27  and  C_28 
ROOT
HETATM    1  C   UNL     1       6.619  27.110  56.729  1.00  0.00     0.118 C 
HETATM    2  N   UNL     1       6.613  27.225  55.271  1.00  0.00    -0.365 N 
HETATM    3  C   UNL     1       6.498  26.072  54.560  1.00  0.00     0.138 A 
HETATM    4  N   UNL     1       6.901  24.880  55.120  1.00  0.00    -0.240 N 
HETATM    5  N   UNL     1       6.584  23.807  54.379  1.00  0.00    -0.181 NA
HETATM    6  C   UNL     1       6.106  24.344  53.255  1.00  0.00     0.160 A 
HETATM    7  C   UNL     1       6.016  25.761  53.302  1.00  0.00     0.098 A 
HETATM    8  C   UNL     1       7.427  24.731  56.467  1.00  0.00     0.221 C 
HETATM    9  C   UNL     1       7.710  26.101  57.114  1.00  0.00     0.066 C 
HETATM   10  H   UNL     1       6.171  28.073  54.905  1.00  0.00     0.161 HD
ENDROOT
BRANCH   7  11
HETATM   11  C   UNL     1       5.531  26.662  52.272  1.00  0.00     0.275 C 
HETATM   12  N   UNL     1       4.637  26.072  51.392  1.00  0.00    -0.263 N 
HETATM   13  H   UNL     1       4.121  25.236  51.652  1.00  0.00     0.190 HD
HETATM   14  O   UNL     1       5.887  27.833  52.167  1.00  0.00    -0.266 OA
BRANCH  12  15
HETATM   15  N   UNL     1       4.094  26.826  50.338  1.00  0.00    -0.274 N 
HETATM   16  H   UNL     1       3.199  27.265  50.559  1.00  0.00     0.189 HD
BRANCH  15  17
HETATM   17  C   UNL     1       4.255  26.417  49.036  1.00  0.00     0.186 C 
HETATM   18  S   UNL     1       3.284  25.316  48.235  1.00  0.00    -0.040 SA
BRANCH  17  19
HETATM   19  N   UNL     1       5.346  26.922  48.389  1.00  0.00    -0.360 N 
HETATM   20  H   UNL     1       6.222  26.784  48.877  1.00  0.00     0.162 HD
BRANCH  19  21
HETATM   21  C   UNL     1       5.327  28.010  47.425  1.00  0.00     0.187 C 
BRANCH  21  22
HETATM   22  C   UNL     1       5.272  29.317  48.115  1.00  0.00     0.070 A 
HETATM   23  O   UNL     1       5.838  29.380  49.355  1.00  0.00    -0.325 OA
HETATM   24  C   UNL     1       5.643  30.642  49.816  1.00  0.00     0.142 A 
HETATM   25  C   UNL     1       4.954  31.392  48.892  1.00  0.00     0.027 A 
HETATM   26  C   UNL     1       4.709  30.535  47.793  1.00  0.00     0.036 A 
ENDBRANCH  21  22
ENDBRANCH  19  21
ENDBRANCH  17  19
ENDBRANCH  15  17
ENDBRANCH  12  15
ENDBRANCH   7  11
BRANCH   1  27
HETATM   27  C   UNL     1       6.793  28.463  57.390  1.00  0.00    -0.035 A 
HETATM   28  C   UNL     1       7.991  28.750  58.063  1.00  0.00     0.012 A 
HETATM   29  C   UNL     1       8.222  30.017  58.603  1.00  0.00     0.037 A 
HETATM   30  C   UNL     1       7.267  31.025  58.478  1.00  0.00     0.068 A 
HETATM   31  C   UNL     1       6.048  30.737  57.868  1.00  0.00     0.037 A 
HETATM   32  C   UNL     1       5.809  29.462  57.336  1.00  0.00     0.012 A 
BRANCH  30  33
HETATM   33  O   UNL     1       7.624  32.234  59.007  1.00  0.00    -0.356 OA
HETATM   34  C   UNL     1       8.665  32.202  59.978  1.00  0.00     0.210 C 
ENDBRANCH  30  33
ENDBRANCH   1  27
BRANCH   8  35
HETATM   35  C   UNL     1       8.689  23.896  56.472  1.00  0.00     0.409 C 
HETATM   36  F   UNL     1       9.177  23.688  55.228  1.00  0.00    -0.169 F 
HETATM   37  F   UNL     1       9.663  24.548  57.164  1.00  0.00    -0.169 F 
HETATM   38  F   UNL     1       8.543  22.698  57.072  1.00  0.00    -0.169 F 
ENDBRANCH   8  35
TORSDOF 9
ENDMDL
MODEL 10
REMARK VINA RESULT:      -8.7      4.370      7.995
REMARK  9 active torsions:
REMARK  status: ('A' for Active; 'I' for Inactive)
REMARK    1  A    between atoms: O_2  and  C_3 
REMARK    2  A    between atoms: C_6  and  C_7 
REMARK    3  A    between atoms: C_13  and  C_14 
REMARK       I    between atoms: C_14  and  N_15 
REMARK    4  A    between atoms: N_15  and  N_16 
REMARK    5  A    between atoms: N_16  and  C_17 
REMARK    6  A    between atoms: C_17  and  N_18 
REMARK    7  A    between atoms: N_18  and  C_19 
REMARK    8  A    between atoms: C_19  and  C_20 
REMARK    9  A    between atoms: C_27  and  C_28 
ROOT
HETATM    1  C   UNL     1       7.442  27.490  56.678  1.00  0.00     0.118 C 
HETATM    2  N   UNL     1       7.188  27.633  55.245  1.00  0.00    -0.365 N 
HETATM    3  C   UNL     1       6.590  26.587  54.615  1.00  0.00     0.138 A 
HETATM    4  N   UNL     1       6.708  25.317  55.135  1.00  0.00    -0.240 N 
HETATM    5  N   UNL     1       5.939  24.411  54.512  1.00  0.00    -0.181 NA
HETATM    6  C   UNL     1       5.441  25.093  53.480  1.00  0.00     0.160 A 
HETATM    7  C   UNL     1       5.801  26.467  53.487  1.00  0.00     0.098 A 
HETATM    8  C   UNL     1       7.414  24.983  56.361  1.00  0.00     0.221 C 
HETATM    9  C   UNL     1       8.223  26.184  56.887  1.00  0.00     0.066 C 
HETATM   10  H   UNL     1       6.966  28.583  54.938  1.00  0.00     0.161 HD
ENDROOT
BRANCH   7  11
HETATM   11  C   UNL     1       5.425  27.496  52.533  1.00  0.00     0.275 C 
HETATM   12  N   UNL     1       4.245  27.226  51.858  1.00  0.00    -0.263 N 
HETATM   13  H   UNL     1       3.560  26.579  52.239  1.00  0.00     0.190 HD
HETATM   14  O   UNL     1       6.090  28.506  52.323  1.00  0.00    -0.266 OA
BRANCH  12  15
HETATM   15  N   UNL     1       3.766  28.132  50.898  1.00  0.00    -0.274 N 
HETATM   16  H   UNL     1       4.470  28.428  50.219  1.00  0.00     0.189 HD
BRANCH  15  17
HETATM   17  C   UNL     1       2.829  29.078  51.240  1.00  0.00     0.186 C 
HETATM   18  S   UNL     1       1.811  29.868  50.175  1.00  0.00    -0.040 SA
BRANCH  17  19
HETATM   19  N   UNL     1       2.797  29.426  52.559  1.00  0.00    -0.360 N 
HETATM   20  H   UNL     1       1.999  29.067  53.068  1.00  0.00     0.162 HD
BRANCH  19  21
HETATM   21  C   UNL     1       3.438  30.596  53.140  1.00  0.00     0.187 C 
BRANCH  21  22
HETATM   22  C   UNL     1       3.557  30.450  54.607  1.00  0.00     0.070 A 
HETATM   23  O   UNL     1       4.296  29.397  55.062  1.00  0.00    -0.325 OA
HETATM   24  C   UNL     1       4.241  29.431  56.418  1.00  0.00     0.142 A 
HETATM   25  C   UNL     1       3.471  30.487  56.843  1.00  0.00     0.027 A 
HETATM   26  C   UNL     1       3.024  31.146  55.674  1.00  0.00     0.036 A 
ENDBRANCH  21  22
ENDBRANCH  19  21
ENDBRANCH  17  19
ENDBRANCH  15  17
ENDBRANCH  12  15
ENDBRANCH   7  11
BRANCH   1  27
HETATM   27  C   UNL     1       8.148  28.708  57.240  1.00  0.00    -0.035 A 
HETATM   28  C   UNL     1       7.497  29.496  58.202  1.00  0.00     0.012 A 
HETATM   29  C   UNL     1       8.152  30.571  58.808  1.00  0.00     0.037 A 
HETATM   30  C   UNL     1       9.470  30.877  58.473  1.00  0.00     0.068 A 
HETATM   31  C   UNL     1      10.108  30.142  57.475  1.00  0.00     0.037 A 
HETATM   32  C   UNL     1       9.447  29.072  56.856  1.00  0.00     0.012 A 
BRANCH  30  33
HETATM   33  O   UNL     1      10.019  31.921  59.164  1.00  0.00    -0.356 OA
HETATM   34  C   UNL     1       9.370  32.267  60.382  1.00  0.00     0.210 C 
ENDBRANCH  30  33
ENDBRANCH   1  27
BRANCH   8  35
HETATM   35  C   UNL     1       8.335  23.800  56.157  1.00  0.00     0.409 C 
HETATM   36  F   UNL     1       9.314  23.740  57.089  1.00  0.00    -0.169 F 
HETATM   37  F   UNL     1       7.625  22.645  56.270  1.00  0.00    -0.169 F 
HETATM   38  F   UNL     1       8.912  23.768  54.939  1.00  0.00    -0.169 F 
ENDBRANCH   8  35
TORSDOF 9
ENDMDL
