MODEL 1
REMARK VINA RESULT:      -7.8      0.000      0.000
REMARK  11 active torsions:
REMARK  status: ('A' for Active; 'I' for Inactive)
REMARK    1  A    between atoms: C_2  and  N_3 
REMARK    2  A    between atoms: N_3  and  C_5 
REMARK    3  A    between atoms: N_3  and  C_34 
REMARK    4  A    between atoms: C_5  and  C_6 
REMARK    5  A    between atoms: C_6  and  C_7 
REMARK    6  A    between atoms: C_7  and  N_8 
REMARK       I    between atoms: N_8  and  C_9 
REMARK    7  A    between atoms: C_9  and  C_10 
REMARK    8  A    between atoms: C_10  and  O_11 
REMARK    9  A    between atoms: N_12  and  C_13 
REMARK   10  A    between atoms: C_14  and  O_15 
REMARK   11  A    between atoms: C_18  and  O_19 
ROOT
HETATM    1  C   UNL     1       5.947  27.989  53.373  1.00  0.00     0.256 C 
HETATM    2  N   UNL     1       5.415  28.416  54.671  1.00  0.00    -0.251 N 
HETATM    3  C   UNL     1       4.050  28.434  54.905  1.00  0.00     0.330 C 
HETATM    4  O   UNL     1       3.515  28.469  56.013  1.00  0.00    -0.246 OA
HETATM    5  N   UNL     1       3.236  28.456  53.806  1.00  0.00    -0.308 N 
HETATM    6  C   UNL     1       3.680  28.547  52.491  1.00  0.00     0.048 A 
HETATM    7  C   UNL     1       5.033  28.369  52.225  1.00  0.00     0.035 A 
HETATM    8  C   UNL     1       2.772  28.818  51.466  1.00  0.00     0.031 A 
HETATM    9  C   UNL     1       3.227  28.922  50.151  1.00  0.00     0.021 A 
HETATM   10  C   UNL     1       4.580  28.744  49.871  1.00  0.00     0.011 A 
HETATM   11 BR   UNL     1       5.195  28.867  48.089  1.00  0.00    -0.051 Br
HETATM   12  C   UNL     1       5.482  28.462  50.896  1.00  0.00     0.034 A 
HETATM   13  H   UNL     1       2.258  28.602  54.018  1.00  0.00     0.170 HD
ENDROOT
BRANCH   1  14
HETATM   14  C   UNL     1       6.153  26.408  53.324  1.00  0.00     0.279 C 
HETATM   15  N   UNL     1       7.462  25.938  53.331  1.00  0.00    -0.356 N 
HETATM   16  H   UNL     1       8.119  26.541  52.839  1.00  0.00     0.162 HD
HETATM   17  O   UNL     1       5.196  25.631  53.389  1.00  0.00    -0.268 OA
BRANCH  15  18
HETATM   18  C   UNL     1       7.723  24.515  53.320  1.00  0.00     0.124 C 
BRANCH  18  19
HETATM   19  C   UNL     1       8.224  24.029  54.679  1.00  0.00     0.047 C 
BRANCH  19  20
HETATM   20  C   UNL     1       7.242  23.018  55.265  1.00  0.00     0.236 C 
BRANCH  20  21
HETATM   21  N   UNL     1       7.661  21.570  55.050  1.00  0.00    -0.072 N 
HETATM   22  H   UNL     1       6.827  21.104  54.662  1.00  0.00     0.279 HD
BRANCH  21  23
HETATM   23  C   UNL     1       7.986  20.798  56.321  1.00  0.00     0.230 C 
HETATM   24  C   UNL     1       9.417  20.292  56.314  1.00  0.00     0.034 C 
ENDBRANCH  21  23
BRANCH  21  25
HETATM   25  C   UNL     1       8.749  21.357  54.010  1.00  0.00     0.230 C 
HETATM   26  C   UNL     1       8.235  20.569  52.818  1.00  0.00     0.034 C 
ENDBRANCH  21  25
ENDBRANCH  20  21
ENDBRANCH  19  20
ENDBRANCH  18  19
ENDBRANCH  15  18
ENDBRANCH   1  14
BRANCH   1  27
HETATM   27  O   UNL     1       7.191  28.645  53.118  1.00  0.00    -0.359 OA
HETATM   28  H   UNL     1       6.965  29.546  52.828  1.00  0.00     0.213 HD
ENDBRANCH   1  27
BRANCH   2  29
HETATM   29  C   UNL     1       6.316  28.538  55.769  1.00  0.00     0.076 A 
HETATM   30  C   UNL     1       6.667  27.452  56.589  1.00  0.00     0.098 A 
HETATM   31  C   UNL     1       7.538  27.645  57.675  1.00  0.00     0.075 A 
HETATM   32  C   UNL     1       8.022  28.922  57.972  1.00  0.00     0.070 A 
HETATM   33  C   UNL     1       7.661  29.998  57.164  1.00  0.00     0.039 A 
HETATM   34  C   UNL     1       6.815  29.810  56.071  1.00  0.00     0.035 A 
BRANCH  30  35
HETATM   35  O   UNL     1       6.220  26.200  56.231  1.00  0.00    -0.354 OA
HETATM   36  C   UNL     1       5.259  25.673  57.148  1.00  0.00     0.210 C 
ENDBRANCH  30  35
BRANCH  32  37
HETATM   37  O   UNL     1       8.860  29.247  59.002  1.00  0.00    -0.356 OA
HETATM   38  C   UNL     1       9.311  30.593  59.073  1.00  0.00     0.210 C 
ENDBRANCH  32  37
ENDBRANCH   2  29
TORSDOF 11
ENDMDL
MODEL 2
REMARK VINA RESULT:      -7.1      3.105      6.368
REMARK  11 active torsions:
REMARK  status: ('A' for Active; 'I' for Inactive)
REMARK    1  A    between atoms: C_2  and  N_3 
REMARK    2  A    between atoms: N_3  and  C_5 
REMARK    3  A    between atoms: N_3  and  C_34 
REMARK    4  A    between atoms: C_5  and  C_6 
REMARK    5  A    between atoms: C_6  and  C_7 
REMARK    6  A    between atoms: C_7  and  N_8 
REMARK       I    between atoms: N_8  and  C_9 
REMARK    7  A    between atoms: C_9  and  C_10 
REMARK    8  A    between atoms: C_10  and  O_11 
REMARK    9  A    between atoms: N_12  and  C_13 
REMARK   10  A    between atoms: C_14  and  O_15 
REMARK   11  A    between atoms: C_18  and  O_19 
ROOT
HETATM    1  C   UNL     1       7.586  28.491  56.715  1.00  0.00     0.256 C 
HETATM    2  N   UNL     1       7.940  28.667  55.302  1.00  0.00    -0.251 N 
HETATM    3  C   UNL     1       9.209  29.081  54.936  1.00  0.00     0.330 C 
HETATM    4  O   UNL     1       9.703  28.966  53.815  1.00  0.00    -0.246 OA
HETATM    5  N   UNL     1       9.954  29.707  55.897  1.00  0.00    -0.308 N 
HETATM    6  C   UNL     1       9.499  30.027  57.172  1.00  0.00     0.048 A 
HETATM    7  C   UNL     1       8.297  29.485  57.612  1.00  0.00     0.035 A 
HETATM    8  C   UNL     1      10.243  30.885  57.983  1.00  0.00     0.031 A 
HETATM    9  C   UNL     1       9.774  31.213  59.255  1.00  0.00     0.021 A 
HETATM   10  C   UNL     1       8.571  30.674  59.709  1.00  0.00     0.011 A 
HETATM   11 BR   UNL     1       7.942  31.103  61.438  1.00  0.00    -0.051 Br
HETATM   12  C   UNL     1       7.836  29.809  58.900  1.00  0.00     0.034 A 
HETATM   13  H   UNL     1      10.817  30.110  55.555  1.00  0.00     0.170 HD
ENDROOT
BRANCH   1  14
HETATM   14  C   UNL     1       7.959  27.025  57.224  1.00  0.00     0.279 C 
HETATM   15  N   UNL     1       7.021  26.022  57.010  1.00  0.00    -0.356 N 
HETATM   16  H   UNL     1       6.055  26.340  57.072  1.00  0.00     0.162 HD
HETATM   17  O   UNL     1       9.074  26.768  57.689  1.00  0.00    -0.268 OA
BRANCH  15  18
HETATM   18  C   UNL     1       7.305  24.663  57.418  1.00  0.00     0.124 C 
BRANCH  18  19
HETATM   19  C   UNL     1       7.047  23.674  56.283  1.00  0.00     0.047 C 
BRANCH  19  20
HETATM   20  C   UNL     1       8.241  23.651  55.332  1.00  0.00     0.236 C 
BRANCH  20  21
HETATM   21  N   UNL     1       8.532  22.272  54.756  1.00  0.00    -0.072 N 
HETATM   22  H   UNL     1       9.552  22.155  54.843  1.00  0.00     0.279 HD
BRANCH  21  23
HETATM   23  C   UNL     1       8.246  22.123  53.268  1.00  0.00     0.230 C 
HETATM   24  C   UNL     1       8.118  20.663  52.869  1.00  0.00     0.034 C 
ENDBRANCH  21  23
BRANCH  21  25
HETATM   25  C   UNL     1       7.935  21.107  55.528  1.00  0.00     0.230 C 
HETATM   26  C   UNL     1       8.959  20.461  56.443  1.00  0.00     0.034 C 
ENDBRANCH  21  25
ENDBRANCH  20  21
ENDBRANCH  19  20
ENDBRANCH  18  19
ENDBRANCH  15  18
ENDBRANCH   1  14
BRANCH   1  27
HETATM   27  O   UNL     1       6.189  28.724  56.899  1.00  0.00    -0.359 OA
HETATM   28  H   UNL     1       5.811  28.812  56.007  1.00  0.00     0.213 HD
ENDBRANCH   1  27
BRANCH   2  29
HETATM   29  C   UNL     1       7.061  28.140  54.311  1.00  0.00     0.076 A 
HETATM   30  C   UNL     1       5.825  28.731  53.998  1.00  0.00     0.098 A 
HETATM   31  C   UNL     1       4.990  28.144  53.032  1.00  0.00     0.075 A 
HETATM   32  C   UNL     1       5.362  26.948  52.412  1.00  0.00     0.070 A 
HETATM   33  C   UNL     1       6.583  26.358  52.734  1.00  0.00     0.039 A 
HETATM   34  C   UNL     1       7.427  26.947  53.676  1.00  0.00     0.035 A 
BRANCH  30  35
HETATM   35  O   UNL     1       5.519  29.939  54.584  1.00  0.00    -0.354 OA
HETATM   36  C   UNL     1       4.145  30.297  54.425  1.00  0.00     0.210 C 
ENDBRANCH  30  35
BRANCH  32  37
HETATM   37  O   UNL     1       4.640  26.269  51.470  1.00  0.00    -0.356 OA
HETATM   38  C   UNL     1       4.963  26.505  50.107  1.00  0.00     0.210 C 
ENDBRANCH  32  37
ENDBRANCH   2  29
TORSDOF 11
ENDMDL
MODEL 3
REMARK VINA RESULT:      -7.1      3.128      7.402
REMARK  11 active torsions:
REMARK  status: ('A' for Active; 'I' for Inactive)
REMARK    1  A    between atoms: C_2  and  N_3 
REMARK    2  A    between atoms: N_3  and  C_5 
REMARK    3  A    between atoms: N_3  and  C_34 
REMARK    4  A    between atoms: C_5  and  C_6 
REMARK    5  A    between atoms: C_6  and  C_7 
REMARK    6  A    between atoms: C_7  and  N_8 
REMARK       I    between atoms: N_8  and  C_9 
REMARK    7  A    between atoms: C_9  and  C_10 
REMARK    8  A    between atoms: C_10  and  O_11 
REMARK    9  A    between atoms: N_12  and  C_13 
REMARK   10  A    between atoms: C_14  and  O_15 
REMARK   11  A    between atoms: C_18  and  O_19 
ROOT
HETATM    1  C   UNL     1       6.379  27.447  56.365  1.00  0.00     0.256 C 
HETATM    2  N   UNL     1       6.582  26.972  54.991  1.00  0.00    -0.251 N 
HETATM    3  C   UNL     1       6.694  27.868  53.942  1.00  0.00     0.330 C 
HETATM    4  O   UNL     1       7.164  27.615  52.833  1.00  0.00    -0.246 OA
HETATM    5  N   UNL     1       6.202  29.127  54.151  1.00  0.00    -0.308 N 
HETATM    6  C   UNL     1       5.530  29.537  55.298  1.00  0.00     0.048 A 
HETATM    7  C   UNL     1       5.546  28.712  56.417  1.00  0.00     0.035 A 
HETATM    8  C   UNL     1       4.849  30.755  55.308  1.00  0.00     0.031 A 
HETATM    9  C   UNL     1       4.164  31.153  56.458  1.00  0.00     0.021 A 
HETATM   10  C   UNL     1       4.175  30.337  57.587  1.00  0.00     0.011 A 
HETATM   11 BR   UNL     1       3.263  30.882  59.149  1.00  0.00    -0.051 Br
HETATM   12  C   UNL     1       4.865  29.126  57.575  1.00  0.00     0.034 A 
HETATM   13  H   UNL     1       6.183  29.707  53.322  1.00  0.00     0.170 HD
ENDROOT
BRANCH   1  14
HETATM   14  C   UNL     1       7.771  27.753  57.081  1.00  0.00     0.279 C 
HETATM   15  N   UNL     1       8.344  28.998  56.846  1.00  0.00    -0.356 N 
HETATM   16  H   UNL     1       8.176  29.358  55.908  1.00  0.00     0.162 HD
HETATM   17  O   UNL     1       8.264  26.967  57.895  1.00  0.00    -0.268 OA
BRANCH  15  18
HETATM   18  C   UNL     1       9.591  29.356  57.487  1.00  0.00     0.124 C 
BRANCH  18  19
HETATM   19  C   UNL     1       9.413  30.549  58.426  1.00  0.00     0.047 C 
BRANCH  19  20
HETATM   20  C   UNL     1       7.951  30.664  58.849  1.00  0.00     0.236 C 
BRANCH  20  21
HETATM   21  N   UNL     1       7.764  30.856  60.348  1.00  0.00    -0.072 N 
HETATM   22  H   UNL     1       7.104  30.118  60.632  1.00  0.00     0.279 HD
BRANCH  21  23
HETATM   23  C   UNL     1       7.093  32.161  60.752  1.00  0.00     0.230 C 
HETATM   24  C   UNL     1       6.135  31.958  61.912  1.00  0.00     0.034 C 
ENDBRANCH  21  23
BRANCH  21  25
HETATM   25  C   UNL     1       9.006  30.618  61.191  1.00  0.00     0.230 C 
HETATM   26  C   UNL     1       9.664  31.925  61.596  1.00  0.00     0.034 C 
ENDBRANCH  21  25
ENDBRANCH  20  21
ENDBRANCH  19  20
ENDBRANCH  18  19
ENDBRANCH  15  18
ENDBRANCH   1  14
BRANCH   1  27
HETATM   27  O   UNL     1       5.655  26.470  57.115  1.00  0.00    -0.359 OA
HETATM   28  H   UNL     1       5.003  26.964  57.642  1.00  0.00     0.213 HD
ENDBRANCH   1  27
BRANCH   2  29
HETATM   29  C   UNL     1       6.943  25.608  54.791  1.00  0.00     0.076 A 
HETATM   30  C   UNL     1       6.094  24.681  54.162  1.00  0.00     0.098 A 
HETATM   31  C   UNL     1       6.497  23.342  54.022  1.00  0.00     0.075 A 
HETATM   32  C   UNL     1       7.719  22.915  54.547  1.00  0.00     0.070 A 
HETATM   33  C   UNL     1       8.553  23.834  55.182  1.00  0.00     0.039 A 
HETATM   34  C   UNL     1       8.170  25.170  55.304  1.00  0.00     0.035 A 
BRANCH  30  35
HETATM   35  O   UNL     1       4.925  25.149  53.603  1.00  0.00    -0.354 OA
HETATM   36  C   UNL     1       4.900  25.015  52.181  1.00  0.00     0.210 C 
ENDBRANCH  30  35
BRANCH  32  37
HETATM   37  O   UNL     1       8.222  21.645  54.492  1.00  0.00    -0.356 OA
HETATM   38  C   UNL     1       7.886  20.861  53.355  1.00  0.00     0.210 C 
ENDBRANCH  32  37
ENDBRANCH   2  29
TORSDOF 11
ENDMDL
MODEL 4
REMARK VINA RESULT:      -7.0      3.706      7.454
REMARK  11 active torsions:
REMARK  status: ('A' for Active; 'I' for Inactive)
REMARK    1  A    between atoms: C_2  and  N_3 
REMARK    2  A    between atoms: N_3  and  C_5 
REMARK    3  A    between atoms: N_3  and  C_34 
REMARK    4  A    between atoms: C_5  and  C_6 
REMARK    5  A    between atoms: C_6  and  C_7 
REMARK    6  A    between atoms: C_7  and  N_8 
REMARK       I    between atoms: N_8  and  C_9 
REMARK    7  A    between atoms: C_9  and  C_10 
REMARK    8  A    between atoms: C_10  and  O_11 
REMARK    9  A    between atoms: N_12  and  C_13 
REMARK   10  A    between atoms: C_14  and  O_15 
REMARK   11  A    between atoms: C_18  and  O_19 
ROOT
HETATM    1  C   UNL     1       3.426  29.289  51.434  1.00  0.00     0.256 C 
HETATM    2  N   UNL     1       3.329  29.831  50.074  1.00  0.00    -0.251 N 
HETATM    3  C   UNL     1       4.046  30.957  49.708  1.00  0.00     0.330 C 
HETATM    4  O   UNL     1       4.283  31.309  48.553  1.00  0.00    -0.246 OA
HETATM    5  N   UNL     1       4.489  31.763  50.721  1.00  0.00    -0.308 N 
HETATM    6  C   UNL     1       4.199  31.576  52.069  1.00  0.00     0.048 A 
HETATM    7  C   UNL     1       3.623  30.377  52.472  1.00  0.00     0.035 A 
HETATM    8  C   UNL     1       4.481  32.587  52.989  1.00  0.00     0.031 A 
HETATM    9  C   UNL     1       4.175  32.398  54.337  1.00  0.00     0.021 A 
HETATM   10  C   UNL     1       3.600  31.199  54.755  1.00  0.00     0.011 A 
HETATM   11 BR   UNL     1       3.200  30.936  56.582  1.00  0.00    -0.051 Br
HETATM   12  C   UNL     1       3.329  30.189  53.834  1.00  0.00     0.034 A 
HETATM   13  H   UNL     1       4.890  32.638  50.409  1.00  0.00     0.170 HD
ENDROOT
BRANCH   1  14
HETATM   14  C   UNL     1       4.647  28.270  51.564  1.00  0.00     0.279 C 
HETATM   15  N   UNL     1       4.355  26.915  51.462  1.00  0.00    -0.356 N 
HETATM   16  H   UNL     1       3.448  26.658  51.849  1.00  0.00     0.162 HD
HETATM   17  O   UNL     1       5.813  28.668  51.641  1.00  0.00    -0.268 OA
BRANCH  15  18
HETATM   18  C   UNL     1       5.417  25.935  51.539  1.00  0.00     0.124 C 
BRANCH  18  19
HETATM   19  C   UNL     1       5.176  24.939  52.672  1.00  0.00     0.047 C 
BRANCH  19  20
HETATM   20  C   UNL     1       5.587  25.558  54.005  1.00  0.00     0.236 C 
BRANCH  20  21
HETATM   21  N   UNL     1       6.242  24.569  54.958  1.00  0.00    -0.072 N 
HETATM   22  H   UNL     1       5.573  23.789  55.038  1.00  0.00     0.279 HD
BRANCH  21  23
HETATM   23  C   UNL     1       6.428  25.073  56.383  1.00  0.00     0.230 C 
HETATM   24  C   UNL     1       5.095  25.330  57.061  1.00  0.00     0.034 C 
ENDBRANCH  21  23
BRANCH  21  25
HETATM   25  C   UNL     1       7.527  23.933  54.452  1.00  0.00     0.230 C 
HETATM   26  C   UNL     1       7.678  22.507  54.949  1.00  0.00     0.034 C 
ENDBRANCH  21  25
ENDBRANCH  20  21
ENDBRANCH  19  20
ENDBRANCH  18  19
ENDBRANCH  15  18
ENDBRANCH   1  14
BRANCH   1  27
HETATM   27  O   UNL     1       2.208  28.629  51.784  1.00  0.00    -0.359 OA
HETATM   28  H   UNL     1       2.267  28.445  52.737  1.00  0.00     0.213 HD
ENDBRANCH   1  27
BRANCH   2  29
HETATM   29  C   UNL     1       2.718  29.030  49.066  1.00  0.00     0.076 A 
HETATM   30  C   UNL     1       3.446  28.149  48.249  1.00  0.00     0.098 A 
HETATM   31  C   UNL     1       2.788  27.409  47.252  1.00  0.00     0.075 A 
HETATM   32  C   UNL     1       1.418  27.579  47.037  1.00  0.00     0.070 A 
HETATM   33  C   UNL     1       0.701  28.464  47.841  1.00  0.00     0.039 A 
HETATM   34  C   UNL     1       1.344  29.184  48.848  1.00  0.00     0.035 A 
BRANCH  30  35
HETATM   35  O   UNL     1       4.782  27.962  48.529  1.00  0.00    -0.354 OA
HETATM   36  C   UNL     1       5.573  27.779  47.353  1.00  0.00     0.210 C 
ENDBRANCH  30  35
BRANCH  32  37
HETATM   37  O   UNL     1       0.663  26.936  46.096  1.00  0.00    -0.356 OA
HETATM   38  C   UNL     1      -0.419  27.658  45.525  1.00  0.00     0.210 C 
ENDBRANCH  32  37
ENDBRANCH   2  29
TORSDOF 11
ENDMDL
MODEL 5
REMARK VINA RESULT:      -6.9      3.757      7.164
REMARK  11 active torsions:
REMARK  status: ('A' for Active; 'I' for Inactive)
REMARK    1  A    between atoms: C_2  and  N_3 
REMARK    2  A    between atoms: N_3  and  C_5 
REMARK    3  A    between atoms: N_3  and  C_34 
REMARK    4  A    between atoms: C_5  and  C_6 
REMARK    5  A    between atoms: C_6  and  C_7 
REMARK    6  A    between atoms: C_7  and  N_8 
REMARK       I    between atoms: N_8  and  C_9 
REMARK    7  A    between atoms: C_9  and  C_10 
REMARK    8  A    between atoms: C_10  and  O_11 
REMARK    9  A    between atoms: N_12  and  C_13 
REMARK   10  A    between atoms: C_14  and  O_15 
REMARK   11  A    between atoms: C_18  and  O_19 
ROOT
HETATM    1  C   UNL     1       3.560  30.146  51.714  1.00  0.00     0.256 C 
HETATM    2  N   UNL     1       4.345  30.116  50.474  1.00  0.00    -0.251 N 
HETATM    3  C   UNL     1       5.483  30.894  50.338  1.00  0.00     0.330 C 
HETATM    4  O   UNL     1       6.368  30.725  49.500  1.00  0.00    -0.246 OA
HETATM    5  N   UNL     1       5.604  31.962  51.184  1.00  0.00    -0.308 N 
HETATM    6  C   UNL     1       4.637  32.364  52.099  1.00  0.00     0.048 A 
HETATM    7  C   UNL     1       3.569  31.515  52.365  1.00  0.00     0.035 A 
HETATM    8  C   UNL     1       4.747  33.605  52.729  1.00  0.00     0.031 A 
HETATM    9  C   UNL     1       3.765  34.008  53.636  1.00  0.00     0.021 A 
HETATM   10  C   UNL     1       2.691  33.164  53.913  1.00  0.00     0.011 A 
HETATM   11 BR   UNL     1       1.371  33.701  55.153  1.00  0.00    -0.051 Br
HETATM   12  C   UNL     1       2.591  31.922  53.289  1.00  0.00     0.034 A 
HETATM   13  H   UNL     1       6.377  32.577  50.965  1.00  0.00     0.170 HD
ENDROOT
BRANCH   1  14
HETATM   14  C   UNL     1       4.122  29.099  52.779  1.00  0.00     0.279 C 
HETATM   15  N   UNL     1       5.341  29.397  53.378  1.00  0.00    -0.356 N 
HETATM   16  H   UNL     1       5.994  29.884  52.766  1.00  0.00     0.162 HD
HETATM   17  O   UNL     1       3.456  28.124  53.138  1.00  0.00    -0.268 OA
BRANCH  15  18
HETATM   18  C   UNL     1       5.896  28.508  54.376  1.00  0.00     0.124 C 
BRANCH  18  19
HETATM   19  C   UNL     1       7.070  27.706  53.817  1.00  0.00     0.047 C 
BRANCH  19  20
HETATM   20  C   UNL     1       7.172  26.364  54.536  1.00  0.00     0.236 C 
BRANCH  20  21
HETATM   21  N   UNL     1       6.876  25.170  53.638  1.00  0.00    -0.072 N 
HETATM   22  H   UNL     1       6.146  24.637  54.133  1.00  0.00     0.279 HD
BRANCH  21  23
HETATM   23  C   UNL     1       8.029  24.191  53.466  1.00  0.00     0.230 C 
HETATM   24  C   UNL     1       7.678  22.817  54.007  1.00  0.00     0.034 C 
ENDBRANCH  21  23
BRANCH  21  25
HETATM   25  C   UNL     1       6.266  25.509  52.287  1.00  0.00     0.230 C 
HETATM   26  C   UNL     1       4.869  24.932  52.144  1.00  0.00     0.034 C 
ENDBRANCH  21  25
ENDBRANCH  20  21
ENDBRANCH  19  20
ENDBRANCH  18  19
ENDBRANCH  15  18
ENDBRANCH   1  14
BRANCH   1  27
HETATM   27  O   UNL     1       2.191  29.855  51.429  1.00  0.00    -0.359 OA
HETATM   28  H   UNL     1       2.199  29.105  50.809  1.00  0.00     0.213 HD
ENDBRANCH   1  27
BRANCH   2  29
HETATM   29  C   UNL     1       4.089  29.077  49.533  1.00  0.00     0.076 A 
HETATM   30  C   UNL     1       3.219  29.238  48.441  1.00  0.00     0.098 A 
HETATM   31  C   UNL     1       2.985  28.164  47.565  1.00  0.00     0.075 A 
HETATM   32  C   UNL     1       3.578  26.920  47.801  1.00  0.00     0.070 A 
HETATM   33  C   UNL     1       4.429  26.761  48.892  1.00  0.00     0.039 A 
HETATM   34  C   UNL     1       4.684  27.829  49.753  1.00  0.00     0.035 A 
BRANCH  30  35
HETATM   35  O   UNL     1       2.702  30.492  48.206  1.00  0.00    -0.354 OA
HETATM   36  C   UNL     1       3.432  31.212  47.209  1.00  0.00     0.210 C 
ENDBRANCH  30  35
BRANCH  32  37
HETATM   37  O   UNL     1       3.423  25.796  47.039  1.00  0.00    -0.356 OA
HETATM   38  C   UNL     1       2.990  24.616  47.701  1.00  0.00     0.210 C 
ENDBRANCH  32  37
ENDBRANCH   2  29
TORSDOF 11
ENDMDL
MODEL 6
REMARK VINA RESULT:      -6.8      3.279      6.561
REMARK  11 active torsions:
REMARK  status: ('A' for Active; 'I' for Inactive)
REMARK    1  A    between atoms: C_2  and  N_3 
REMARK    2  A    between atoms: N_3  and  C_5 
REMARK    3  A    between atoms: N_3  and  C_34 
REMARK    4  A    between atoms: C_5  and  C_6 
REMARK    5  A    between atoms: C_6  and  C_7 
REMARK    6  A    between atoms: C_7  and  N_8 
REMARK       I    between atoms: N_8  and  C_9 
REMARK    7  A    between atoms: C_9  and  C_10 
REMARK    8  A    between atoms: C_10  and  O_11 
REMARK    9  A    between atoms: N_12  and  C_13 
REMARK   10  A    between atoms: C_14  and  O_15 
REMARK   11  A    between atoms: C_18  and  O_19 
ROOT
HETATM    1  C   UNL     1       5.609  28.395  52.516  1.00  0.00     0.256 C 
HETATM    2  N   UNL     1       5.060  28.769  51.208  1.00  0.00    -0.251 N 
HETATM    3  C   UNL     1       4.216  27.910  50.523  1.00  0.00     0.330 C 
HETATM    4  O   UNL     1       3.468  28.229  49.600  1.00  0.00    -0.246 OA
HETATM    5  N   UNL     1       4.254  26.591  50.884  1.00  0.00    -0.308 N 
HETATM    6  C   UNL     1       5.130  26.048  51.817  1.00  0.00     0.048 A 
HETATM    7  C   UNL     1       5.868  26.906  52.625  1.00  0.00     0.035 A 
HETATM    8  C   UNL     1       5.262  24.663  51.926  1.00  0.00     0.031 A 
HETATM    9  C   UNL     1       6.153  24.124  52.855  1.00  0.00     0.021 A 
HETATM   10  C   UNL     1       6.896  24.974  53.673  1.00  0.00     0.011 A 
HETATM   11 BR   UNL     1       8.091  24.247  54.942  1.00  0.00    -0.051 Br
HETATM   12  C   UNL     1       6.754  26.356  53.568  1.00  0.00     0.034 A 
HETATM   13  H   UNL     1       3.724  25.980  50.275  1.00  0.00     0.170 HD
ENDROOT
BRANCH   1  14
HETATM   14  C   UNL     1       4.617  28.802  53.697  1.00  0.00     0.279 C 
HETATM   15  N   UNL     1       5.018  29.838  54.533  1.00  0.00    -0.356 N 
HETATM   16  H   UNL     1       6.023  29.874  54.693  1.00  0.00     0.162 HD
HETATM   17  O   UNL     1       3.495  28.298  53.799  1.00  0.00    -0.268 OA
BRANCH  15  18
HETATM   18  C   UNL     1       4.154  30.281  55.606  1.00  0.00     0.124 C 
BRANCH  18  19
HETATM   19  C   UNL     1       4.693  29.851  56.970  1.00  0.00     0.047 C 
BRANCH  19  20
HETATM   20  C   UNL     1       6.036  29.147  56.799  1.00  0.00     0.236 C 
BRANCH  20  21
HETATM   21  N   UNL     1       6.048  27.722  57.333  1.00  0.00    -0.072 N 
HETATM   22  H   UNL     1       5.780  27.804  58.325  1.00  0.00     0.279 HD
BRANCH  21  23
HETATM   23  C   UNL     1       7.414  27.051  57.351  1.00  0.00     0.230 C 
HETATM   24  C   UNL     1       8.522  28.035  57.020  1.00  0.00     0.034 C 
ENDBRANCH  21  23
BRANCH  21  25
HETATM   25  C   UNL     1       5.012  26.792  56.723  1.00  0.00     0.230 C 
HETATM   26  C   UNL     1       5.235  25.352  57.148  1.00  0.00     0.034 C 
ENDBRANCH  21  25
ENDBRANCH  20  21
ENDBRANCH  19  20
ENDBRANCH  18  19
ENDBRANCH  15  18
ENDBRANCH   1  14
BRANCH   1  27
HETATM   27  O   UNL     1       6.875  29.028  52.710  1.00  0.00    -0.359 OA
HETATM   28  H   UNL     1       6.937  29.720  52.029  1.00  0.00     0.213 HD
ENDBRANCH   1  27
BRANCH   2  29
HETATM   29  C   UNL     1       5.174  30.125  50.785  1.00  0.00     0.076 A 
HETATM   30  C   UNL     1       4.254  31.119  51.160  1.00  0.00     0.098 A 
HETATM   31  C   UNL     1       4.405  32.432  50.684  1.00  0.00     0.075 A 
HETATM   32  C   UNL     1       5.441  32.746  49.800  1.00  0.00     0.070 A 
HETATM   33  C   UNL     1       6.344  31.755  49.420  1.00  0.00     0.039 A 
HETATM   34  C   UNL     1       6.213  30.454  49.907  1.00  0.00     0.035 A 
BRANCH  30  35
HETATM   35  O   UNL     1       3.283  30.787  52.079  1.00  0.00    -0.354 OA
HETATM   36  C   UNL     1       2.666  31.934  52.669  1.00  0.00     0.210 C 
ENDBRANCH  30  35
BRANCH  32  37
HETATM   37  O   UNL     1       5.692  33.974  49.255  1.00  0.00    -0.356 OA
HETATM   38  C   UNL     1       5.479  34.121  47.857  1.00  0.00     0.210 C 
ENDBRANCH  32  37
ENDBRANCH   2  29
TORSDOF 11
ENDMDL
MODEL 7
REMARK VINA RESULT:      -6.7      6.253     10.411
REMARK  11 active torsions:
REMARK  status: ('A' for Active; 'I' for Inactive)
REMARK    1  A    between atoms: C_2  and  N_3 
REMARK    2  A    between atoms: N_3  and  C_5 
REMARK    3  A    between atoms: N_3  and  C_34 
REMARK    4  A    between atoms: C_5  and  C_6 
REMARK    5  A    between atoms: C_6  and  C_7 
REMARK    6  A    between atoms: C_7  and  N_8 
REMARK       I    between atoms: N_8  and  C_9 
REMARK    7  A    between atoms: C_9  and  C_10 
REMARK    8  A    between atoms: C_10  and  O_11 
REMARK    9  A    between atoms: N_12  and  C_13 
REMARK   10  A    between atoms: C_14  and  O_15 
REMARK   11  A    between atoms: C_18  and  O_19 
ROOT
HETATM    1  C   UNL     1       4.648  32.256  59.334  1.00  0.00     0.256 C 
HETATM    2  N   UNL     1       4.739  32.406  57.877  1.00  0.00    -0.251 N 
HETATM    3  C   UNL     1       4.843  33.661  57.300  1.00  0.00     0.330 C 
HETATM    4  O   UNL     1       5.229  33.890  56.154  1.00  0.00    -0.246 OA
HETATM    5  N   UNL     1       4.443  34.725  58.061  1.00  0.00    -0.308 N 
HETATM    6  C   UNL     1       3.866  34.627  59.323  1.00  0.00     0.048 A 
HETATM    7  C   UNL     1       3.899  33.403  59.983  1.00  0.00     0.035 A 
HETATM    8  C   UNL     1       3.264  35.744  59.902  1.00  0.00     0.031 A 
HETATM    9  C   UNL     1       2.675  35.635  61.163  1.00  0.00     0.021 A 
HETATM   10  C   UNL     1       2.703  34.415  61.836  1.00  0.00     0.011 A 
HETATM   11 BR   UNL     1       1.921  34.269  63.549  1.00  0.00    -0.051 Br
HETATM   12  C   UNL     1       3.315  33.304  61.258  1.00  0.00     0.034 A 
HETATM   13  H   UNL     1       4.410  35.603  57.560  1.00  0.00     0.170 HD
ENDROOT
BRANCH   1  14
HETATM   14  C   UNL     1       6.096  32.186  59.999  1.00  0.00     0.279 C 
HETATM   15  N   UNL     1       6.197  31.554  61.233  1.00  0.00    -0.356 N 
HETATM   16  H   UNL     1       5.381  31.680  61.829  1.00  0.00     0.162 HD
HETATM   17  O   UNL     1       7.101  32.576  59.398  1.00  0.00    -0.268 OA
BRANCH  15  18
HETATM   18  C   UNL     1       7.485  31.426  61.880  1.00  0.00     0.124 C 
BRANCH  18  19
HETATM   19  C   UNL     1       7.865  32.705  62.624  1.00  0.00     0.047 C 
BRANCH  19  20
HETATM   20  C   UNL     1       7.096  32.789  63.940  1.00  0.00     0.236 C 
BRANCH  20  21
HETATM   21  N   UNL     1       6.017  33.863  63.946  1.00  0.00    -0.072 N 
HETATM   22  H   UNL     1       5.139  33.363  63.745  1.00  0.00     0.279 HD
BRANCH  21  23
HETATM   23  C   UNL     1       6.138  34.904  62.842  1.00  0.00     0.230 C 
HETATM   24  C   UNL     1       5.665  36.269  63.309  1.00  0.00     0.034 C 
ENDBRANCH  21  23
BRANCH  21  25
HETATM   25  C   UNL     1       5.785  34.541  65.287  1.00  0.00     0.230 C 
HETATM   26  C   UNL     1       4.695  33.845  66.083  1.00  0.00     0.034 C 
ENDBRANCH  21  25
ENDBRANCH  20  21
ENDBRANCH  19  20
ENDBRANCH  18  19
ENDBRANCH  15  18
ENDBRANCH   1  14
BRANCH   1  27
HETATM   27  O   UNL     1       3.912  31.075  59.656  1.00  0.00    -0.359 OA
HETATM   28  H   UNL     1       4.108  30.883  60.590  1.00  0.00     0.213 HD
ENDBRANCH   1  27
BRANCH   2  29
HETATM   29  C   UNL     1       5.002  31.248  57.090  1.00  0.00     0.076 A 
HETATM   30  C   UNL     1       3.984  30.489  56.488  1.00  0.00     0.098 A 
HETATM   31  C   UNL     1       4.309  29.338  55.750  1.00  0.00     0.075 A 
HETATM   32  C   UNL     1       5.637  28.918  55.648  1.00  0.00     0.070 A 
HETATM   33  C   UNL     1       6.643  29.666  56.257  1.00  0.00     0.039 A 
HETATM   34  C   UNL     1       6.331  30.822  56.973  1.00  0.00     0.035 A 
BRANCH  30  35
HETATM   35  O   UNL     1       2.694  30.967  56.559  1.00  0.00    -0.354 OA
HETATM   36  C   UNL     1       2.309  31.689  55.387  1.00  0.00     0.210 C 
ENDBRANCH  30  35
BRANCH  32  37
HETATM   37  O   UNL     1       6.085  27.815  54.975  1.00  0.00    -0.356 OA
HETATM   38  C   UNL     1       6.107  26.584  55.683  1.00  0.00     0.210 C 
ENDBRANCH  32  37
ENDBRANCH   2  29
TORSDOF 11
ENDMDL
MODEL 8
REMARK VINA RESULT:      -6.7      6.493     10.099
REMARK  11 active torsions:
REMARK  status: ('A' for Active; 'I' for Inactive)
REMARK    1  A    between atoms: C_2  and  N_3 
REMARK    2  A    between atoms: N_3  and  C_5 
REMARK    3  A    between atoms: N_3  and  C_34 
REMARK    4  A    between atoms: C_5  and  C_6 
REMARK    5  A    between atoms: C_6  and  C_7 
REMARK    6  A    between atoms: C_7  and  N_8 
REMARK       I    between atoms: N_8  and  C_9 
REMARK    7  A    between atoms: C_9  and  C_10 
REMARK    8  A    between atoms: C_10  and  O_11 
REMARK    9  A    between atoms: N_12  and  C_13 
REMARK   10  A    between atoms: C_14  and  O_15 
REMARK   11  A    between atoms: C_18  and  O_19 
ROOT
HETATM    1  C   UNL     1       4.713  32.027  57.948  1.00  0.00     0.256 C 
HETATM    2  N   UNL     1       3.860  32.906  57.141  1.00  0.00    -0.251 N 
HETATM    3  C   UNL     1       2.868  32.380  56.330  1.00  0.00     0.330 C 
HETATM    4  O   UNL     1       1.917  33.007  55.865  1.00  0.00    -0.246 OA
HETATM    5  N   UNL     1       2.986  31.060  55.989  1.00  0.00    -0.308 N 
HETATM    6  C   UNL     1       4.063  30.246  56.325  1.00  0.00     0.048 A 
HETATM    7  C   UNL     1       4.982  30.701  57.264  1.00  0.00     0.035 A 
HETATM    8  C   UNL     1       4.208  28.998  55.718  1.00  0.00     0.031 A 
HETATM    9  C   UNL     1       5.298  28.192  56.050  1.00  0.00     0.021 A 
HETATM   10  C   UNL     1       6.225  28.636  56.991  1.00  0.00     0.011 A 
HETATM   11 BR   UNL     1       7.692  27.539  57.454  1.00  0.00    -0.051 Br
HETATM   12  C   UNL     1       6.070  29.878  57.603  1.00  0.00     0.034 A 
HETATM   13  H   UNL     1       2.319  30.751  55.294  1.00  0.00     0.170 HD
ENDROOT
BRANCH   1  14
HETATM   14  C   UNL     1       4.045  31.714  59.363  1.00  0.00     0.279 C 
HETATM   15  N   UNL     1       4.690  32.209  60.491  1.00  0.00    -0.356 N 
HETATM   16  H   UNL     1       5.705  32.224  60.412  1.00  0.00     0.162 HD
HETATM   17  O   UNL     1       2.948  31.154  59.449  1.00  0.00    -0.268 OA
BRANCH  15  18
HETATM   18  C   UNL     1       4.125  31.990  61.805  1.00  0.00     0.124 C 
BRANCH  18  19
HETATM   19  C   UNL     1       5.214  31.890  62.872  1.00  0.00     0.047 C 
BRANCH  19  20
HETATM   20  C   UNL     1       5.443  33.257  63.511  1.00  0.00     0.236 C 
BRANCH  20  21
HETATM   21  N   UNL     1       4.568  33.511  64.731  1.00  0.00    -0.072 N 
HETATM   22  H   UNL     1       4.108  32.609  64.924  1.00  0.00     0.279 HD
BRANCH  21  23
HETATM   23  C   UNL     1       3.428  34.495  64.513  1.00  0.00     0.230 C 
HETATM   24  C   UNL     1       3.924  35.930  64.508  1.00  0.00     0.034 C 
ENDBRANCH  21  23
BRANCH  21  25
HETATM   25  C   UNL     1       5.320  33.849  66.009  1.00  0.00     0.230 C 
HETATM   26  C   UNL     1       6.822  33.828  65.795  1.00  0.00     0.034 C 
ENDBRANCH  21  25
ENDBRANCH  20  21
ENDBRANCH  19  20
ENDBRANCH  18  19
ENDBRANCH  15  18
ENDBRANCH   1  14
BRANCH   1  27
HETATM   27  O   UNL     1       5.991  32.634  58.142  1.00  0.00    -0.359 OA
HETATM   28  H   UNL     1       5.815  33.524  58.494  1.00  0.00     0.213 HD
ENDBRANCH   1  27
BRANCH   2  29
HETATM   29  C   UNL     1       3.874  34.304  57.414  1.00  0.00     0.076 A 
HETATM   30  C   UNL     1       4.711  35.204  56.732  1.00  0.00     0.098 A 
HETATM   31  C   UNL     1       4.699  36.568  57.070  1.00  0.00     0.075 A 
HETATM   32  C   UNL     1       3.893  37.029  58.114  1.00  0.00     0.070 A 
HETATM   33  C   UNL     1       3.075  36.131  58.798  1.00  0.00     0.039 A 
HETATM   34  C   UNL     1       3.064  34.779  58.452  1.00  0.00     0.035 A 
BRANCH  30  35
HETATM   35  O   UNL     1       5.445  34.726  55.670  1.00  0.00    -0.354 OA
HETATM   36  C   UNL     1       5.838  35.757  54.761  1.00  0.00     0.210 C 
ENDBRANCH  30  35
BRANCH  32  37
HETATM   37  O   UNL     1       3.799  38.320  58.551  1.00  0.00    -0.356 OA
HETATM   38  C   UNL     1       3.585  39.326  57.570  1.00  0.00     0.210 C 
ENDBRANCH  32  37
ENDBRANCH   2  29
TORSDOF 11
ENDMDL
MODEL 9
REMARK VINA RESULT:      -6.6      3.555      5.099
REMARK  11 active torsions:
REMARK  status: ('A' for Active; 'I' for Inactive)
REMARK    1  A    between atoms: C_2  and  N_3 
REMARK    2  A    between atoms: N_3  and  C_5 
REMARK    3  A    between atoms: N_3  and  C_34 
REMARK    4  A    between atoms: C_5  and  C_6 
REMARK    5  A    between atoms: C_6  and  C_7 
REMARK    6  A    between atoms: C_7  and  N_8 
REMARK       I    between atoms: N_8  and  C_9 
REMARK    7  A    between atoms: C_9  and  C_10 
REMARK    8  A    between atoms: C_10  and  O_11 
REMARK    9  A    between atoms: N_12  and  C_13 
REMARK   10  A    between atoms: C_14  and  O_15 
REMARK   11  A    between atoms: C_18  and  O_19 
ROOT
HETATM    1  C   UNL     1       4.365  30.321  51.522  1.00  0.00     0.256 C 
HETATM    2  N   UNL     1       3.712  31.610  51.777  1.00  0.00    -0.251 N 
HETATM    3  C   UNL     1       2.340  31.746  51.650  1.00  0.00     0.330 C 
HETATM    4  O   UNL     1       1.666  32.659  52.125  1.00  0.00    -0.246 OA
HETATM    5  N   UNL     1       1.694  30.804  50.898  1.00  0.00    -0.308 N 
HETATM    6  C   UNL     1       2.323  29.784  50.191  1.00  0.00     0.048 A 
HETATM    7  C   UNL     1       3.669  29.532  50.430  1.00  0.00     0.035 A 
HETATM    8  C   UNL     1       1.604  29.038  49.257  1.00  0.00     0.031 A 
HETATM    9  C   UNL     1       2.244  28.025  48.542  1.00  0.00     0.021 A 
HETATM   10  C   UNL     1       3.593  27.761  48.774  1.00  0.00     0.011 A 
HETATM   11 BR   UNL     1       4.457  26.379  47.819  1.00  0.00    -0.051 Br
HETATM   12  C   UNL     1       4.305  28.502  49.716  1.00  0.00     0.034 A 
HETATM   13  H   UNL     1       0.720  31.013  50.721  1.00  0.00     0.170 HD
ENDROOT
BRANCH   1  14
HETATM   14  C   UNL     1       4.387  29.414  52.835  1.00  0.00     0.279 C 
HETATM   15  N   UNL     1       5.582  29.351  53.541  1.00  0.00    -0.356 N 
HETATM   16  H   UNL     1       6.412  29.394  52.952  1.00  0.00     0.162 HD
HETATM   17  O   UNL     1       3.360  28.882  53.268  1.00  0.00    -0.268 OA
BRANCH  15  18
HETATM   18  C   UNL     1       5.666  28.573  54.758  1.00  0.00     0.124 C 
BRANCH  18  19
HETATM   19  C   UNL     1       6.994  27.821  54.850  1.00  0.00     0.047 C 
BRANCH  19  20
HETATM   20  C   UNL     1       6.979  26.623  53.904  1.00  0.00     0.236 C 
BRANCH  20  21
HETATM   21  N   UNL     1       6.046  25.507  54.351  1.00  0.00    -0.072 N 
HETATM   22  H   UNL     1       5.518  25.900  55.144  1.00  0.00     0.279 HD
BRANCH  21  23
HETATM   23  C   UNL     1       6.740  24.274  54.914  1.00  0.00     0.230 C 
HETATM   24  C   UNL     1       7.361  23.433  53.813  1.00  0.00     0.034 C 
ENDBRANCH  21  23
BRANCH  21  25
HETATM   25  C   UNL     1       4.989  25.100  53.338  1.00  0.00     0.230 C 
HETATM   26  C   UNL     1       5.181  25.815  52.013  1.00  0.00     0.034 C 
ENDBRANCH  21  25
ENDBRANCH  20  21
ENDBRANCH  19  20
ENDBRANCH  18  19
ENDBRANCH  15  18
ENDBRANCH   1  14
BRANCH   1  27
HETATM   27  O   UNL     1       5.700  30.534  51.062  1.00  0.00    -0.359 OA
HETATM   28  H   UNL     1       6.204  30.845  51.834  1.00  0.00     0.213 HD
ENDBRANCH   1  27
BRANCH   2  29
HETATM   29  C   UNL     1       4.462  32.634  52.426  1.00  0.00     0.076 A 
HETATM   30  C   UNL     1       4.450  32.820  53.819  1.00  0.00     0.098 A 
HETATM   31  C   UNL     1       5.187  33.868  54.394  1.00  0.00     0.075 A 
HETATM   32  C   UNL     1       5.897  34.758  53.584  1.00  0.00     0.070 A 
HETATM   33  C   UNL     1       5.896  34.579  52.202  1.00  0.00     0.039 A 
HETATM   34  C   UNL     1       5.185  33.526  51.625  1.00  0.00     0.035 A 
BRANCH  30  35
HETATM   35  O   UNL     1       3.789  31.888  54.589  1.00  0.00    -0.354 OA
HETATM   36  C   UNL     1       2.798  32.475  55.435  1.00  0.00     0.210 C 
ENDBRANCH  30  35
BRANCH  32  37
HETATM   37  O   UNL     1       6.640  35.823  54.013  1.00  0.00    -0.356 OA
HETATM   38  C   UNL     1       7.681  36.276  53.158  1.00  0.00     0.210 C 
ENDBRANCH  32  37
ENDBRANCH   2  29
TORSDOF 11
ENDMDL
MODEL 10
REMARK VINA RESULT:      -6.6      5.829      9.136
REMARK  11 active torsions:
REMARK  status: ('A' for Active; 'I' for Inactive)
REMARK    1  A    between atoms: C_2  and  N_3 
REMARK    2  A    between atoms: N_3  and  C_5 
REMARK    3  A    between atoms: N_3  and  C_34 
REMARK    4  A    between atoms: C_5  and  C_6 
REMARK    5  A    between atoms: C_6  and  C_7 
REMARK    6  A    between atoms: C_7  and  N_8 
REMARK       I    between atoms: N_8  and  C_9 
REMARK    7  A    between atoms: C_9  and  C_10 
REMARK    8  A    between atoms: C_10  and  O_11 
REMARK    9  A    between atoms: N_12  and  C_13 
REMARK   10  A    between atoms: C_14  and  O_15 
REMARK   11  A    between atoms: C_18  and  O_19 
ROOT
HETATM    1  C   UNL     1       4.572  32.279  57.658  1.00  0.00     0.256 C 
HETATM    2  N   UNL     1       3.658  33.056  56.813  1.00  0.00    -0.251 N 
HETATM    3  C   UNL     1       2.778  32.421  55.953  1.00  0.00     0.330 C 
HETATM    4  O   UNL     1       1.781  32.933  55.444  1.00  0.00    -0.246 OA
HETATM    5  N   UNL     1       3.071  31.129  55.614  1.00  0.00    -0.308 N 
HETATM    6  C   UNL     1       4.221  30.448  55.999  1.00  0.00     0.048 A 
HETATM    7  C   UNL     1       5.032  31.003  56.983  1.00  0.00     0.035 A 
HETATM    8  C   UNL     1       4.547  29.233  55.396  1.00  0.00     0.031 A 
HETATM    9  C   UNL     1       5.710  28.562  55.777  1.00  0.00     0.021 A 
HETATM   10  C   UNL     1       6.529  29.106  56.764  1.00  0.00     0.011 A 
HETATM   11 BR   UNL     1       8.095  28.191  57.294  1.00  0.00    -0.051 Br
HETATM   12  C   UNL     1       6.195  30.315  57.372  1.00  0.00     0.034 A 
HETATM   13  H   UNL     1       2.481  30.748  54.885  1.00  0.00     0.170 HD
ENDROOT
BRANCH   1  14
HETATM   14  C   UNL     1       3.880  31.875  59.038  1.00  0.00     0.279 C 
HETATM   15  N   UNL     1       4.192  32.644  60.153  1.00  0.00    -0.356 N 
HETATM   16  H   UNL     1       5.150  32.991  60.159  1.00  0.00     0.162 HD
HETATM   17  O   UNL     1       3.021  30.990  59.093  1.00  0.00    -0.268 OA
BRANCH  15  18
HETATM   18  C   UNL     1       3.578  32.354  61.430  1.00  0.00     0.124 C 
BRANCH  18  19
HETATM   19  C   UNL     1       4.628  32.157  62.523  1.00  0.00     0.047 C 
BRANCH  19  20
HETATM   20  C   UNL     1       5.971  32.714  62.059  1.00  0.00     0.236 C 
BRANCH  20  21
HETATM   21  N   UNL     1       7.055  31.653  61.924  1.00  0.00    -0.072 N 
HETATM   22  H   UNL     1       6.584  30.760  62.133  1.00  0.00     0.279 HD
BRANCH  21  23
HETATM   23  C   UNL     1       8.182  31.750  62.943  1.00  0.00     0.230 C 
HETATM   24  C   UNL     1       7.945  32.879  63.929  1.00  0.00     0.034 C 
ENDBRANCH  21  23
BRANCH  21  25
HETATM   25  C   UNL     1       7.622  31.480  60.524  1.00  0.00     0.230 C 
HETATM   26  C   UNL     1       8.940  32.216  60.361  1.00  0.00     0.034 C 
ENDBRANCH  21  25
ENDBRANCH  20  21
ENDBRANCH  19  20
ENDBRANCH  18  19
ENDBRANCH  15  18
ENDBRANCH   1  14
BRANCH   1  27
HETATM   27  O   UNL     1       5.756  33.035  57.917  1.00  0.00    -0.359 OA
HETATM   28  H   UNL     1       5.863  33.635  57.158  1.00  0.00     0.213 HD
ENDBRANCH   1  27
BRANCH   2  29
HETATM   29  C   UNL     1       3.489  34.443  57.091  1.00  0.00     0.076 A 
HETATM   30  C   UNL     1       4.384  35.426  56.635  1.00  0.00     0.098 A 
HETATM   31  C   UNL     1       4.178  36.774  56.970  1.00  0.00     0.075 A 
HETATM   32  C   UNL     1       3.111  37.141  57.795  1.00  0.00     0.070 A 
HETATM   33  C   UNL     1       2.233  36.162  58.257  1.00  0.00     0.039 A 
HETATM   34  C   UNL     1       2.418  34.824  57.909  1.00  0.00     0.035 A 
BRANCH  30  35
HETATM   35  O   UNL     1       5.387  35.036  55.775  1.00  0.00    -0.354 OA
HETATM   36  C   UNL     1       5.877  36.114  54.974  1.00  0.00     0.210 C 
ENDBRANCH  30  35
BRANCH  32  37
HETATM   37  O   UNL     1       2.807  38.409  58.206  1.00  0.00    -0.356 OA
HETATM   38  C   UNL     1       2.119  38.545  59.442  1.00  0.00     0.210 C 
ENDBRANCH  32  37
ENDBRANCH   2  29
TORSDOF 11
ENDMDL
