MODEL 1
REMARK VINA RESULT:      -9.3      0.000      0.000
REMARK  3 active torsions:
REMARK  status: ('A' for Active; 'I' for Inactive)
REMARK    1  A    between atoms: C_2  and  C_3 
REMARK    2  A    between atoms: C_10  and  C_12 
REMARK    3  A    between atoms: C_10  and  O_11 
ROOT
HETATM    1  C   UNL     1       8.957  29.095  57.022  1.00  0.00    -0.058 A 
HETATM    2  C   UNL     1       8.760  27.716  56.849  1.00  0.00     0.020 A 
HETATM    3  C   UNL     1       7.479  27.205  56.993  1.00  0.00     0.018 A 
HETATM    4  C   UNL     1       6.416  28.048  57.325  1.00  0.00     0.045 A 
HETATM    5  N   UNL     1       5.232  27.330  57.400  1.00  0.00    -0.323 N 
HETATM    6  C   UNL     1       5.433  25.979  57.109  1.00  0.00     0.266 A 
HETATM    7  O   UNL     1       4.548  25.137  57.116  1.00  0.00    -0.269 OA
HETATM    8  C   UNL     1       6.972  25.785  56.861  1.00  0.00     0.198 A 
HETATM    9  C   UNL     1       6.577  29.403  57.514  1.00  0.00     0.031 A 
HETATM   10  C   UNL     1       7.863  29.927  57.352  1.00  0.00     0.009 A 
HETATM   11  H   UNL     1       4.320  27.708  57.606  1.00  0.00     0.169 HD
ENDROOT
BRANCH   8  12
HETATM   12  C   UNL     1       7.296  25.310  55.467  1.00  0.00     0.018 A 
HETATM   13  C   UNL     1       7.542  23.967  54.996  1.00  0.00     0.002 A 
HETATM   14  C   UNL     1       7.778  24.039  53.621  1.00  0.00     0.043 A 
HETATM   15  C   UNL     1       7.575  22.691  55.601  1.00  0.00     0.014 A 
HETATM   16  C   UNL     1       8.036  22.913  52.829  1.00  0.00     0.030 A 
HETATM   17  N   UNL     1       7.708  25.363  53.264  1.00  0.00    -0.365 N 
HETATM   18  C   UNL     1       8.054  21.665  53.456  1.00  0.00     0.002 A 
HETATM   19  C   UNL     1       7.828  21.553  54.824  1.00  0.00     0.001 A 
HETATM   20  H   UNL     1       7.853  25.712  52.327  1.00  0.00     0.165 HD
HETATM   21  C   UNL     1       7.416  26.130  54.354  1.00  0.00     0.100 A 
ENDBRANCH   8  12
BRANCH   8  22
HETATM   22  O   UNL     1       7.579  24.982  57.872  1.00  0.00    -0.371 OA
HETATM   23  H   UNL     1       7.612  24.077  57.522  1.00  0.00     0.212 HD
ENDBRANCH   8  22
BRANCH   1  24
HETATM   24  C   UNL     1      10.326  29.692  56.806  1.00  0.00     0.034 C 
HETATM   25  C   UNL     1      10.574  30.875  57.730  1.00  0.00     0.010 C 
ENDBRANCH   1  24
TORSDOF 3
ENDMDL
MODEL 2
REMARK VINA RESULT:      -9.1      2.627      6.244
REMARK  3 active torsions:
REMARK  status: ('A' for Active; 'I' for Inactive)
REMARK    1  A    between atoms: C_2  and  C_3 
REMARK    2  A    between atoms: C_10  and  C_12 
REMARK    3  A    between atoms: C_10  and  O_11 
ROOT
HETATM    1  C   UNL     1       7.117  24.586  53.546  1.00  0.00    -0.058 A 
HETATM    2  C   UNL     1       7.161  25.955  53.851  1.00  0.00     0.020 A 
HETATM    3  C   UNL     1       6.018  26.716  53.657  1.00  0.00     0.018 A 
HETATM    4  C   UNL     1       4.858  26.129  53.146  1.00  0.00     0.045 A 
HETATM    5  N   UNL     1       3.842  27.068  53.051  1.00  0.00    -0.323 N 
HETATM    6  C   UNL     1       4.257  28.321  53.505  1.00  0.00     0.266 A 
HETATM    7  O   UNL     1       3.548  29.316  53.516  1.00  0.00    -0.269 OA
HETATM    8  C   UNL     1       5.772  28.189  53.901  1.00  0.00     0.198 A 
HETATM    9  C   UNL     1       4.785  24.792  52.824  1.00  0.00     0.031 A 
HETATM   10  C   UNL     1       5.928  24.016  53.035  1.00  0.00     0.009 A 
HETATM   11  H   UNL     1       2.901  26.894  52.729  1.00  0.00     0.169 HD
ENDROOT
BRANCH   8  12
HETATM   12  C   UNL     1       6.032  28.462  55.361  1.00  0.00     0.018 A 
HETATM   13  C   UNL     1       7.265  28.840  56.012  1.00  0.00     0.002 A 
HETATM   14  C   UNL     1       6.992  28.997  57.373  1.00  0.00     0.043 A 
HETATM   15  C   UNL     1       8.587  29.076  55.578  1.00  0.00     0.014 A 
HETATM   16  C   UNL     1       7.961  29.381  58.309  1.00  0.00     0.030 A 
HETATM   17  N   UNL     1       5.662  28.706  57.559  1.00  0.00    -0.365 N 
HETATM   18  C   UNL     1       9.257  29.615  57.845  1.00  0.00     0.002 A 
HETATM   19  C   UNL     1       9.569  29.464  56.499  1.00  0.00     0.001 A 
HETATM   20  H   UNL     1       5.191  28.725  58.452  1.00  0.00     0.165 HD
HETATM   21  C   UNL     1       5.078  28.391  56.367  1.00  0.00     0.100 A 
ENDBRANCH   8  12
BRANCH   8  22
HETATM   22  O   UNL     1       6.617  28.948  53.039  1.00  0.00    -0.371 OA
HETATM   23  H   UNL     1       7.100  29.571  53.606  1.00  0.00     0.212 HD
ENDBRANCH   8  22
BRANCH   1  24
HETATM   24  C   UNL     1       8.323  23.717  53.809  1.00  0.00     0.034 C 
HETATM   25  C   UNL     1       8.122  22.304  53.280  1.00  0.00     0.010 C 
ENDBRANCH   1  24
TORSDOF 3
ENDMDL
MODEL 3
REMARK VINA RESULT:      -9.0      2.550      5.452
REMARK  3 active torsions:
REMARK  status: ('A' for Active; 'I' for Inactive)
REMARK    1  A    between atoms: C_2  and  C_3 
REMARK    2  A    between atoms: C_10  and  C_12 
REMARK    3  A    between atoms: C_10  and  O_11 
ROOT
HETATM    1  C   UNL     1       7.973  22.655  54.128  1.00  0.00    -0.058 A 
HETATM    2  C   UNL     1       7.010  23.674  54.212  1.00  0.00     0.020 A 
HETATM    3  C   UNL     1       7.110  24.599  55.240  1.00  0.00     0.018 A 
HETATM    4  C   UNL     1       8.137  24.499  56.182  1.00  0.00     0.045 A 
HETATM    5  N   UNL     1       8.051  25.532  57.103  1.00  0.00    -0.323 N 
HETATM    6  C   UNL     1       6.981  26.383  56.822  1.00  0.00     0.266 A 
HETATM    7  O   UNL     1       6.689  27.363  57.491  1.00  0.00    -0.269 OA
HETATM    8  C   UNL     1       6.236  25.789  55.572  1.00  0.00     0.198 A 
HETATM    9  C   UNL     1       9.090  23.505  56.136  1.00  0.00     0.031 A 
HETATM   10  C   UNL     1       9.005  22.580  55.092  1.00  0.00     0.009 A 
HETATM   11  H   UNL     1       8.684  25.695  57.872  1.00  0.00     0.169 HD
ENDROOT
BRANCH   8  12
HETATM   12  C   UNL     1       6.244  26.711  54.380  1.00  0.00     0.018 A 
HETATM   13  C   UNL     1       5.739  26.480  53.046  1.00  0.00     0.002 A 
HETATM   14  C   UNL     1       5.961  27.643  52.304  1.00  0.00     0.043 A 
HETATM   15  C   UNL     1       5.101  25.400  52.396  1.00  0.00     0.014 A 
HETATM   16  C   UNL     1       5.577  27.781  50.964  1.00  0.00     0.030 A 
HETATM   17  N   UNL     1       6.595  28.538  53.130  1.00  0.00    -0.365 N 
HETATM   18  C   UNL     1       4.942  26.697  50.354  1.00  0.00     0.002 A 
HETATM   19  C   UNL     1       4.707  25.521  51.058  1.00  0.00     0.001 A 
HETATM   20  H   UNL     1       6.891  29.464  52.852  1.00  0.00     0.165 HD
HETATM   21  C   UNL     1       6.765  27.997  54.370  1.00  0.00     0.100 A 
ENDBRANCH   8  12
BRANCH   8  22
HETATM   22  O   UNL     1       4.928  25.324  55.902  1.00  0.00    -0.371 OA
HETATM   23  H   UNL     1       4.331  25.681  55.225  1.00  0.00     0.212 HD
ENDBRANCH   8  22
BRANCH   1  24
HETATM   24  C   UNL     1       7.931  21.673  52.983  1.00  0.00     0.034 C 
HETATM   25  C   UNL     1       8.691  20.396  53.312  1.00  0.00     0.010 C 
ENDBRANCH   1  24
TORSDOF 3
ENDMDL
MODEL 4
REMARK VINA RESULT:      -8.7     10.123     12.642
REMARK  3 active torsions:
REMARK  status: ('A' for Active; 'I' for Inactive)
REMARK    1  A    between atoms: C_2  and  C_3 
REMARK    2  A    between atoms: C_10  and  C_12 
REMARK    3  A    between atoms: C_10  and  O_11 
ROOT
HETATM    1  C   UNL     1       5.463  38.675  63.302  1.00  0.00    -0.058 A 
HETATM    2  C   UNL     1       5.288  37.610  64.199  1.00  0.00     0.020 A 
HETATM    3  C   UNL     1       4.340  36.642  63.902  1.00  0.00     0.018 A 
HETATM    4  C   UNL     1       3.564  36.744  62.746  1.00  0.00     0.045 A 
HETATM    5  N   UNL     1       2.699  35.665  62.645  1.00  0.00    -0.323 N 
HETATM    6  C   UNL     1       2.859  34.779  63.712  1.00  0.00     0.266 A 
HETATM    7  O   UNL     1       2.208  33.755  63.856  1.00  0.00    -0.269 OA
HETATM    8  C   UNL     1       3.943  35.397  64.666  1.00  0.00     0.198 A 
HETATM    9  C   UNL     1       3.701  37.783  61.851  1.00  0.00     0.031 A 
HETATM   10  C   UNL     1       4.668  38.753  62.135  1.00  0.00     0.009 A 
HETATM   11  H   UNL     1       2.047  35.495  61.894  1.00  0.00     0.169 HD
ENDROOT
BRANCH   8  12
HETATM   12  C   UNL     1       5.172  34.535  64.809  1.00  0.00     0.018 A 
HETATM   13  C   UNL     1       5.984  33.928  63.781  1.00  0.00     0.002 A 
HETATM   14  C   UNL     1       7.022  33.241  64.414  1.00  0.00     0.043 A 
HETATM   15  C   UNL     1       5.947  33.903  62.369  1.00  0.00     0.014 A 
HETATM   16  C   UNL     1       8.018  32.545  63.715  1.00  0.00     0.030 A 
HETATM   17  N   UNL     1       6.846  33.393  65.767  1.00  0.00    -0.365 N 
HETATM   18  C   UNL     1       7.957  32.548  62.320  1.00  0.00     0.002 A 
HETATM   19  C   UNL     1       6.936  33.216  61.654  1.00  0.00     0.001 A 
HETATM   20  H   UNL     1       7.446  32.989  66.472  1.00  0.00     0.165 HD
HETATM   21  C   UNL     1       5.751  34.167  66.016  1.00  0.00     0.100 A 
ENDBRANCH   8  12
BRANCH   8  22
HETATM   22  O   UNL     1       3.390  35.782  65.923  1.00  0.00    -0.371 OA
HETATM   23  H   UNL     1       2.763  35.084  66.174  1.00  0.00     0.212 HD
ENDBRANCH   8  22
BRANCH   1  24
HETATM   24  C   UNL     1       6.532  39.709  63.561  1.00  0.00     0.034 C 
HETATM   25  C   UNL     1       7.356  39.988  62.313  1.00  0.00     0.010 C 
ENDBRANCH   1  24
TORSDOF 3
ENDMDL
MODEL 5
REMARK VINA RESULT:      -8.5      9.413     12.835
REMARK  3 active torsions:
REMARK  status: ('A' for Active; 'I' for Inactive)
REMARK    1  A    between atoms: C_2  and  C_3 
REMARK    2  A    between atoms: C_10  and  C_12 
REMARK    3  A    between atoms: C_10  and  O_11 
ROOT
HETATM    1  C   UNL     1       7.291  32.897  62.459  1.00  0.00    -0.058 A 
HETATM    2  C   UNL     1       5.966  33.356  62.389  1.00  0.00     0.020 A 
HETATM    3  C   UNL     1       5.340  33.755  63.561  1.00  0.00     0.018 A 
HETATM    4  C   UNL     1       6.012  33.677  64.782  1.00  0.00     0.045 A 
HETATM    5  N   UNL     1       5.206  34.141  65.810  1.00  0.00    -0.323 N 
HETATM    6  C   UNL     1       3.964  34.567  65.335  1.00  0.00     0.266 A 
HETATM    7  O   UNL     1       3.073  35.010  66.044  1.00  0.00    -0.269 OA
HETATM    8  C   UNL     1       3.943  34.292  63.788  1.00  0.00     0.198 A 
HETATM    9  C   UNL     1       7.308  33.219  64.887  1.00  0.00     0.031 A 
HETATM   10  C   UNL     1       7.950  32.832  63.707  1.00  0.00     0.009 A 
HETATM   11  H   UNL     1       5.462  34.205  66.784  1.00  0.00     0.169 HD
ENDROOT
BRANCH   8  12
HETATM   12  C   UNL     1       3.793  35.545  62.962  1.00  0.00     0.018 A 
HETATM   13  C   UNL     1       4.561  36.767  63.013  1.00  0.00     0.002 A 
HETATM   14  C   UNL     1       4.051  37.626  62.037  1.00  0.00     0.043 A 
HETATM   15  C   UNL     1       5.650  37.227  63.785  1.00  0.00     0.014 A 
HETATM   16  C   UNL     1       4.573  38.903  61.792  1.00  0.00     0.030 A 
HETATM   17  N   UNL     1       3.003  36.978  61.430  1.00  0.00    -0.365 N 
HETATM   18  C   UNL     1       5.655  39.323  62.568  1.00  0.00     0.002 A 
HETATM   19  C   UNL     1       6.188  38.499  63.553  1.00  0.00     0.001 A 
HETATM   20  H   UNL     1       2.437  37.370  60.691  1.00  0.00     0.165 HD
HETATM   21  C   UNL     1       2.843  35.735  61.969  1.00  0.00     0.100 A 
ENDBRANCH   8  12
BRANCH   8  22
HETATM   22  O   UNL     1       2.997  33.283  63.438  1.00  0.00    -0.371 OA
HETATM   23  H   UNL     1       3.321  32.456  63.829  1.00  0.00     0.212 HD
ENDBRANCH   8  22
BRANCH   1  24
HETATM   24  C   UNL     1       8.022  32.518  61.193  1.00  0.00     0.034 C 
HETATM   25  C   UNL     1       9.370  31.878  61.495  1.00  0.00     0.010 C 
ENDBRANCH   1  24
TORSDOF 3
ENDMDL
MODEL 6
REMARK VINA RESULT:      -8.5      8.348     10.922
REMARK  3 active torsions:
REMARK  status: ('A' for Active; 'I' for Inactive)
REMARK    1  A    between atoms: C_2  and  C_3 
REMARK    2  A    between atoms: C_10  and  C_12 
REMARK    3  A    between atoms: C_10  and  O_11 
ROOT
HETATM    1  C   UNL     1       7.786  32.299  62.416  1.00  0.00    -0.058 A 
HETATM    2  C   UNL     1       6.505  32.242  61.845  1.00  0.00     0.020 A 
HETATM    3  C   UNL     1       5.425  32.688  62.592  1.00  0.00     0.018 A 
HETATM    4  C   UNL     1       5.613  33.159  63.893  1.00  0.00     0.045 A 
HETATM    5  N   UNL     1       4.405  33.564  64.441  1.00  0.00    -0.323 N 
HETATM    6  C   UNL     1       3.352  33.402  63.538  1.00  0.00     0.266 A 
HETATM    7  O   UNL     1       2.188  33.678  63.785  1.00  0.00    -0.269 OA
HETATM    8  C   UNL     1       3.954  32.752  62.240  1.00  0.00     0.198 A 
HETATM    9  C   UNL     1       6.854  33.216  64.488  1.00  0.00     0.031 A 
HETATM   10  C   UNL     1       7.949  32.786  63.733  1.00  0.00     0.009 A 
HETATM   11  H   UNL     1       4.273  33.959  65.360  1.00  0.00     0.169 HD
ENDROOT
BRANCH   8  12
HETATM   12  C   UNL     1       3.812  33.622  61.017  1.00  0.00     0.018 A 
HETATM   13  C   UNL     1       4.102  35.028  60.860  1.00  0.00     0.002 A 
HETATM   14  C   UNL     1       3.826  35.370  59.535  1.00  0.00     0.043 A 
HETATM   15  C   UNL     1       4.585  36.045  61.713  1.00  0.00     0.014 A 
HETATM   16  C   UNL     1       4.013  36.661  59.022  1.00  0.00     0.030 A 
HETATM   17  N   UNL     1       3.363  34.239  58.909  1.00  0.00    -0.365 N 
HETATM   18  C   UNL     1       4.500  37.641  59.889  1.00  0.00     0.002 A 
HETATM   19  C   UNL     1       4.781  37.341  61.217  1.00  0.00     0.001 A 
HETATM   20  H   UNL     1       3.073  34.196  57.943  1.00  0.00     0.165 HD
HETATM   21  C   UNL     1       3.355  33.189  59.780  1.00  0.00     0.100 A 
ENDBRANCH   8  12
BRANCH   8  22
HETATM   22  O   UNL     1       3.469  31.426  62.034  1.00  0.00    -0.371 OA
HETATM   23  H   UNL     1       4.235  30.836  62.127  1.00  0.00     0.212 HD
ENDBRANCH   8  22
BRANCH   1  24
HETATM   24  C   UNL     1       8.990  31.885  61.605  1.00  0.00     0.034 C 
HETATM   25  C   UNL     1       9.358  30.429  61.852  1.00  0.00     0.010 C 
ENDBRANCH   1  24
TORSDOF 3
ENDMDL
MODEL 7
REMARK VINA RESULT:      -8.3      7.690      9.508
REMARK  3 active torsions:
REMARK  status: ('A' for Active; 'I' for Inactive)
REMARK    1  A    between atoms: C_2  and  C_3 
REMARK    2  A    between atoms: C_10  and  C_12 
REMARK    3  A    between atoms: C_10  and  O_11 
ROOT
HETATM    1  C   UNL     1       7.820  32.187  62.655  1.00  0.00    -0.058 A 
HETATM    2  C   UNL     1       6.575  32.044  62.023  1.00  0.00     0.020 A 
HETATM    3  C   UNL     1       5.452  32.575  62.639  1.00  0.00     0.018 A 
HETATM    4  C   UNL     1       5.563  33.216  63.875  1.00  0.00     0.045 A 
HETATM    5  N   UNL     1       4.325  33.680  64.293  1.00  0.00    -0.323 N 
HETATM    6  C   UNL     1       3.327  33.390  63.360  1.00  0.00     0.266 A 
HETATM    7  O   UNL     1       2.150  33.687  63.500  1.00  0.00    -0.269 OA
HETATM    8  C   UNL     1       4.004  32.579  62.198  1.00  0.00     0.198 A 
HETATM    9  C   UNL     1       6.767  33.362  64.528  1.00  0.00     0.031 A 
HETATM   10  C   UNL     1       7.905  32.845  63.903  1.00  0.00     0.009 A 
HETATM   11  H   UNL     1       4.138  34.192  65.142  1.00  0.00     0.169 HD
ENDROOT
BRANCH   8  12
HETATM   12  C   UNL     1       3.934  33.278  60.864  1.00  0.00     0.018 A 
HETATM   13  C   UNL     1       3.804  32.709  59.542  1.00  0.00     0.002 A 
HETATM   14  C   UNL     1       3.763  33.766  58.630  1.00  0.00     0.043 A 
HETATM   15  C   UNL     1       3.704  31.397  59.029  1.00  0.00     0.014 A 
HETATM   16  C   UNL     1       3.622  33.581  57.249  1.00  0.00     0.030 A 
HETATM   17  N   UNL     1       3.888  34.930  59.349  1.00  0.00    -0.365 N 
HETATM   18  C   UNL     1       3.518  32.271  56.775  1.00  0.00     0.002 A 
HETATM   19  C   UNL     1       3.560  31.192  57.651  1.00  0.00     0.001 A 
HETATM   20  H   UNL     1       3.905  35.855  58.943  1.00  0.00     0.165 HD
HETATM   21  C   UNL     1       3.985  34.653  60.681  1.00  0.00     0.100 A 
ENDBRANCH   8  12
BRANCH   8  22
HETATM   22  O   UNL     1       3.534  31.234  62.141  1.00  0.00    -0.371 OA
HETATM   23  H   UNL     1       4.168  30.700  62.647  1.00  0.00     0.212 HD
ENDBRANCH   8  22
BRANCH   1  24
HETATM   24  C   UNL     1       9.070  31.679  61.978  1.00  0.00     0.034 C 
HETATM   25  C   UNL     1       9.171  32.175  60.543  1.00  0.00     0.010 C 
ENDBRANCH   1  24
TORSDOF 3
ENDMDL
MODEL 8
REMARK VINA RESULT:      -8.2      2.738      4.103
REMARK  3 active torsions:
REMARK  status: ('A' for Active; 'I' for Inactive)
REMARK    1  A    between atoms: C_2  and  C_3 
REMARK    2  A    between atoms: C_10  and  C_12 
REMARK    3  A    between atoms: C_10  and  O_11 
ROOT
HETATM    1  C   UNL     1       4.089  29.299  54.061  1.00  0.00    -0.058 A 
HETATM    2  C   UNL     1       5.301  28.612  54.234  1.00  0.00     0.020 A 
HETATM    3  C   UNL     1       5.901  28.629  55.484  1.00  0.00     0.018 A 
HETATM    4  C   UNL     1       5.317  29.336  56.537  1.00  0.00     0.045 A 
HETATM    5  N   UNL     1       6.075  29.202  57.690  1.00  0.00    -0.323 N 
HETATM    6  C   UNL     1       7.192  28.391  57.478  1.00  0.00     0.266 A 
HETATM    7  O   UNL     1       8.020  28.126  58.336  1.00  0.00    -0.269 OA
HETATM    8  C   UNL     1       7.184  27.984  55.960  1.00  0.00     0.198 A 
HETATM    9  C   UNL     1       4.135  30.031  56.398  1.00  0.00     0.031 A 
HETATM   10  C   UNL     1       3.516  30.002  55.145  1.00  0.00     0.009 A 
HETATM   11  H   UNL     1       5.861  29.600  58.592  1.00  0.00     0.169 HD
ENDROOT
BRANCH   8  12
HETATM   12  C   UNL     1       7.059  26.497  55.742  1.00  0.00     0.018 A 
HETATM   13  C   UNL     1       7.327  25.725  54.551  1.00  0.00     0.002 A 
HETATM   14  C   UNL     1       7.081  24.384  54.854  1.00  0.00     0.043 A 
HETATM   15  C   UNL     1       7.767  26.032  53.245  1.00  0.00     0.014 A 
HETATM   16  C   UNL     1       7.258  23.346  53.930  1.00  0.00     0.030 A 
HETATM   17  N   UNL     1       6.658  24.332  56.159  1.00  0.00    -0.365 N 
HETATM   18  C   UNL     1       7.702  23.682  52.650  1.00  0.00     0.002 A 
HETATM   19  C   UNL     1       7.952  25.007  52.309  1.00  0.00     0.001 A 
HETATM   20  H   UNL     1       6.394  23.485  56.643  1.00  0.00     0.165 HD
HETATM   21  C   UNL     1       6.645  25.584  56.701  1.00  0.00     0.100 A 
ENDBRANCH   8  12
BRANCH   8  22
HETATM   22  O   UNL     1       8.281  28.556  55.249  1.00  0.00    -0.371 OA
HETATM   23  H   UNL     1       8.483  27.947  54.520  1.00  0.00     0.212 HD
ENDBRANCH   8  22
BRANCH   1  24
HETATM   24  C   UNL     1       3.377  29.244  52.731  1.00  0.00     0.034 C 
HETATM   25  C   UNL     1       4.107  28.348  51.741  1.00  0.00     0.010 C 
ENDBRANCH   1  24
TORSDOF 3
ENDMDL
MODEL 9
REMARK VINA RESULT:      -8.0      3.571      5.247
REMARK  3 active torsions:
REMARK  status: ('A' for Active; 'I' for Inactive)
REMARK    1  A    between atoms: C_2  and  C_3 
REMARK    2  A    between atoms: C_10  and  C_12 
REMARK    3  A    between atoms: C_10  and  O_11 
ROOT
HETATM    1  C   UNL     1       4.776  27.360  50.823  1.00  0.00    -0.058 A 
HETATM    2  C   UNL     1       5.776  27.156  51.787  1.00  0.00     0.020 A 
HETATM    3  C   UNL     1       5.780  27.956  52.920  1.00  0.00     0.018 A 
HETATM    4  C   UNL     1       4.818  28.956  53.080  1.00  0.00     0.045 A 
HETATM    5  N   UNL     1       5.002  29.617  54.285  1.00  0.00    -0.323 N 
HETATM    6  C   UNL     1       6.079  29.088  55.000  1.00  0.00     0.266 A 
HETATM    7  O   UNL     1       6.450  29.503  56.088  1.00  0.00    -0.269 OA
HETATM    8  C   UNL     1       6.715  27.960  54.110  1.00  0.00     0.198 A 
HETATM    9  C   UNL     1       3.831  29.191  52.148  1.00  0.00     0.031 A 
HETATM   10  C   UNL     1       3.812  28.376  51.013  1.00  0.00     0.009 A 
HETATM   11  H   UNL     1       4.431  30.367  54.645  1.00  0.00     0.169 HD
ENDROOT
BRANCH   8  12
HETATM   12  C   UNL     1       6.656  26.595  54.746  1.00  0.00     0.018 A 
HETATM   13  C   UNL     1       7.166  25.337  54.252  1.00  0.00     0.002 A 
HETATM   14  C   UNL     1       6.882  24.361  55.211  1.00  0.00     0.043 A 
HETATM   15  C   UNL     1       7.853  24.930  53.087  1.00  0.00     0.014 A 
HETATM   16  C   UNL     1       7.253  23.018  55.069  1.00  0.00     0.030 A 
HETATM   17  N   UNL     1       6.208  24.980  56.234  1.00  0.00    -0.365 N 
HETATM   18  C   UNL     1       7.938  22.651  53.909  1.00  0.00     0.002 A 
HETATM   19  C   UNL     1       8.234  23.592  52.929  1.00  0.00     0.001 A 
HETATM   20  H   UNL     1       5.865  24.511  57.061  1.00  0.00     0.165 HD
HETATM   21  C   UNL     1       6.071  26.311  55.972  1.00  0.00     0.100 A 
ENDBRANCH   8  12
BRANCH   8  22
HETATM   22  O   UNL     1       8.026  28.307  53.666  1.00  0.00    -0.371 OA
HETATM   23  H   UNL     1       8.543  28.501  54.464  1.00  0.00     0.212 HD
ENDBRANCH   8  22
BRANCH   1  24
HETATM   24  C   UNL     1       4.705  26.462  49.612  1.00  0.00     0.034 C 
HETATM   25  C   UNL     1       4.674  27.265  48.320  1.00  0.00     0.010 C 
ENDBRANCH   1  24
TORSDOF 3
ENDMDL
MODEL 10
REMARK VINA RESULT:      -7.9      4.931      6.750
REMARK  3 active torsions:
REMARK  status: ('A' for Active; 'I' for Inactive)
REMARK    1  A    between atoms: C_2  and  C_3 
REMARK    2  A    between atoms: C_10  and  C_12 
REMARK    3  A    between atoms: C_10  and  O_11 
ROOT
HETATM    1  C   UNL     1       3.795  27.260  49.181  1.00  0.00    -0.058 A 
HETATM    2  C   UNL     1       4.690  27.361  50.257  1.00  0.00     0.020 A 
HETATM    3  C   UNL     1       4.372  28.211  51.306  1.00  0.00     0.018 A 
HETATM    4  C   UNL     1       3.197  28.964  51.274  1.00  0.00     0.045 A 
HETATM    5  N   UNL     1       3.077  29.726  52.426  1.00  0.00    -0.323 N 
HETATM    6  C   UNL     1       4.150  29.515  53.294  1.00  0.00     0.266 A 
HETATM    7  O   UNL     1       4.281  30.075  54.372  1.00  0.00    -0.269 OA
HETATM    8  C   UNL     1       5.129  28.514  52.582  1.00  0.00     0.198 A 
HETATM    9  C   UNL     1       2.304  28.898  50.227  1.00  0.00     0.031 A 
HETATM   10  C   UNL     1       2.609  28.029  49.175  1.00  0.00     0.009 A 
HETATM   11  H   UNL     1       2.311  30.342  52.654  1.00  0.00     0.169 HD
ENDROOT
BRANCH   8  12
HETATM   12  C   UNL     1       5.305  27.217  53.330  1.00  0.00     0.018 A 
HETATM   13  C   UNL     1       6.207  26.122  53.058  1.00  0.00     0.002 A 
HETATM   14  C   UNL     1       6.007  25.156  54.046  1.00  0.00     0.043 A 
HETATM   15  C   UNL     1       7.185  25.861  52.074  1.00  0.00     0.014 A 
HETATM   16  C   UNL     1       6.732  23.958  54.104  1.00  0.00     0.030 A 
HETATM   17  N   UNL     1       5.013  25.618  54.874  1.00  0.00    -0.365 N 
HETATM   18  C   UNL     1       7.698  23.734  53.120  1.00  0.00     0.002 A 
HETATM   19  C   UNL     1       7.922  24.670  52.117  1.00  0.00     0.001 A 
HETATM   20  H   UNL     1       4.652  25.115  55.672  1.00  0.00     0.165 HD
HETATM   21  C   UNL     1       4.590  26.847  54.461  1.00  0.00     0.100 A 
ENDBRANCH   8  12
BRANCH   8  22
HETATM   22  O   UNL     1       6.371  29.130  52.247  1.00  0.00    -0.371 OA
HETATM   23  H   UNL     1       6.730  29.493  53.073  1.00  0.00     0.212 HD
ENDBRANCH   8  22
BRANCH   1  24
HETATM   24  C   UNL     1       4.078  26.294  48.056  1.00  0.00     0.034 C 
HETATM   25  C   UNL     1       2.830  26.009  47.233  1.00  0.00     0.010 C 
ENDBRANCH   1  24
TORSDOF 3
ENDMDL
