MODEL 1
REMARK VINA RESULT:      -8.5      0.000      0.000
REMARK  6 active torsions:
REMARK  status: ('A' for Active; 'I' for Inactive)
REMARK    1  A    between atoms: C_2  and  N_3 
REMARK    2  A    between atoms: C_2  and  C_21 
REMARK    3  A    between atoms: N_3  and  C_6 
REMARK    4  A    between atoms: C_6  and  C_7 
REMARK       I    between atoms: C_7  and  N_8 
REMARK    5  A    between atoms: N_8  and  C_9 
REMARK    6  A    between atoms: C_16  and  C_17 
REMARK       I    between atoms: C_17  and  N_18 
ROOT
HETATM    1  C   UNL     1       6.273  26.860  54.120  1.00  0.00     0.248 C 
HETATM    2  N   UNL     1       7.420  26.153  54.400  1.00  0.00    -0.319 N 
HETATM    3  O   UNL     1       5.211  26.460  53.652  1.00  0.00    -0.271 OA
HETATM    4  H   UNL     1       8.220  26.630  54.820  1.00  0.00     0.169 HD
ENDROOT
BRANCH   2   5
HETATM    5  C   UNL     1       7.598  24.777  54.333  1.00  0.00     0.093 A 
HETATM    6  S   UNL     1       7.811  23.973  52.842  1.00  0.00    -0.075 SA
HETATM    7  C   UNL     1       7.867  22.500  53.619  1.00  0.00    -0.008 A 
HETATM    8  C   UNL     1       7.759  22.574  54.982  1.00  0.00    -0.026 A 
HETATM    9  C   UNL     1       7.975  21.127  53.076  1.00  0.00     0.047 C 
HETATM   10  C   UNL     1       7.779  21.207  55.573  1.00  0.00     0.041 C 
HETATM   11  C   UNL     1       7.599  23.916  55.438  1.00  0.00     0.072 A 
HETATM   12  C   UNL     1       8.230  20.313  54.376  1.00  0.00     0.010 C 
BRANCH  11  13
HETATM   13  C   UNL     1       7.402  24.433  56.793  1.00  0.00     0.252 C 
HETATM   14  N   UNL     1       8.393  24.218  57.700  1.00  0.00    -0.366 N 
HETATM   15  H   UNL     1       9.302  23.865  57.448  1.00  0.00     0.159 HD
HETATM   16  H   UNL     1       8.296  24.646  58.612  1.00  0.00     0.159 HD
HETATM   17  O   UNL     1       6.390  25.061  57.108  1.00  0.00    -0.268 OA
ENDBRANCH  11  13
ENDBRANCH   2   5
BRANCH   1  18
HETATM   18  C   UNL     1       6.342  28.319  54.562  1.00  0.00     0.335 C 
BRANCH  18  19
HETATM   19  N   UNL     1       7.725  28.668  55.059  1.00  0.00    -0.057 N 
HETATM   20  H   UNL     1       7.836  29.678  54.849  1.00  0.00     0.278 HD
HETATM   21  H   UNL     1       8.438  28.183  54.507  1.00  0.00     0.278 HD
BRANCH  19  22
HETATM   22  C   UNL     1       8.019  28.526  56.528  1.00  0.00     0.239 C 
HETATM   23  C   UNL     1       6.745  28.699  57.345  1.00  0.00     0.047 C 
BRANCH  22  24
HETATM   24  C   UNL     1       9.143  29.396  56.964  1.00  0.00     0.082 A 
HETATM   25  O   UNL     1       8.816  30.300  57.934  1.00  0.00    -0.325 OA
HETATM   26  C   UNL     1       9.945  30.988  58.239  1.00  0.00     0.142 A 
HETATM   27  C   UNL     1      10.997  30.541  57.477  1.00  0.00     0.027 A 
HETATM   28  C   UNL     1      10.482  29.512  56.649  1.00  0.00     0.037 A 
ENDBRANCH  22  24
ENDBRANCH  19  22
ENDBRANCH  18  19
ENDBRANCH   1  18
TORSDOF 6
ENDMDL
MODEL 2
REMARK VINA RESULT:      -8.3      1.622      2.494
REMARK  6 active torsions:
REMARK  status: ('A' for Active; 'I' for Inactive)
REMARK    1  A    between atoms: C_2  and  N_3 
REMARK    2  A    between atoms: C_2  and  C_21 
REMARK    3  A    between atoms: N_3  and  C_6 
REMARK    4  A    between atoms: C_6  and  C_7 
REMARK       I    between atoms: C_7  and  N_8 
REMARK    5  A    between atoms: N_8  and  C_9 
REMARK    6  A    between atoms: C_16  and  C_17 
REMARK       I    between atoms: C_17  and  N_18 
ROOT
HETATM    1  C   UNL     1       6.048  26.085  56.266  1.00  0.00     0.248 C 
HETATM    2  N   UNL     1       7.168  25.697  55.568  1.00  0.00    -0.319 N 
HETATM    3  O   UNL     1       5.087  25.411  56.627  1.00  0.00    -0.271 OA
HETATM    4  H   UNL     1       7.901  26.380  55.366  1.00  0.00     0.169 HD
ENDROOT
BRANCH   2   5
HETATM    5  C   UNL     1       7.534  24.405  55.212  1.00  0.00     0.093 A 
HETATM    6  S   UNL     1       8.261  23.340  56.331  1.00  0.00    -0.075 SA
HETATM    7  C   UNL     1       8.413  22.172  55.153  1.00  0.00    -0.008 A 
HETATM    8  C   UNL     1       7.910  22.529  53.932  1.00  0.00    -0.026 A 
HETATM    9  C   UNL     1       9.035  20.828  55.202  1.00  0.00     0.047 C 
HETATM   10  C   UNL     1       8.131  21.436  52.945  1.00  0.00     0.041 C 
HETATM   11  C   UNL     1       7.378  23.853  53.935  1.00  0.00     0.072 A 
HETATM   12  C   UNL     1       8.568  20.236  53.842  1.00  0.00     0.010 C 
BRANCH  11  13
HETATM   13  C   UNL     1       6.796  24.637  52.844  1.00  0.00     0.252 C 
HETATM   14  N   UNL     1       7.611  24.979  51.809  1.00  0.00    -0.366 N 
HETATM   15  H   UNL     1       8.534  24.594  51.686  1.00  0.00     0.159 HD
HETATM   16  H   UNL     1       7.192  25.447  51.016  1.00  0.00     0.159 HD
HETATM   17  O   UNL     1       5.609  24.964  52.839  1.00  0.00    -0.268 OA
ENDBRANCH  11  13
ENDBRANCH   2   5
BRANCH   1  18
HETATM   18  C   UNL     1       6.095  27.541  56.723  1.00  0.00     0.335 C 
BRANCH  18  19
HETATM   19  N   UNL     1       7.200  27.753  57.731  1.00  0.00    -0.057 N 
HETATM   20  H   UNL     1       8.052  27.371  57.277  1.00  0.00     0.278 HD
HETATM   21  H   UNL     1       7.041  27.179  58.565  1.00  0.00     0.278 HD
BRANCH  19  22
HETATM   22  C   UNL     1       7.551  29.161  58.129  1.00  0.00     0.239 C 
HETATM   23  C   UNL     1       6.463  30.128  57.679  1.00  0.00     0.047 C 
BRANCH  22  24
HETATM   24  C   UNL     1       8.921  29.544  57.695  1.00  0.00     0.082 A 
HETATM   25  O   UNL     1       9.366  30.730  58.204  1.00  0.00    -0.325 OA
HETATM   26  C   UNL     1      10.628  30.917  57.743  1.00  0.00     0.142 A 
HETATM   27  C   UNL     1      11.003  29.867  56.940  1.00  0.00     0.027 A 
HETATM   28  C   UNL     1       9.901  28.977  56.905  1.00  0.00     0.037 A 
ENDBRANCH  22  24
ENDBRANCH  19  22
ENDBRANCH  18  19
ENDBRANCH   1  18
TORSDOF 6
ENDMDL
MODEL 3
REMARK VINA RESULT:      -8.1      2.687      3.966
REMARK  6 active torsions:
REMARK  status: ('A' for Active; 'I' for Inactive)
REMARK    1  A    between atoms: C_2  and  N_3 
REMARK    2  A    between atoms: C_2  and  C_21 
REMARK    3  A    between atoms: N_3  and  C_6 
REMARK    4  A    between atoms: C_6  and  C_7 
REMARK       I    between atoms: C_7  and  N_8 
REMARK    5  A    between atoms: N_8  and  C_9 
REMARK    6  A    between atoms: C_16  and  C_17 
REMARK       I    between atoms: C_17  and  N_18 
ROOT
HETATM    1  C   UNL     1       7.960  27.930  57.333  1.00  0.00     0.248 C 
HETATM    2  N   UNL     1       7.139  26.863  57.051  1.00  0.00    -0.319 N 
HETATM    3  O   UNL     1       9.154  28.078  57.084  1.00  0.00    -0.271 OA
HETATM    4  H   UNL     1       6.149  26.905  57.301  1.00  0.00     0.169 HD
ENDROOT
BRANCH   2   5
HETATM    5  C   UNL     1       7.449  25.739  56.296  1.00  0.00     0.093 A 
HETATM    6  S   UNL     1       8.510  24.534  56.876  1.00  0.00    -0.075 SA
HETATM    7  C   UNL     1       8.377  23.695  55.443  1.00  0.00    -0.008 A 
HETATM    8  C   UNL     1       7.534  24.267  54.527  1.00  0.00    -0.026 A 
HETATM    9  C   UNL     1       9.048  22.457  54.983  1.00  0.00     0.047 C 
HETATM   10  C   UNL     1       7.518  23.465  53.273  1.00  0.00     0.041 C 
HETATM   11  C   UNL     1       6.965  25.484  55.006  1.00  0.00     0.072 A 
HETATM   12  C   UNL     1       8.245  22.147  53.688  1.00  0.00     0.010 C 
BRANCH  11  13
HETATM   13  C   UNL     1       6.064  26.428  54.343  1.00  0.00     0.252 C 
HETATM   14  N   UNL     1       4.838  25.972  53.968  1.00  0.00    -0.366 N 
HETATM   15  H   UNL     1       4.471  25.080  54.259  1.00  0.00     0.159 HD
HETATM   16  H   UNL     1       4.184  26.643  53.586  1.00  0.00     0.159 HD
HETATM   17  O   UNL     1       6.383  27.601  54.143  1.00  0.00    -0.268 OA
ENDBRANCH  11  13
ENDBRANCH   2   5
BRANCH   1  18
HETATM   18  C   UNL     1       7.220  29.114  57.950  1.00  0.00     0.335 C 
BRANCH  18  19
HETATM   19  N   UNL     1       7.925  29.600  59.195  1.00  0.00    -0.057 N 
HETATM   20  H   UNL     1       8.845  29.121  59.183  1.00  0.00     0.278 HD
HETATM   21  H   UNL     1       7.442  29.267  60.034  1.00  0.00     0.278 HD
BRANCH  19  22
HETATM   22  C   UNL     1       8.235  31.067  59.321  1.00  0.00     0.239 C 
HETATM   23  C   UNL     1       9.565  31.389  58.650  1.00  0.00     0.047 C 
BRANCH  22  24
HETATM   24  C   UNL     1       8.131  31.546  60.724  1.00  0.00     0.082 A 
HETATM   25  O   UNL     1       6.854  31.640  61.199  1.00  0.00    -0.325 OA
HETATM   26  C   UNL     1       6.933  32.056  62.488  1.00  0.00     0.142 A 
HETATM   27  C   UNL     1       8.246  32.234  62.852  1.00  0.00     0.027 A 
HETATM   28  C   UNL     1       9.025  31.907  61.713  1.00  0.00     0.037 A 
ENDBRANCH  22  24
ENDBRANCH  19  22
ENDBRANCH  18  19
ENDBRANCH   1  18
TORSDOF 6
ENDMDL
MODEL 4
REMARK VINA RESULT:      -8.0      2.173      2.884
REMARK  6 active torsions:
REMARK  status: ('A' for Active; 'I' for Inactive)
REMARK    1  A    between atoms: C_2  and  N_3 
REMARK    2  A    between atoms: C_2  and  C_21 
REMARK    3  A    between atoms: N_3  and  C_6 
REMARK    4  A    between atoms: C_6  and  C_7 
REMARK       I    between atoms: C_7  and  N_8 
REMARK    5  A    between atoms: N_8  and  C_9 
REMARK    6  A    between atoms: C_16  and  C_17 
REMARK       I    between atoms: C_17  and  N_18 
ROOT
HETATM    1  C   UNL     1       5.854  28.223  56.348  1.00  0.00     0.248 C 
HETATM    2  N   UNL     1       7.087  27.726  55.994  1.00  0.00    -0.319 N 
HETATM    3  O   UNL     1       4.737  27.776  56.101  1.00  0.00    -0.271 OA
HETATM    4  H   UNL     1       7.935  28.205  56.305  1.00  0.00     0.169 HD
ENDROOT
BRANCH   2   5
HETATM    5  C   UNL     1       7.360  26.515  55.371  1.00  0.00     0.093 A 
HETATM    6  S   UNL     1       7.094  26.288  53.700  1.00  0.00    -0.075 SA
HETATM    7  C   UNL     1       7.567  24.694  53.820  1.00  0.00    -0.008 A 
HETATM    8  C   UNL     1       7.953  24.310  55.076  1.00  0.00    -0.026 A 
HETATM    9  C   UNL     1       7.602  23.619  52.801  1.00  0.00     0.047 C 
HETATM   10  C   UNL     1       8.316  22.866  55.082  1.00  0.00     0.041 C 
HETATM   11  C   UNL     1       7.842  25.372  56.022  1.00  0.00     0.072 A 
HETATM   12  C   UNL     1       8.387  22.514  53.563  1.00  0.00     0.010 C 
BRANCH  11  13
HETATM   13  C   UNL     1       8.099  25.381  57.462  1.00  0.00     0.252 C 
HETATM   14  N   UNL     1       8.655  24.267  58.010  1.00  0.00    -0.366 N 
HETATM   15  H   UNL     1       9.033  23.513  57.459  1.00  0.00     0.159 HD
HETATM   16  H   UNL     1       8.911  24.301  58.988  1.00  0.00     0.159 HD
HETATM   17  O   UNL     1       7.847  26.363  58.162  1.00  0.00    -0.268 OA
ENDBRANCH  11  13
ENDBRANCH   2   5
BRANCH   1  18
HETATM   18  C   UNL     1       5.936  29.446  57.259  1.00  0.00     0.335 C 
BRANCH  18  19
HETATM   19  N   UNL     1       6.998  29.260  58.317  1.00  0.00    -0.057 N 
HETATM   20  H   UNL     1       7.524  28.415  58.020  1.00  0.00     0.278 HD
HETATM   21  H   UNL     1       6.571  29.027  59.218  1.00  0.00     0.278 HD
BRANCH  19  22
HETATM   22  C   UNL     1       8.033  30.337  58.495  1.00  0.00     0.239 C 
HETATM   23  C   UNL     1       9.347  29.926  57.841  1.00  0.00     0.047 C 
BRANCH  22  24
HETATM   24  C   UNL     1       8.168  30.759  59.914  1.00  0.00     0.082 A 
HETATM   25  O   UNL     1       9.166  30.128  60.601  1.00  0.00    -0.325 OA
HETATM   26  C   UNL     1       9.177  30.642  61.857  1.00  0.00     0.142 A 
HETATM   27  C   UNL     1       8.197  31.596  61.990  1.00  0.00     0.027 A 
HETATM   28  C   UNL     1       7.541  31.674  60.736  1.00  0.00     0.037 A 
ENDBRANCH  22  24
ENDBRANCH  19  22
ENDBRANCH  18  19
ENDBRANCH   1  18
TORSDOF 6
ENDMDL
MODEL 5
REMARK VINA RESULT:      -7.7      3.503      5.384
REMARK  6 active torsions:
REMARK  status: ('A' for Active; 'I' for Inactive)
REMARK    1  A    between atoms: C_2  and  N_3 
REMARK    2  A    between atoms: C_2  and  C_21 
REMARK    3  A    between atoms: N_3  and  C_6 
REMARK    4  A    between atoms: C_6  and  C_7 
REMARK       I    between atoms: C_7  and  N_8 
REMARK    5  A    between atoms: N_8  and  C_9 
REMARK    6  A    between atoms: C_16  and  C_17 
REMARK       I    between atoms: C_17  and  N_18 
ROOT
HETATM    1  C   UNL     1       5.502  25.888  53.381  1.00  0.00     0.248 C 
HETATM    2  N   UNL     1       6.730  25.504  53.869  1.00  0.00    -0.319 N 
HETATM    3  O   UNL     1       4.579  25.191  52.969  1.00  0.00    -0.271 OA
HETATM    4  H   UNL     1       7.386  26.212  54.204  1.00  0.00     0.169 HD
ENDROOT
BRANCH   2   5
HETATM    5  C   UNL     1       7.166  24.211  54.128  1.00  0.00     0.093 A 
HETATM    6  S   UNL     1       7.606  23.145  52.869  1.00  0.00    -0.075 SA
HETATM    7  C   UNL     1       7.894  21.928  53.970  1.00  0.00    -0.008 A 
HETATM    8  C   UNL     1       7.700  22.288  55.276  1.00  0.00    -0.026 A 
HETATM    9  C   UNL     1       8.287  20.515  53.765  1.00  0.00     0.047 C 
HETATM   10  C   UNL     1       7.943  21.123  56.171  1.00  0.00     0.041 C 
HETATM   11  C   UNL     1       7.267  23.641  55.403  1.00  0.00     0.072 A 
HETATM   12  C   UNL     1       8.618  20.084  55.222  1.00  0.00     0.010 C 
BRANCH  11  13
HETATM   13  C   UNL     1       6.902  24.405  56.597  1.00  0.00     0.252 C 
HETATM   14  N   UNL     1       7.852  24.562  57.559  1.00  0.00    -0.366 N 
HETATM   15  H   UNL     1       8.819  24.316  57.423  1.00  0.00     0.159 HD
HETATM   16  H   UNL     1       7.630  25.159  58.345  1.00  0.00     0.159 HD
HETATM   17  O   UNL     1       5.788  24.912  56.730  1.00  0.00    -0.268 OA
ENDBRANCH  11  13
ENDBRANCH   2   5
BRANCH   1  18
HETATM   18  C   UNL     1       5.258  27.392  53.478  1.00  0.00     0.335 C 
BRANCH  18  19
HETATM   19  N   UNL     1       5.705  28.093  52.217  1.00  0.00    -0.057 N 
HETATM   20  H   UNL     1       6.212  27.367  51.675  1.00  0.00     0.278 HD
HETATM   21  H   UNL     1       6.394  28.818  52.434  1.00  0.00     0.278 HD
BRANCH  19  22
HETATM   22  C   UNL     1       4.657  28.635  51.284  1.00  0.00     0.239 C 
HETATM   23  C   UNL     1       3.328  28.798  52.013  1.00  0.00     0.047 C 
BRANCH  22  24
HETATM   24  C   UNL     1       4.564  27.850  50.024  1.00  0.00     0.082 A 
HETATM   25  O   UNL     1       4.334  28.599  48.906  1.00  0.00    -0.325 OA
HETATM   26  C   UNL     1       4.308  27.747  47.850  1.00  0.00     0.142 A 
HETATM   27  C   UNL     1       4.518  26.456  48.273  1.00  0.00     0.027 A 
HETATM   28  C   UNL     1       4.683  26.519  49.679  1.00  0.00     0.037 A 
ENDBRANCH  22  24
ENDBRANCH  19  22
ENDBRANCH  18  19
ENDBRANCH   1  18
TORSDOF 6
ENDMDL
MODEL 6
REMARK VINA RESULT:      -7.7      2.936      5.148
REMARK  6 active torsions:
REMARK  status: ('A' for Active; 'I' for Inactive)
REMARK    1  A    between atoms: C_2  and  N_3 
REMARK    2  A    between atoms: C_2  and  C_21 
REMARK    3  A    between atoms: N_3  and  C_6 
REMARK    4  A    between atoms: C_6  and  C_7 
REMARK       I    between atoms: C_7  and  N_8 
REMARK    5  A    between atoms: N_8  and  C_9 
REMARK    6  A    between atoms: C_16  and  C_17 
REMARK       I    between atoms: C_17  and  N_18 
ROOT
HETATM    1  C   UNL     1       6.757  27.376  54.019  1.00  0.00     0.248 C 
HETATM    2  N   UNL     1       6.111  26.197  54.309  1.00  0.00    -0.319 N 
HETATM    3  O   UNL     1       7.948  27.572  53.791  1.00  0.00    -0.271 OA
HETATM    4  H   UNL     1       5.098  26.195  54.447  1.00  0.00     0.169 HD
ENDROOT
BRANCH   2   5
HETATM    5  C   UNL     1       6.646  24.915  54.288  1.00  0.00     0.093 A 
HETATM    6  S   UNL     1       6.982  24.109  52.822  1.00  0.00    -0.075 SA
HETATM    7  C   UNL     1       7.472  22.751  53.655  1.00  0.00    -0.008 A 
HETATM    8  C   UNL     1       7.424  22.875  55.018  1.00  0.00    -0.026 A 
HETATM    9  C   UNL     1       7.912  21.425  53.165  1.00  0.00     0.047 C 
HETATM   10  C   UNL     1       7.842  21.600  55.663  1.00  0.00     0.041 C 
HETATM   11  C   UNL     1       6.939  24.152  55.426  1.00  0.00     0.072 A 
HETATM   12  C   UNL     1       8.448  20.786  54.477  1.00  0.00     0.010 C 
BRANCH  11  13
HETATM   13  C   UNL     1       6.686  24.679  56.768  1.00  0.00     0.252 C 
HETATM   14  N   UNL     1       7.729  24.703  57.642  1.00  0.00    -0.366 N 
HETATM   15  H   UNL     1       8.681  24.524  57.367  1.00  0.00     0.159 HD
HETATM   16  H   UNL     1       7.579  25.143  58.541  1.00  0.00     0.159 HD
HETATM   17  O   UNL     1       5.581  25.109  57.102  1.00  0.00    -0.268 OA
ENDBRANCH  11  13
ENDBRANCH   2   5
BRANCH   1  18
HETATM   18  C   UNL     1       5.809  28.563  53.870  1.00  0.00     0.335 C 
BRANCH  18  19
HETATM   19  N   UNL     1       5.780  29.053  52.441  1.00  0.00    -0.057 N 
HETATM   20  H   UNL     1       6.387  28.390  51.921  1.00  0.00     0.278 HD
HETATM   21  H   UNL     1       6.230  29.969  52.366  1.00  0.00     0.278 HD
BRANCH  19  22
HETATM   22  C   UNL     1       4.466  29.058  51.708  1.00  0.00     0.239 C 
HETATM   23  C   UNL     1       3.305  29.065  52.696  1.00  0.00     0.047 C 
BRANCH  22  24
HETATM   24  C   UNL     1       4.386  27.979  50.688  1.00  0.00     0.082 A 
HETATM   25  O   UNL     1       3.481  28.208  49.691  1.00  0.00    -0.325 OA
HETATM   26  C   UNL     1       3.552  27.158  48.835  1.00  0.00     0.142 A 
HETATM   27  C   UNL     1       4.492  26.252  49.267  1.00  0.00     0.027 A 
HETATM   28  C   UNL     1       5.032  26.780  50.467  1.00  0.00     0.037 A 
ENDBRANCH  22  24
ENDBRANCH  19  22
ENDBRANCH  18  19
ENDBRANCH   1  18
TORSDOF 6
ENDMDL
MODEL 7
REMARK VINA RESULT:      -7.6      3.789      6.237
REMARK  6 active torsions:
REMARK  status: ('A' for Active; 'I' for Inactive)
REMARK    1  A    between atoms: C_2  and  N_3 
REMARK    2  A    between atoms: C_2  and  C_21 
REMARK    3  A    between atoms: N_3  and  C_6 
REMARK    4  A    between atoms: C_6  and  C_7 
REMARK       I    between atoms: C_7  and  N_8 
REMARK    5  A    between atoms: N_8  and  C_9 
REMARK    6  A    between atoms: C_16  and  C_17 
REMARK       I    between atoms: C_17  and  N_18 
ROOT
HETATM    1  C   UNL     1       5.050  27.822  54.208  1.00  0.00     0.248 C 
HETATM    2  N   UNL     1       4.769  26.500  54.464  1.00  0.00    -0.319 N 
HETATM    3  O   UNL     1       6.121  28.417  54.288  1.00  0.00    -0.271 OA
HETATM    4  H   UNL     1       3.821  26.146  54.321  1.00  0.00     0.169 HD
ENDROOT
BRANCH   2   5
HETATM    5  C   UNL     1       5.674  25.489  54.759  1.00  0.00     0.093 A 
HETATM    6  S   UNL     1       6.133  25.136  56.365  1.00  0.00    -0.075 SA
HETATM    7  C   UNL     1       7.191  23.966  55.829  1.00  0.00    -0.008 A 
HETATM    8  C   UNL     1       7.207  23.794  54.472  1.00  0.00    -0.026 A 
HETATM    9  C   UNL     1       8.142  23.111  56.576  1.00  0.00     0.047 C 
HETATM   10  C   UNL     1       8.209  22.760  54.096  1.00  0.00     0.041 C 
HETATM   11  C   UNL     1       6.313  24.685  53.806  1.00  0.00     0.072 A 
HETATM   12  C   UNL     1       8.576  22.111  55.467  1.00  0.00     0.010 C 
BRANCH  11  13
HETATM   13  C   UNL     1       6.058  24.870  52.376  1.00  0.00     0.252 C 
HETATM   14  N   UNL     1       7.112  25.210  51.587  1.00  0.00    -0.366 N 
HETATM   15  H   UNL     1       8.067  25.190  51.906  1.00  0.00     0.159 HD
HETATM   16  H   UNL     1       6.956  25.256  50.588  1.00  0.00     0.159 HD
HETATM   17  O   UNL     1       4.939  24.704  51.888  1.00  0.00    -0.268 OA
ENDBRANCH  11  13
ENDBRANCH   2   5
BRANCH   1  18
HETATM   18  C   UNL     1       3.857  28.595  53.652  1.00  0.00     0.335 C 
BRANCH  18  19
HETATM   19  N   UNL     1       3.521  28.135  52.253  1.00  0.00    -0.057 N 
HETATM   20  H   UNL     1       2.779  28.786  51.930  1.00  0.00     0.278 HD
HETATM   21  H   UNL     1       3.094  27.205  52.273  1.00  0.00     0.278 HD
BRANCH  19  22
HETATM   22  C   UNL     1       4.594  28.192  51.199  1.00  0.00     0.239 C 
HETATM   23  C   UNL     1       5.109  29.617  51.040  1.00  0.00     0.047 C 
BRANCH  22  24
HETATM   24  C   UNL     1       4.166  27.556  49.925  1.00  0.00     0.082 A 
HETATM   25  O   UNL     1       2.939  27.955  49.477  1.00  0.00    -0.325 OA
HETATM   26  C   UNL     1       2.712  27.314  48.302  1.00  0.00     0.142 A 
HETATM   27  C   UNL     1       3.777  26.505  47.987  1.00  0.00     0.027 A 
HETATM   28  C   UNL     1       4.719  26.657  49.035  1.00  0.00     0.037 A 
ENDBRANCH  22  24
ENDBRANCH  19  22
ENDBRANCH  18  19
ENDBRANCH   1  18
TORSDOF 6
ENDMDL
MODEL 8
REMARK VINA RESULT:      -7.5      2.154      3.156
REMARK  6 active torsions:
REMARK  status: ('A' for Active; 'I' for Inactive)
REMARK    1  A    between atoms: C_2  and  N_3 
REMARK    2  A    between atoms: C_2  and  C_21 
REMARK    3  A    between atoms: N_3  and  C_6 
REMARK    4  A    between atoms: C_6  and  C_7 
REMARK       I    between atoms: C_7  and  N_8 
REMARK    5  A    between atoms: N_8  and  C_9 
REMARK    6  A    between atoms: C_16  and  C_17 
REMARK       I    between atoms: C_17  and  N_18 
ROOT
HETATM    1  C   UNL     1       6.597  28.064  55.854  1.00  0.00     0.248 C 
HETATM    2  N   UNL     1       6.138  26.773  55.969  1.00  0.00    -0.319 N 
HETATM    3  O   UNL     1       7.656  28.472  55.384  1.00  0.00    -0.271 OA
HETATM    4  H   UNL     1       5.211  26.597  56.362  1.00  0.00     0.169 HD
ENDROOT
BRANCH   2   5
HETATM    5  C   UNL     1       6.725  25.622  55.460  1.00  0.00     0.093 A 
HETATM    6  S   UNL     1       7.910  24.757  56.334  1.00  0.00    -0.075 SA
HETATM    7  C   UNL     1       8.091  23.685  55.071  1.00  0.00    -0.008 A 
HETATM    8  C   UNL     1       7.269  23.924  54.002  1.00  0.00    -0.026 A 
HETATM    9  C   UNL     1       9.018  22.543  54.901  1.00  0.00     0.047 C 
HETATM   10  C   UNL     1       7.537  22.939  52.919  1.00  0.00     0.041 C 
HETATM   11  C   UNL     1       6.443  25.069  54.204  1.00  0.00     0.072 A 
HETATM   12  C   UNL     1       8.434  21.874  53.624  1.00  0.00     0.010 C 
BRANCH  11  13
HETATM   13  C   UNL     1       5.470  25.698  53.309  1.00  0.00     0.252 C 
HETATM   14  N   UNL     1       4.260  25.093  53.169  1.00  0.00    -0.366 N 
HETATM   15  H   UNL     1       3.952  24.336  53.757  1.00  0.00     0.159 HD
HETATM   16  H   UNL     1       3.557  25.569  52.618  1.00  0.00     0.159 HD
HETATM   17  O   UNL     1       5.717  26.749  52.715  1.00  0.00    -0.268 OA
ENDBRANCH  11  13
ENDBRANCH   2   5
BRANCH   1  18
HETATM   18  C   UNL     1       5.573  29.109  56.288  1.00  0.00     0.335 C 
BRANCH  18  19
HETATM   19  N   UNL     1       5.729  29.440  57.754  1.00  0.00    -0.057 N 
HETATM   20  H   UNL     1       6.618  28.984  58.036  1.00  0.00     0.278 HD
HETATM   21  H   UNL     1       4.992  28.990  58.305  1.00  0.00     0.278 HD
BRANCH  19  22
HETATM   22  C   UNL     1       5.871  30.883  58.157  1.00  0.00     0.239 C 
HETATM   23  C   UNL     1       5.386  31.797  57.038  1.00  0.00     0.047 C 
BRANCH  22  24
HETATM   24  C   UNL     1       7.238  31.199  58.648  1.00  0.00     0.082 A 
HETATM   25  O   UNL     1       8.237  30.498  58.035  1.00  0.00    -0.325 OA
HETATM   26  C   UNL     1       9.410  30.920  58.569  1.00  0.00     0.142 A 
HETATM   27  C   UNL     1       9.182  31.884  59.522  1.00  0.00     0.027 A 
HETATM   28  C   UNL     1       7.777  32.066  59.577  1.00  0.00     0.037 A 
ENDBRANCH  22  24
ENDBRANCH  19  22
ENDBRANCH  18  19
ENDBRANCH   1  18
TORSDOF 6
ENDMDL
MODEL 9
REMARK VINA RESULT:      -7.5      2.228      3.157
REMARK  6 active torsions:
REMARK  status: ('A' for Active; 'I' for Inactive)
REMARK    1  A    between atoms: C_2  and  N_3 
REMARK    2  A    between atoms: C_2  and  C_21 
REMARK    3  A    between atoms: N_3  and  C_6 
REMARK    4  A    between atoms: C_6  and  C_7 
REMARK       I    between atoms: C_7  and  N_8 
REMARK    5  A    between atoms: N_8  and  C_9 
REMARK    6  A    between atoms: C_16  and  C_17 
REMARK       I    between atoms: C_17  and  N_18 
ROOT
HETATM    1  C   UNL     1       5.476  27.451  54.311  1.00  0.00     0.248 C 
HETATM    2  N   UNL     1       5.256  26.204  54.849  1.00  0.00    -0.319 N 
HETATM    3  O   UNL     1       6.454  27.871  53.698  1.00  0.00    -0.271 OA
HETATM    4  H   UNL     1       4.368  26.000  55.311  1.00  0.00     0.169 HD
ENDROOT
BRANCH   2   5
HETATM    5  C   UNL     1       6.054  25.075  54.710  1.00  0.00     0.093 A 
HETATM    6  S   UNL     1       6.846  24.369  56.047  1.00  0.00    -0.075 SA
HETATM    7  C   UNL     1       7.559  23.237  55.054  1.00  0.00    -0.008 A 
HETATM    8  C   UNL     1       7.209  23.339  53.735  1.00  0.00    -0.026 A 
HETATM    9  C   UNL     1       8.537  22.166  55.358  1.00  0.00     0.047 C 
HETATM   10  C   UNL     1       7.928  22.312  52.931  1.00  0.00     0.041 C 
HETATM   11  C   UNL     1       6.312  24.423  53.498  1.00  0.00     0.072 A 
HETATM   12  C   UNL     1       8.531  21.372  54.021  1.00  0.00     0.010 C 
BRANCH  11  13
HETATM   13  C   UNL     1       5.734  24.911  52.245  1.00  0.00     0.252 C 
HETATM   14  N   UNL     1       6.548  25.608  51.406  1.00  0.00    -0.366 N 
HETATM   15  H   UNL     1       7.546  25.668  51.531  1.00  0.00     0.159 HD
HETATM   16  H   UNL     1       6.176  25.874  50.504  1.00  0.00     0.159 HD
HETATM   17  O   UNL     1       4.562  24.689  51.938  1.00  0.00    -0.268 OA
ENDBRANCH  11  13
ENDBRANCH   2   5
BRANCH   1  18
HETATM   18  C   UNL     1       4.270  28.379  54.428  1.00  0.00     0.335 C 
BRANCH  18  19
HETATM   19  N   UNL     1       4.570  29.541  55.347  1.00  0.00    -0.057 N 
HETATM   20  H   UNL     1       3.690  30.089  55.379  1.00  0.00     0.278 HD
HETATM   21  H   UNL     1       5.274  30.156  54.929  1.00  0.00     0.278 HD
BRANCH  19  22
HETATM   22  C   UNL     1       4.919  29.252  56.782  1.00  0.00     0.239 C 
HETATM   23  C   UNL     1       4.385  30.354  57.690  1.00  0.00     0.047 C 
BRANCH  22  24
HETATM   24  C   UNL     1       6.366  28.964  56.963  1.00  0.00     0.082 A 
HETATM   25  O   UNL     1       7.202  29.839  56.331  1.00  0.00    -0.325 OA
HETATM   26  C   UNL     1       8.473  29.460  56.617  1.00  0.00     0.142 A 
HETATM   27  C   UNL     1       8.468  28.350  57.427  1.00  0.00     0.027 A 
HETATM   28  C   UNL     1       7.107  28.025  57.652  1.00  0.00     0.037 A 
ENDBRANCH  22  24
ENDBRANCH  19  22
ENDBRANCH  18  19
ENDBRANCH   1  18
TORSDOF 6
ENDMDL
MODEL 10
REMARK VINA RESULT:      -7.5      2.786      4.922
REMARK  6 active torsions:
REMARK  status: ('A' for Active; 'I' for Inactive)
REMARK    1  A    between atoms: C_2  and  N_3 
REMARK    2  A    between atoms: C_2  and  C_21 
REMARK    3  A    between atoms: N_3  and  C_6 
REMARK    4  A    between atoms: C_6  and  C_7 
REMARK       I    between atoms: C_7  and  N_8 
REMARK    5  A    between atoms: N_8  and  C_9 
REMARK    6  A    between atoms: C_16  and  C_17 
REMARK       I    between atoms: C_17  and  N_18 
ROOT
HETATM    1  C   UNL     1       6.811  27.194  55.453  1.00  0.00     0.248 C 
HETATM    2  N   UNL     1       6.149  26.082  54.988  1.00  0.00    -0.319 N 
HETATM    3  O   UNL     1       7.920  27.275  55.974  1.00  0.00    -0.271 OA
HETATM    4  H   UNL     1       5.232  26.185  54.549  1.00  0.00     0.169 HD
ENDROOT
BRANCH   2   5
HETATM    5  C   UNL     1       6.644  24.788  54.888  1.00  0.00     0.093 A 
HETATM    6  S   UNL     1       7.107  23.896  56.268  1.00  0.00    -0.075 SA
HETATM    7  C   UNL     1       7.597  22.625  55.308  1.00  0.00    -0.008 A 
HETATM    8  C   UNL     1       7.406  22.820  53.967  1.00  0.00    -0.026 A 
HETATM    9  C   UNL     1       8.240  21.339  55.665  1.00  0.00     0.047 C 
HETATM   10  C   UNL     1       7.911  21.648  53.200  1.00  0.00     0.041 C 
HETATM   11  C   UNL     1       6.838  24.098  53.684  1.00  0.00     0.072 A 
HETATM   12  C   UNL     1       8.156  20.579  54.311  1.00  0.00     0.010 C 
BRANCH  11  13
HETATM   13  C   UNL     1       6.519  24.724  52.400  1.00  0.00     0.252 C 
HETATM   14  N   UNL     1       7.558  25.055  51.586  1.00  0.00    -0.366 N 
HETATM   15  H   UNL     1       8.505  24.754  51.753  1.00  0.00     0.159 HD
HETATM   16  H   UNL     1       7.338  25.410  50.664  1.00  0.00     0.159 HD
HETATM   17  O   UNL     1       5.358  24.930  52.047  1.00  0.00    -0.268 OA
ENDBRANCH  11  13
ENDBRANCH   2   5
BRANCH   1  18
HETATM   18  C   UNL     1       6.072  28.499  55.169  1.00  0.00     0.335 C 
BRANCH  18  19
HETATM   19  N   UNL     1       6.203  28.887  53.715  1.00  0.00    -0.057 N 
HETATM   20  H   UNL     1       6.701  28.092  53.271  1.00  0.00     0.278 HD
HETATM   21  H   UNL     1       6.818  29.699  53.613  1.00  0.00     0.278 HD
BRANCH  19  22
HETATM   22  C   UNL     1       4.950  29.081  52.905  1.00  0.00     0.239 C 
HETATM   23  C   UNL     1       3.852  28.142  53.391  1.00  0.00     0.047 C 
BRANCH  22  24
HETATM   24  C   UNL     1       5.207  29.008  51.442  1.00  0.00     0.082 A 
HETATM   25  O   UNL     1       5.679  30.164  50.891  1.00  0.00    -0.325 OA
HETATM   26  C   UNL     1       5.890  29.925  49.572  1.00  0.00     0.142 A 
HETATM   27  C   UNL     1       5.558  28.628  49.264  1.00  0.00     0.027 A 
HETATM   28  C   UNL     1       5.114  28.031  50.471  1.00  0.00     0.037 A 
ENDBRANCH  22  24
ENDBRANCH  19  22
ENDBRANCH  18  19
ENDBRANCH   1  18
TORSDOF 6
ENDMDL
