MODEL 1
REMARK VINA RESULT:      -9.8      0.000      0.000
REMARK  6 active torsions:
REMARK  status: ('A' for Active; 'I' for Inactive)
REMARK    1  A    between atoms: C_2  and  C_4 
REMARK    2  A    between atoms: C_2  and  C_11 
REMARK    3  A    between atoms: C_2  and  O_3 
REMARK    4  A    between atoms: C_11  and  N_12 
REMARK       I    between atoms: N_12  and  C_13 
REMARK    5  A    between atoms: C_13  and  C_14 
REMARK    6  A    between atoms: C_18  and  C_19 
ROOT
HETATM    1  N   UNL     1       7.822  27.054  56.428  1.00  0.00    -0.352 N 
HETATM    2  C   UNL     1       8.205  28.285  55.949  1.00  0.00     0.272 C 
HETATM    3  O   UNL     1       8.200  28.587  54.759  1.00  0.00    -0.266 OA
HETATM    4  H   UNL     1       7.966  26.911  57.423  1.00  0.00     0.162 HD
ENDROOT
BRANCH   2   5
HETATM    5  C   UNL     1       8.613  29.217  57.010  1.00  0.00     0.146 A 
HETATM    6  N   UNL     1       9.754  29.931  56.940  1.00  0.00    -0.169 NA
HETATM    7  N   UNL     1       9.779  30.610  58.100  1.00  0.00    -0.277 N 
HETATM    8  H   UNL     1      10.583  31.197  58.288  1.00  0.00     0.189 HD
HETATM    9  C   UNL     1       8.689  30.406  58.910  1.00  0.00     0.063 A 
HETATM   10  C   UNL     1       7.919  29.492  58.215  1.00  0.00     0.071 A 
BRANCH   9  11
HETATM   11  C   UNL     1       8.496  31.042  60.217  1.00  0.00    -0.008 A 
HETATM   12  C   UNL     1       7.739  32.216  60.361  1.00  0.00     0.017 A 
HETATM   13  C   UNL     1       7.570  32.809  61.616  1.00  0.00     0.043 A 
HETATM   14  C   UNL     1       8.152  32.228  62.735  1.00  0.00     0.116 A 
HETATM   15  F   UNL     1       7.989  32.797  63.936  1.00  0.00    -0.206 F 
HETATM   16  C   UNL     1       8.900  31.065  62.623  1.00  0.00     0.043 A 
HETATM   17  C   UNL     1       9.070  30.474  61.367  1.00  0.00     0.017 A 
ENDBRANCH   9  11
ENDBRANCH   2   5
BRANCH   1  18
HETATM   18  C   UNL     1       7.410  25.950  55.577  1.00  0.00     0.165 C 
BRANCH  18  19
HETATM   19  C   UNL     1       7.630  24.560  56.238  1.00  0.00     0.097 C 
HETATM   20  C   UNL     1       8.881  24.622  57.123  1.00  0.00     0.053 C 
BRANCH  19  21
HETATM   21  C   UNL     1       7.743  23.368  55.281  1.00  0.00    -0.023 A 
HETATM   22  C   UNL     1       7.782  22.036  55.731  1.00  0.00     0.013 A 
HETATM   23  C   UNL     1       7.889  20.975  54.828  1.00  0.00     0.043 A 
HETATM   24  C   UNL     1       7.940  21.233  53.465  1.00  0.00     0.116 A 
HETATM   25  F   UNL     1       8.043  20.215  52.602  1.00  0.00    -0.206 F 
HETATM   26  C   UNL     1       7.879  22.533  52.985  1.00  0.00     0.043 A 
HETATM   27  C   UNL     1       7.775  23.593  53.888  1.00  0.00     0.013 A 
ENDBRANCH  19  21
BRANCH  19  28
HETATM   28  O   UNL     1       6.504  24.344  57.113  1.00  0.00    -0.384 OA
HETATM   29  H   UNL     1       6.372  23.381  57.152  1.00  0.00     0.211 HD
ENDBRANCH  19  28
ENDBRANCH  18  19
ENDBRANCH   1  18
TORSDOF 6
ENDMDL
MODEL 2
REMARK VINA RESULT:      -9.8      1.899     10.336
REMARK  6 active torsions:
REMARK  status: ('A' for Active; 'I' for Inactive)
REMARK    1  A    between atoms: C_2  and  C_4 
REMARK    2  A    between atoms: C_2  and  C_11 
REMARK    3  A    between atoms: C_2  and  O_3 
REMARK    4  A    between atoms: C_11  and  N_12 
REMARK       I    between atoms: N_12  and  C_13 
REMARK    5  A    between atoms: C_13  and  C_14 
REMARK    6  A    between atoms: C_18  and  C_19 
ROOT
HETATM    1  N   UNL     1       7.412  29.914  58.567  1.00  0.00    -0.352 N 
HETATM    2  C   UNL     1       6.970  29.478  57.340  1.00  0.00     0.272 C 
HETATM    3  O   UNL     1       6.370  30.187  56.539  1.00  0.00    -0.266 OA
HETATM    4  H   UNL     1       7.811  29.196  59.166  1.00  0.00     0.162 HD
ENDROOT
BRANCH   2   5
HETATM    5  C   UNL     1       7.300  28.070  57.074  1.00  0.00     0.146 A 
HETATM    6  N   UNL     1       7.921  27.292  57.982  1.00  0.00    -0.169 NA
HETATM    7  N   UNL     1       8.074  26.117  57.347  1.00  0.00    -0.277 N 
HETATM    8  H   UNL     1       8.564  25.376  57.835  1.00  0.00     0.189 HD
HETATM    9  C   UNL     1       7.547  26.075  56.080  1.00  0.00     0.063 A 
HETATM   10  C   UNL     1       7.042  27.347  55.882  1.00  0.00     0.071 A 
BRANCH   9  11
HETATM   11  C   UNL     1       7.592  24.901  55.202  1.00  0.00    -0.008 A 
HETATM   12  C   UNL     1       7.697  25.028  53.807  1.00  0.00     0.017 A 
HETATM   13  C   UNL     1       7.734  23.896  52.987  1.00  0.00     0.043 A 
HETATM   14  C   UNL     1       7.674  22.631  53.557  1.00  0.00     0.116 A 
HETATM   15  F   UNL     1       7.711  21.548  52.770  1.00  0.00    -0.206 F 
HETATM   16  C   UNL     1       7.576  22.477  54.933  1.00  0.00     0.043 A 
HETATM   17  C   UNL     1       7.536  23.609  55.752  1.00  0.00     0.017 A 
ENDBRANCH   9  11
ENDBRANCH   2   5
BRANCH   1  18
HETATM   18  C   UNL     1       7.181  31.254  59.079  1.00  0.00     0.165 C 
BRANCH  18  19
HETATM   19  C   UNL     1       8.249  31.700  60.117  1.00  0.00     0.097 C 
HETATM   20  C   UNL     1       9.091  30.483  60.520  1.00  0.00     0.053 C 
BRANCH  19  21
HETATM   21  C   UNL     1       7.716  32.389  61.380  1.00  0.00    -0.023 A 
HETATM   22  C   UNL     1       6.564  33.194  61.374  1.00  0.00     0.013 A 
HETATM   23  C   UNL     1       6.110  33.808  62.545  1.00  0.00     0.043 A 
HETATM   24  C   UNL     1       6.795  33.610  63.736  1.00  0.00     0.116 A 
HETATM   25  F   UNL     1       6.358  34.200  64.856  1.00  0.00    -0.206 F 
HETATM   26  C   UNL     1       7.920  32.801  63.783  1.00  0.00     0.043 A 
HETATM   27  C   UNL     1       8.375  32.190  62.612  1.00  0.00     0.013 A 
ENDBRANCH  19  21
BRANCH  19  28
HETATM   28  O   UNL     1       9.127  32.613  59.429  1.00  0.00    -0.384 OA
HETATM   29  H   UNL     1       8.591  33.397  59.216  1.00  0.00     0.211 HD
ENDBRANCH  19  28
ENDBRANCH  18  19
ENDBRANCH   1  18
TORSDOF 6
ENDMDL
MODEL 3
REMARK VINA RESULT:      -9.6      1.206      1.805
REMARK  6 active torsions:
REMARK  status: ('A' for Active; 'I' for Inactive)
REMARK    1  A    between atoms: C_2  and  C_4 
REMARK    2  A    between atoms: C_2  and  C_11 
REMARK    3  A    between atoms: C_2  and  O_3 
REMARK    4  A    between atoms: C_11  and  N_12 
REMARK       I    between atoms: N_12  and  C_13 
REMARK    5  A    between atoms: C_13  and  C_14 
REMARK    6  A    between atoms: C_18  and  C_19 
ROOT
HETATM    1  N   UNL     1       7.478  27.346  55.462  1.00  0.00    -0.352 N 
HETATM    2  C   UNL     1       7.000  28.608  55.720  1.00  0.00     0.272 C 
HETATM    3  O   UNL     1       6.067  29.123  55.111  1.00  0.00    -0.266 OA
HETATM    4  H   UNL     1       8.314  27.083  55.977  1.00  0.00     0.162 HD
ENDROOT
BRANCH   2   5
HETATM    5  C   UNL     1       7.712  29.284  56.814  1.00  0.00     0.146 A 
HETATM    6  N   UNL     1       9.048  29.461  56.802  1.00  0.00    -0.169 NA
HETATM    7  N   UNL     1       9.302  30.066  57.975  1.00  0.00    -0.277 N 
HETATM    8  H   UNL     1      10.269  30.265  58.205  1.00  0.00     0.189 HD
HETATM    9  C   UNL     1       8.192  30.329  58.740  1.00  0.00     0.063 A 
HETATM   10  C   UNL     1       7.143  29.818  57.998  1.00  0.00     0.071 A 
BRANCH   9  11
HETATM   11  C   UNL     1       8.225  30.984  60.051  1.00  0.00    -0.008 A 
HETATM   12  C   UNL     1       9.096  30.555  61.067  1.00  0.00     0.017 A 
HETATM   13  C   UNL     1       9.110  31.190  62.312  1.00  0.00     0.043 A 
HETATM   14  C   UNL     1       8.258  32.262  62.548  1.00  0.00     0.116 A 
HETATM   15  F   UNL     1       8.274  32.869  63.740  1.00  0.00    -0.206 F 
HETATM   16  C   UNL     1       7.393  32.710  61.560  1.00  0.00     0.043 A 
HETATM   17  C   UNL     1       7.378  32.073  60.316  1.00  0.00     0.017 A 
ENDBRANCH   9  11
ENDBRANCH   2   5
BRANCH   1  18
HETATM   18  C   UNL     1       6.966  26.488  54.406  1.00  0.00     0.165 C 
BRANCH  18  19
HETATM   19  C   UNL     1       6.296  25.193  54.947  1.00  0.00     0.097 C 
HETATM   20  C   UNL     1       6.236  25.266  56.478  1.00  0.00     0.053 C 
BRANCH  19  21
HETATM   21  C   UNL     1       6.948  23.870  54.527  1.00  0.00    -0.023 A 
HETATM   22  C   UNL     1       7.257  23.571  53.188  1.00  0.00     0.013 A 
HETATM   23  C   UNL     1       7.849  22.352  52.843  1.00  0.00     0.043 A 
HETATM   24  C   UNL     1       8.153  21.429  53.834  1.00  0.00     0.116 A 
HETATM   25  F   UNL     1       8.719  20.262  53.500  1.00  0.00    -0.206 F 
HETATM   26  C   UNL     1       7.885  21.703  55.167  1.00  0.00     0.043 A 
HETATM   27  C   UNL     1       7.291  22.920  55.511  1.00  0.00     0.013 A 
ENDBRANCH  19  21
BRANCH  19  28
HETATM   28  O   UNL     1       4.936  25.210  54.469  1.00  0.00    -0.384 OA
HETATM   29  H   UNL     1       4.793  24.355  54.026  1.00  0.00     0.211 HD
ENDBRANCH  19  28
ENDBRANCH  18  19
ENDBRANCH   1  18
TORSDOF 6
ENDMDL
MODEL 4
REMARK VINA RESULT:      -9.3      1.690      2.078
REMARK  6 active torsions:
REMARK  status: ('A' for Active; 'I' for Inactive)
REMARK    1  A    between atoms: C_2  and  C_4 
REMARK    2  A    between atoms: C_2  and  C_11 
REMARK    3  A    between atoms: C_2  and  O_3 
REMARK    4  A    between atoms: C_11  and  N_12 
REMARK       I    between atoms: N_12  and  C_13 
REMARK    5  A    between atoms: C_13  and  C_14 
REMARK    6  A    between atoms: C_18  and  C_19 
ROOT
HETATM    1  N   UNL     1       6.461  28.109  55.415  1.00  0.00    -0.352 N 
HETATM    2  C   UNL     1       7.512  28.923  55.763  1.00  0.00     0.272 C 
HETATM    3  O   UNL     1       8.593  28.928  55.183  1.00  0.00    -0.266 OA
HETATM    4  H   UNL     1       5.659  28.141  56.040  1.00  0.00     0.162 HD
ENDROOT
BRANCH   2   5
HETATM    5  C   UNL     1       7.210  29.804  56.901  1.00  0.00     0.146 A 
HETATM    6  N   UNL     1       6.158  30.646  56.898  1.00  0.00    -0.169 NA
HETATM    7  N   UNL     1       6.257  31.287  58.076  1.00  0.00    -0.277 N 
HETATM    8  H   UNL     1       5.579  32.012  58.279  1.00  0.00     0.189 HD
HETATM    9  C   UNL     1       7.302  30.878  58.867  1.00  0.00     0.063 A 
HETATM   10  C   UNL     1       7.940  29.912  58.111  1.00  0.00     0.071 A 
BRANCH   9  11
HETATM   11  C   UNL     1       7.605  31.431  60.191  1.00  0.00    -0.008 A 
HETATM   12  C   UNL     1       8.863  31.257  60.792  1.00  0.00     0.017 A 
HETATM   13  C   UNL     1       9.131  31.790  62.057  1.00  0.00     0.043 A 
HETATM   14  C   UNL     1       8.145  32.503  62.726  1.00  0.00     0.116 A 
HETATM   15  F   UNL     1       8.404  33.013  63.937  1.00  0.00    -0.206 F 
HETATM   16  C   UNL     1       6.896  32.695  62.153  1.00  0.00     0.043 A 
HETATM   17  C   UNL     1       6.628  32.160  60.890  1.00  0.00     0.017 A 
ENDBRANCH   9  11
ENDBRANCH   2   5
BRANCH   1  18
HETATM   18  C   UNL     1       6.521  27.125  54.347  1.00  0.00     0.165 C 
BRANCH  18  19
HETATM   19  C   UNL     1       6.021  25.720  54.787  1.00  0.00     0.097 C 
HETATM   20  C   UNL     1       5.757  25.736  56.298  1.00  0.00     0.053 C 
BRANCH  19  21
HETATM   21  C   UNL     1       6.936  24.539  54.444  1.00  0.00    -0.023 A 
HETATM   22  C   UNL     1       7.823  23.973  55.376  1.00  0.00     0.013 A 
HETATM   23  C   UNL     1       8.645  22.898  55.025  1.00  0.00     0.043 A 
HETATM   24  C   UNL     1       8.575  22.367  53.744  1.00  0.00     0.116 A 
HETATM   25  F   UNL     1       9.364  21.338  53.410  1.00  0.00    -0.206 F 
HETATM   26  C   UNL     1       7.693  22.885  52.808  1.00  0.00     0.043 A 
HETATM   27  C   UNL     1       6.874  23.961  53.158  1.00  0.00     0.013 A 
ENDBRANCH  19  21
BRANCH  19  28
HETATM   28  O   UNL     1       4.748  25.521  54.139  1.00  0.00    -0.384 OA
HETATM   29  H   UNL     1       4.921  25.564  53.182  1.00  0.00     0.211 HD
ENDBRANCH  19  28
ENDBRANCH  18  19
ENDBRANCH   1  18
TORSDOF 6
ENDMDL
MODEL 5
REMARK VINA RESULT:      -9.1      1.712      2.185
REMARK  6 active torsions:
REMARK  status: ('A' for Active; 'I' for Inactive)
REMARK    1  A    between atoms: C_2  and  C_4 
REMARK    2  A    between atoms: C_2  and  C_11 
REMARK    3  A    between atoms: C_2  and  O_3 
REMARK    4  A    between atoms: C_11  and  N_12 
REMARK       I    between atoms: N_12  and  C_13 
REMARK    5  A    between atoms: C_13  and  C_14 
REMARK    6  A    between atoms: C_18  and  C_19 
ROOT
HETATM    1  N   UNL     1       8.256  29.163  56.273  1.00  0.00    -0.352 N 
HETATM    2  C   UNL     1       9.447  29.781  56.573  1.00  0.00     0.272 C 
HETATM    3  O   UNL     1      10.464  29.671  55.895  1.00  0.00    -0.266 OA
HETATM    4  H   UNL     1       7.524  29.265  56.971  1.00  0.00     0.162 HD
ENDROOT
BRANCH   2   5
HETATM    5  C   UNL     1       9.380  30.604  57.789  1.00  0.00     0.146 A 
HETATM    6  N   UNL     1      10.379  31.433  58.152  1.00  0.00    -0.169 NA
HETATM    7  N   UNL     1       9.956  31.956  59.316  1.00  0.00    -0.277 N 
HETATM    8  H   UNL     1      10.577  32.592  59.803  1.00  0.00     0.189 HD
HETATM    9  C   UNL     1       8.709  31.539  59.714  1.00  0.00     0.063 A 
HETATM   10  C   UNL     1       8.321  30.649  58.730  1.00  0.00     0.071 A 
BRANCH   9  11
HETATM   11  C   UNL     1       8.043  31.977  60.944  1.00  0.00    -0.008 A 
HETATM   12  C   UNL     1       6.702  32.395  60.947  1.00  0.00     0.017 A 
HETATM   13  C   UNL     1       6.085  32.812  62.131  1.00  0.00     0.043 A 
HETATM   14  C   UNL     1       6.803  32.809  63.319  1.00  0.00     0.116 A 
HETATM   15  F   UNL     1       6.211  33.208  64.451  1.00  0.00    -0.206 F 
HETATM   16  C   UNL     1       8.128  32.395  63.346  1.00  0.00     0.043 A 
HETATM   17  C   UNL     1       8.744  31.980  62.162  1.00  0.00     0.017 A 
ENDBRANCH   9  11
ENDBRANCH   2   5
BRANCH   1  18
HETATM   18  C   UNL     1       8.074  28.269  55.142  1.00  0.00     0.165 C 
BRANCH  18  19
HETATM   19  C   UNL     1       7.102  27.094  55.447  1.00  0.00     0.097 C 
HETATM   20  C   UNL     1       7.158  26.779  56.947  1.00  0.00     0.053 C 
BRANCH  19  21
HETATM   21  C   UNL     1       7.330  25.804  54.649  1.00  0.00    -0.023 A 
HETATM   22  C   UNL     1       7.141  24.527  55.205  1.00  0.00     0.013 A 
HETATM   23  C   UNL     1       7.361  23.374  54.446  1.00  0.00     0.043 A 
HETATM   24  C   UNL     1       7.756  23.487  53.120  1.00  0.00     0.116 A 
HETATM   25  F   UNL     1       7.967  22.380  52.396  1.00  0.00    -0.206 F 
HETATM   26  C   UNL     1       7.927  24.731  52.533  1.00  0.00     0.043 A 
HETATM   27  C   UNL     1       7.710  25.883  53.293  1.00  0.00     0.013 A 
ENDBRANCH  19  21
BRANCH  19  28
HETATM   28  O   UNL     1       5.775  27.581  55.167  1.00  0.00    -0.384 OA
HETATM   29  H   UNL     1       5.201  27.226  55.868  1.00  0.00     0.211 HD
ENDBRANCH  19  28
ENDBRANCH  18  19
ENDBRANCH   1  18
TORSDOF 6
ENDMDL
MODEL 6
REMARK VINA RESULT:      -9.0      6.681      9.856
REMARK  6 active torsions:
REMARK  status: ('A' for Active; 'I' for Inactive)
REMARK    1  A    between atoms: C_2  and  C_4 
REMARK    2  A    between atoms: C_2  and  C_11 
REMARK    3  A    between atoms: C_2  and  O_3 
REMARK    4  A    between atoms: C_11  and  N_12 
REMARK       I    between atoms: N_12  and  C_13 
REMARK    5  A    between atoms: C_13  and  C_14 
REMARK    6  A    between atoms: C_18  and  C_19 
ROOT
HETATM    1  N   UNL     1       4.786  27.108  51.960  1.00  0.00    -0.352 N 
HETATM    2  C   UNL     1       4.672  27.164  53.329  1.00  0.00     0.272 C 
HETATM    3  O   UNL     1       4.042  28.030  53.928  1.00  0.00    -0.266 OA
HETATM    4  H   UNL     1       5.413  26.393  51.604  1.00  0.00     0.162 HD
ENDROOT
BRANCH   2   5
HETATM    5  C   UNL     1       5.373  26.067  54.013  1.00  0.00     0.146 A 
HETATM    6  N   UNL     1       5.558  26.053  55.347  1.00  0.00    -0.169 NA
HETATM    7  N   UNL     1       6.263  24.928  55.562  1.00  0.00    -0.277 N 
HETATM    8  H   UNL     1       6.556  24.727  56.511  1.00  0.00     0.189 HD
HETATM    9  C   UNL     1       6.515  24.184  54.436  1.00  0.00     0.063 A 
HETATM   10  C   UNL     1       5.946  24.918  53.412  1.00  0.00     0.071 A 
BRANCH   9  11
HETATM   11  C   UNL     1       7.260  22.921  54.427  1.00  0.00    -0.008 A 
HETATM   12  C   UNL     1       7.624  22.272  55.619  1.00  0.00     0.017 A 
HETATM   13  C   UNL     1       8.337  21.069  55.589  1.00  0.00     0.043 A 
HETATM   14  C   UNL     1       8.687  20.507  54.368  1.00  0.00     0.116 A 
HETATM   15  F   UNL     1       9.369  19.356  54.341  1.00  0.00    -0.206 F 
HETATM   16  C   UNL     1       8.335  21.124  53.176  1.00  0.00     0.043 A 
HETATM   17  C   UNL     1       7.624  22.327  53.207  1.00  0.00     0.017 A 
ENDBRANCH   9  11
ENDBRANCH   2   5
BRANCH   1  18
HETATM   18  C   UNL     1       4.212  28.097  51.062  1.00  0.00     0.165 C 
BRANCH  18  19
HETATM   19  C   UNL     1       4.584  27.851  49.572  1.00  0.00     0.097 C 
HETATM   20  C   UNL     1       5.410  29.038  49.063  1.00  0.00     0.053 C 
BRANCH  19  21
HETATM   21  C   UNL     1       3.411  27.601  48.617  1.00  0.00    -0.023 A 
HETATM   22  C   UNL     1       2.295  28.453  48.548  1.00  0.00     0.013 A 
HETATM   23  C   UNL     1       1.244  28.191  47.665  1.00  0.00     0.043 A 
HETATM   24  C   UNL     1       1.305  27.083  46.830  1.00  0.00     0.116 A 
HETATM   25  F   UNL     1       0.296  26.834  45.987  1.00  0.00    -0.206 F 
HETATM   26  C   UNL     1       2.403  26.236  46.854  1.00  0.00     0.043 A 
HETATM   27  C   UNL     1       3.452  26.497  47.739  1.00  0.00     0.013 A 
ENDBRANCH  19  21
BRANCH  19  28
HETATM   28  O   UNL     1       5.447  26.697  49.555  1.00  0.00    -0.384 OA
HETATM   29  H   UNL     1       4.872  25.924  49.695  1.00  0.00     0.211 HD
ENDBRANCH  19  28
ENDBRANCH  18  19
ENDBRANCH   1  18
TORSDOF 6
ENDMDL
MODEL 7
REMARK VINA RESULT:      -9.0      6.350      9.391
REMARK  6 active torsions:
REMARK  status: ('A' for Active; 'I' for Inactive)
REMARK    1  A    between atoms: C_2  and  C_4 
REMARK    2  A    between atoms: C_2  and  C_11 
REMARK    3  A    between atoms: C_2  and  O_3 
REMARK    4  A    between atoms: C_11  and  N_12 
REMARK       I    between atoms: N_12  and  C_13 
REMARK    5  A    between atoms: C_13  and  C_14 
REMARK    6  A    between atoms: C_18  and  C_19 
ROOT
HETATM    1  N   UNL     1       4.220  27.616  52.417  1.00  0.00    -0.352 N 
HETATM    2  C   UNL     1       4.469  27.639  53.768  1.00  0.00     0.272 C 
HETATM    3  O   UNL     1       3.923  28.410  54.551  1.00  0.00    -0.266 OA
HETATM    4  H   UNL     1       4.812  26.990  51.876  1.00  0.00     0.162 HD
ENDROOT
BRANCH   2   5
HETATM    5  C   UNL     1       5.452  26.631  54.193  1.00  0.00     0.146 A 
HETATM    6  N   UNL     1       6.428  26.908  55.080  1.00  0.00    -0.169 NA
HETATM    7  N   UNL     1       7.122  25.759  55.162  1.00  0.00    -0.277 N 
HETATM    8  H   UNL     1       7.944  25.744  55.754  1.00  0.00     0.189 HD
HETATM    9  C   UNL     1       6.625  24.731  54.400  1.00  0.00     0.063 A 
HETATM   10  C   UNL     1       5.536  25.285  53.754  1.00  0.00     0.071 A 
BRANCH   9  11
HETATM   11  C   UNL     1       7.213  23.389  54.333  1.00  0.00    -0.008 A 
HETATM   12  C   UNL     1       7.586  22.808  53.110  1.00  0.00     0.017 A 
HETATM   13  C   UNL     1       8.142  21.526  53.067  1.00  0.00     0.043 A 
HETATM   14  C   UNL     1       8.335  20.820  54.248  1.00  0.00     0.116 A 
HETATM   15  F   UNL     1       8.868  19.593  54.205  1.00  0.00    -0.206 F 
HETATM   16  C   UNL     1       7.982  21.373  55.470  1.00  0.00     0.043 A 
HETATM   17  C   UNL     1       7.423  22.654  55.512  1.00  0.00     0.017 A 
ENDBRANCH   9  11
ENDBRANCH   2   5
BRANCH   1  18
HETATM   18  C   UNL     1       3.315  28.535  51.747  1.00  0.00     0.165 C 
BRANCH  18  19
HETATM   19  C   UNL     1       3.775  28.899  50.307  1.00  0.00     0.097 C 
HETATM   20  C   UNL     1       3.170  30.253  49.918  1.00  0.00     0.053 C 
BRANCH  19  21
HETATM   21  C   UNL     1       3.459  27.869  49.216  1.00  0.00    -0.023 A 
HETATM   22  C   UNL     1       4.422  26.972  48.720  1.00  0.00     0.013 A 
HETATM   23  C   UNL     1       4.096  26.048  47.723  1.00  0.00     0.043 A 
HETATM   24  C   UNL     1       2.801  26.000  47.224  1.00  0.00     0.116 A 
HETATM   25  F   UNL     1       2.493  25.115  46.268  1.00  0.00    -0.206 F 
HETATM   26  C   UNL     1       1.821  26.853  47.710  1.00  0.00     0.043 A 
HETATM   27  C   UNL     1       2.148  27.778  48.704  1.00  0.00     0.013 A 
ENDBRANCH  19  21
BRANCH  19  28
HETATM   28  O   UNL     1       5.205  29.078  50.372  1.00  0.00    -0.384 OA
HETATM   29  H   UNL     1       5.510  28.558  51.135  1.00  0.00     0.211 HD
ENDBRANCH  19  28
ENDBRANCH  18  19
ENDBRANCH   1  18
TORSDOF 6
ENDMDL
MODEL 8
REMARK VINA RESULT:      -8.6      5.970      9.177
REMARK  6 active torsions:
REMARK  status: ('A' for Active; 'I' for Inactive)
REMARK    1  A    between atoms: C_2  and  C_4 
REMARK    2  A    between atoms: C_2  and  C_11 
REMARK    3  A    between atoms: C_2  and  O_3 
REMARK    4  A    between atoms: C_11  and  N_12 
REMARK       I    between atoms: N_12  and  C_13 
REMARK    5  A    between atoms: C_13  and  C_14 
REMARK    6  A    between atoms: C_18  and  C_19 
ROOT
HETATM    1  N   UNL     1       6.835  26.499  53.478  1.00  0.00    -0.352 N 
HETATM    2  C   UNL     1       6.407  27.801  53.382  1.00  0.00     0.272 C 
HETATM    3  O   UNL     1       6.576  28.643  54.259  1.00  0.00    -0.266 OA
HETATM    4  H   UNL     1       6.545  25.888  52.719  1.00  0.00     0.162 HD
ENDROOT
BRANCH   2   5
HETATM    5  C   UNL     1       5.729  28.095  52.111  1.00  0.00     0.146 A 
HETATM    6  N   UNL     1       5.891  29.266  51.464  1.00  0.00    -0.169 NA
HETATM    7  N   UNL     1       5.086  29.155  50.393  1.00  0.00    -0.277 N 
HETATM    8  H   UNL     1       5.015  29.951  49.769  1.00  0.00     0.189 HD
HETATM    9  C   UNL     1       4.434  27.951  50.285  1.00  0.00     0.063 A 
HETATM   10  C   UNL     1       4.838  27.248  51.405  1.00  0.00     0.071 A 
BRANCH   9  11
HETATM   11  C   UNL     1       3.511  27.602  49.201  1.00  0.00    -0.008 A 
HETATM   12  C   UNL     1       2.470  28.463  48.814  1.00  0.00     0.017 A 
HETATM   13  C   UNL     1       1.598  28.110  47.780  1.00  0.00     0.043 A 
HETATM   14  C   UNL     1       1.765  26.898  47.122  1.00  0.00     0.116 A 
HETATM   15  F   UNL     1       0.930  26.563  46.131  1.00  0.00    -0.206 F 
HETATM   16  C   UNL     1       2.789  26.032  47.480  1.00  0.00     0.043 A 
HETATM   17  C   UNL     1       3.659  26.384  48.516  1.00  0.00     0.017 A 
ENDBRANCH   9  11
ENDBRANCH   2   5
BRANCH   1  18
HETATM   18  C   UNL     1       7.500  25.952  54.649  1.00  0.00     0.165 C 
BRANCH  18  19
HETATM   19  C   UNL     1       6.812  24.668  55.194  1.00  0.00     0.097 C 
HETATM   20  C   UNL     1       6.775  24.735  56.725  1.00  0.00     0.053 C 
BRANCH  19  21
HETATM   21  C   UNL     1       7.430  23.334  54.758  1.00  0.00    -0.023 A 
HETATM   22  C   UNL     1       7.495  22.934  53.412  1.00  0.00     0.013 A 
HETATM   23  C   UNL     1       8.064  21.708  53.053  1.00  0.00     0.043 A 
HETATM   24  C   UNL     1       8.590  20.879  54.035  1.00  0.00     0.116 A 
HETATM   25  F   UNL     1       9.133  19.706  53.689  1.00  0.00    -0.206 F 
HETATM   26  C   UNL     1       8.565  21.255  55.370  1.00  0.00     0.043 A 
HETATM   27  C   UNL     1       7.994  22.478  55.728  1.00  0.00     0.013 A 
ENDBRANCH  19  21
BRANCH  19  28
HETATM   28  O   UNL     1       5.446  24.715  54.735  1.00  0.00    -0.384 OA
HETATM   29  H   UNL     1       4.936  25.142  55.445  1.00  0.00     0.211 HD
ENDBRANCH  19  28
ENDBRANCH  18  19
ENDBRANCH   1  18
TORSDOF 6
ENDMDL
MODEL 9
REMARK VINA RESULT:      -8.3      7.262     10.011
REMARK  6 active torsions:
REMARK  status: ('A' for Active; 'I' for Inactive)
REMARK    1  A    between atoms: C_2  and  C_4 
REMARK    2  A    between atoms: C_2  and  C_11 
REMARK    3  A    between atoms: C_2  and  O_3 
REMARK    4  A    between atoms: C_11  and  N_12 
REMARK       I    between atoms: N_12  and  C_13 
REMARK    5  A    between atoms: C_13  and  C_14 
REMARK    6  A    between atoms: C_18  and  C_19 
ROOT
HETATM    1  N   UNL     1       5.032  25.429  51.878  1.00  0.00    -0.352 N 
HETATM    2  C   UNL     1       5.076  26.785  51.659  1.00  0.00     0.272 C 
HETATM    3  O   UNL     1       5.471  27.599  52.488  1.00  0.00    -0.266 OA
HETATM    4  H   UNL     1       4.595  24.882  51.141  1.00  0.00     0.162 HD
ENDROOT
BRANCH   2   5
HETATM    5  C   UNL     1       4.610  27.170  50.319  1.00  0.00     0.146 A 
HETATM    6  N   UNL     1       4.338  26.259  49.363  1.00  0.00    -0.169 NA
HETATM    7  N   UNL     1       3.992  27.004  48.299  1.00  0.00    -0.277 N 
HETATM    8  H   UNL     1       3.779  26.523  47.433  1.00  0.00     0.189 HD
HETATM    9  C   UNL     1       3.984  28.359  48.523  1.00  0.00     0.063 A 
HETATM   10  C   UNL     1       4.393  28.486  49.837  1.00  0.00     0.071 A 
BRANCH   9  11
HETATM   11  C   UNL     1       3.636  29.364  47.514  1.00  0.00    -0.008 A 
HETATM   12  C   UNL     1       2.305  29.587  47.124  1.00  0.00     0.017 A 
HETATM   13  C   UNL     1       1.994  30.548  46.158  1.00  0.00     0.043 A 
HETATM   14  C   UNL     1       3.011  31.297  45.580  1.00  0.00     0.116 A 
HETATM   15  F   UNL     1       2.711  32.217  44.655  1.00  0.00    -0.206 F 
HETATM   16  C   UNL     1       4.334  31.102  45.950  1.00  0.00     0.043 A 
HETATM   17  C   UNL     1       4.644  30.139  46.915  1.00  0.00     0.017 A 
ENDBRANCH   9  11
ENDBRANCH   2   5
BRANCH   1  18
HETATM   18  C   UNL     1       5.407  24.802  53.134  1.00  0.00     0.165 C 
BRANCH  18  19
HETATM   19  C   UNL     1       6.940  24.578  53.268  1.00  0.00     0.097 C 
HETATM   20  C   UNL     1       7.594  24.783  51.896  1.00  0.00     0.053 C 
BRANCH  19  21
HETATM   21  C   UNL     1       7.378  23.226  53.843  1.00  0.00    -0.023 A 
HETATM   22  C   UNL     1       7.348  22.944  55.220  1.00  0.00     0.013 A 
HETATM   23  C   UNL     1       7.758  21.699  55.707  1.00  0.00     0.043 A 
HETATM   24  C   UNL     1       8.184  20.719  54.821  1.00  0.00     0.116 A 
HETATM   25  F   UNL     1       8.577  19.528  55.291  1.00  0.00    -0.206 F 
HETATM   26  C   UNL     1       8.201  20.955  53.455  1.00  0.00     0.043 A 
HETATM   27  C   UNL     1       7.795  22.200  52.969  1.00  0.00     0.013 A 
ENDBRANCH  19  21
BRANCH  19  28
HETATM   28  O   UNL     1       7.429  25.626  54.129  1.00  0.00    -0.384 OA
HETATM   29  H   UNL     1       6.654  25.968  54.607  1.00  0.00     0.211 HD
ENDBRANCH  19  28
ENDBRANCH  18  19
ENDBRANCH   1  18
TORSDOF 6
ENDMDL
MODEL 10
REMARK VINA RESULT:      -8.2      6.515      8.657
REMARK  6 active torsions:
REMARK  status: ('A' for Active; 'I' for Inactive)
REMARK    1  A    between atoms: C_2  and  C_4 
REMARK    2  A    between atoms: C_2  and  C_11 
REMARK    3  A    between atoms: C_2  and  O_3 
REMARK    4  A    between atoms: C_11  and  N_12 
REMARK       I    between atoms: N_12  and  C_13 
REMARK    5  A    between atoms: C_13  and  C_14 
REMARK    6  A    between atoms: C_18  and  C_19 
ROOT
HETATM    1  N   UNL     1       5.565  26.218  52.519  1.00  0.00    -0.352 N 
HETATM    2  C   UNL     1       5.200  26.553  51.237  1.00  0.00     0.272 C 
HETATM    3  O   UNL     1       4.782  25.746  50.412  1.00  0.00    -0.266 OA
HETATM    4  H   UNL     1       5.983  26.968  53.063  1.00  0.00     0.162 HD
ENDROOT
BRANCH   2   5
HETATM    5  C   UNL     1       5.349  27.987  50.950  1.00  0.00     0.146 A 
HETATM    6  N   UNL     1       5.521  28.902  51.924  1.00  0.00    -0.169 NA
HETATM    7  N   UNL     1       5.570  30.071  51.262  1.00  0.00    -0.277 N 
HETATM    8  H   UNL     1       5.657  30.920  51.808  1.00  0.00     0.189 HD
HETATM    9  C   UNL     1       5.478  29.963  49.897  1.00  0.00     0.063 A 
HETATM   10  C   UNL     1       5.326  28.607  49.675  1.00  0.00     0.071 A 
BRANCH   9  11
HETATM   11  C   UNL     1       5.511  31.100  48.971  1.00  0.00    -0.008 A 
HETATM   12  C   UNL     1       4.770  31.101  47.778  1.00  0.00     0.017 A 
HETATM   13  C   UNL     1       4.818  32.194  46.907  1.00  0.00     0.043 A 
HETATM   14  C   UNL     1       5.602  33.294  47.227  1.00  0.00     0.116 A 
HETATM   15  F   UNL     1       5.646  34.340  46.392  1.00  0.00    -0.206 F 
HETATM   16  C   UNL     1       6.340  33.322  48.402  1.00  0.00     0.043 A 
HETATM   17  C   UNL     1       6.293  32.228  49.271  1.00  0.00     0.017 A 
ENDBRANCH   9  11
ENDBRANCH   2   5
BRANCH   1  18
HETATM   18  C   UNL     1       5.542  24.859  53.036  1.00  0.00     0.165 C 
BRANCH  18  19
HETATM   19  C   UNL     1       6.572  24.627  54.177  1.00  0.00     0.097 C 
HETATM   20  C   UNL     1       7.669  25.695  54.084  1.00  0.00     0.053 C 
BRANCH  19  21
HETATM   21  C   UNL     1       7.220  23.238  54.230  1.00  0.00    -0.023 A 
HETATM   22  C   UNL     1       7.648  22.558  53.076  1.00  0.00     0.013 A 
HETATM   23  C   UNL     1       8.232  21.291  53.164  1.00  0.00     0.043 A 
HETATM   24  C   UNL     1       8.409  20.698  54.407  1.00  0.00     0.116 A 
HETATM   25  F   UNL     1       8.967  19.484  54.487  1.00  0.00    -0.206 F 
HETATM   26  C   UNL     1       8.021  21.352  55.567  1.00  0.00     0.043 A 
HETATM   27  C   UNL     1       7.435  22.617  55.479  1.00  0.00     0.013 A 
ENDBRANCH  19  21
BRANCH  19  28
HETATM   28  O   UNL     1       5.865  24.853  55.413  1.00  0.00    -0.384 OA
HETATM   29  H   UNL     1       5.167  24.176  55.455  1.00  0.00     0.211 HD
ENDBRANCH  19  28
ENDBRANCH  18  19
ENDBRANCH   1  18
TORSDOF 6
ENDMDL
