MODEL 1
REMARK VINA RESULT:      -8.5      0.000      0.000
REMARK  7 active torsions:
REMARK  status: ('A' for Active; 'I' for Inactive)
REMARK    1  A    between atoms: O_2  and  C_3 
REMARK    2  A    between atoms: C_4  and  O_5 
REMARK    3  A    between atoms: O_5  and  C_6 
REMARK       I    between atoms: C_6  and  N_7 
REMARK    4  A    between atoms: C_14  and  O_15 
REMARK    5  A    between atoms: C_18  and  C_19 
REMARK    6  A    between atoms: C_23  and  N_24 
REMARK    7  A    between atoms: C_31  and  C_32 
ROOT
HETATM    1  C   UNL     1       6.868  29.020  57.659  1.00  0.00     0.105 C 
HETATM    2  C   UNL     1       6.719  27.944  56.584  1.00  0.00     0.067 C 
HETATM    3  C   UNL     1       5.642  26.896  56.807  1.00  0.00     0.020 C 
HETATM    4  N   UNL     1       4.747  26.027  56.991  1.00  0.00    -0.096 N 
HETATM    5  C   UNL     1       7.606  27.776  55.566  1.00  0.00     0.139 C 
HETATM    6  O   UNL     1       8.757  28.580  55.451  1.00  0.00    -0.279 OA
HETATM    7  C   UNL     1       9.019  29.371  56.485  1.00  0.00     0.175 A 
HETATM    8  C   UNL     1       8.227  29.629  57.576  1.00  0.00     0.040 A 
HETATM    9  N   UNL     1      10.155  30.092  56.642  1.00  0.00    -0.256 N 
HETATM   10  H   UNL     1      10.956  30.148  56.022  1.00  0.00     0.191 HD
HETATM   11  N   UNL     1      10.169  30.794  57.791  1.00  0.00    -0.172 NA
HETATM   12  C   UNL     1       9.003  30.491  58.395  1.00  0.00     0.099 A 
ENDROOT
BRANCH   1  13
HETATM   13  C   UNL     1       5.843  30.140  57.484  1.00  0.00    -0.039 A 
HETATM   14  C   UNL     1       5.757  30.782  56.236  1.00  0.00     0.048 A 
HETATM   15  C   UNL     1       4.908  31.875  56.058  1.00  0.00     0.105 A 
HETATM   16  C   UNL     1       4.164  32.364  57.133  1.00  0.00     0.147 A 
HETATM   17  C   UNL     1       4.166  31.706  58.367  1.00  0.00     0.105 A 
HETATM   18  C   UNL     1       5.036  30.625  58.542  1.00  0.00     0.048 A 
BRANCH  15  19
HETATM   19  O   UNL     1       4.856  32.518  54.849  1.00  0.00    -0.353 OA
HETATM   20  C   UNL     1       4.011  31.805  53.947  1.00  0.00     0.210 C 
ENDBRANCH  15  19
BRANCH  16  21
HETATM   21  O   UNL     1       3.379  33.507  56.927  1.00  0.00    -0.256 OA
BRANCH  21  22
HETATM   22  C   UNL     1       4.027  34.691  57.270  1.00  0.00     0.368 C 
HETATM   23  N   UNL     1       3.248  35.504  58.083  1.00  0.00    -0.324 N 
HETATM   24  C   UNL     1       3.905  36.557  58.851  1.00  0.00     0.154 C 
HETATM   25  C   UNL     1       1.925  35.113  58.565  1.00  0.00     0.154 C 
HETATM   26  C   UNL     1       2.955  37.718  59.148  1.00  0.00     0.187 C 
HETATM   27  O   UNL     1       1.732  37.252  59.741  1.00  0.00    -0.388 OA
HETATM   28  C   UNL     1       1.062  36.345  58.852  1.00  0.00     0.187 C 
HETATM   29  O   UNL     1       5.158  35.008  56.912  1.00  0.00    -0.238 OA
ENDBRANCH  21  22
ENDBRANCH  16  21
BRANCH  17  30
HETATM   30  O   UNL     1       3.303  32.187  59.317  1.00  0.00    -0.353 OA
HETATM   31  C   UNL     1       3.852  32.556  60.575  1.00  0.00     0.210 C 
ENDBRANCH  17  30
ENDBRANCH   1  13
BRANCH   5  32
HETATM   32  N   UNL     1       7.535  26.812  54.589  1.00  0.00    -0.282 NA
HETATM   33  H   UNL     1       6.808  26.110  54.692  1.00  0.00     0.126 HD
HETATM   34  H   UNL     1       8.443  26.426  54.348  1.00  0.00     0.126 HD
ENDBRANCH   5  32
BRANCH  12  35
HETATM   35  C   UNL     1       8.678  31.050  59.704  1.00  0.00    -0.005 A 
HETATM   36  C   UNL     1       7.927  32.231  59.795  1.00  0.00     0.015 A 
HETATM   37  C   UNL     1       7.627  32.787  61.041  1.00  0.00     0.020 A 
HETATM   38  C   UNL     1       8.083  32.167  62.201  1.00  0.00     0.011 A 
HETATM   39 BR   UNL     1       7.690  32.924  63.888  1.00  0.00    -0.051 Br
HETATM   40  C   UNL     1       8.838  30.997  62.127  1.00  0.00     0.020 A 
HETATM   41  C   UNL     1       9.137  30.441  60.880  1.00  0.00     0.015 A 
ENDBRANCH  12  35
TORSDOF 7
ENDMDL
MODEL 2
REMARK VINA RESULT:      -8.3      1.439      2.630
REMARK  7 active torsions:
REMARK  status: ('A' for Active; 'I' for Inactive)
REMARK    1  A    between atoms: O_2  and  C_3 
REMARK    2  A    between atoms: C_4  and  O_5 
REMARK    3  A    between atoms: O_5  and  C_6 
REMARK       I    between atoms: C_6  and  N_7 
REMARK    4  A    between atoms: C_14  and  O_15 
REMARK    5  A    between atoms: C_18  and  C_19 
REMARK    6  A    between atoms: C_23  and  N_24 
REMARK    7  A    between atoms: C_31  and  C_32 
ROOT
HETATM    1  C   UNL     1       6.912  29.171  57.663  1.00  0.00     0.105 C 
HETATM    2  C   UNL     1       6.763  28.099  56.584  1.00  0.00     0.067 C 
HETATM    3  C   UNL     1       5.681  27.054  56.801  1.00  0.00     0.020 C 
HETATM    4  N   UNL     1       4.783  26.187  56.979  1.00  0.00    -0.096 N 
HETATM    5  C   UNL     1       7.652  27.932  55.568  1.00  0.00     0.139 C 
HETATM    6  O   UNL     1       8.806  28.732  55.459  1.00  0.00    -0.279 OA
HETATM    7  C   UNL     1       9.068  29.518  56.496  1.00  0.00     0.175 A 
HETATM    8  C   UNL     1       8.273  29.775  57.586  1.00  0.00     0.040 A 
HETATM    9  N   UNL     1      10.205  30.235  56.660  1.00  0.00    -0.256 N 
HETATM   10  H   UNL     1      11.008  30.290  56.041  1.00  0.00     0.191 HD
HETATM   11  N   UNL     1      10.218  30.933  57.811  1.00  0.00    -0.172 NA
HETATM   12  C   UNL     1       9.050  30.632  58.411  1.00  0.00     0.099 A 
ENDROOT
BRANCH   1  13
HETATM   13  C   UNL     1       5.892  30.295  57.490  1.00  0.00    -0.039 A 
HETATM   14  C   UNL     1       4.977  30.538  58.529  1.00  0.00     0.048 A 
HETATM   15  C   UNL     1       3.965  31.486  58.375  1.00  0.00     0.105 A 
HETATM   16  C   UNL     1       3.830  32.176  57.169  1.00  0.00     0.147 A 
HETATM   17  C   UNL     1       4.767  32.017  56.142  1.00  0.00     0.105 A 
HETATM   18  C   UNL     1       5.764  31.049  56.297  1.00  0.00     0.048 A 
BRANCH  15  19
HETATM   19  O   UNL     1       3.054  31.692  59.378  1.00  0.00    -0.353 OA
HETATM   20  C   UNL     1       3.704  32.223  60.533  1.00  0.00     0.210 C 
ENDBRANCH  15  19
BRANCH  16  21
HETATM   21  O   UNL     1       2.757  33.067  57.034  1.00  0.00    -0.256 OA
BRANCH  21  22
HETATM   22  C   UNL     1       3.110  34.395  57.263  1.00  0.00     0.368 C 
HETATM   23  N   UNL     1       2.407  35.277  56.454  1.00  0.00    -0.324 N 
HETATM   24  C   UNL     1       2.351  36.684  56.839  1.00  0.00     0.154 C 
HETATM   25  C   UNL     1       1.370  34.844  55.519  1.00  0.00     0.154 C 
HETATM   26  C   UNL     1       2.150  37.594  55.626  1.00  0.00     0.187 C 
HETATM   27  O   UNL     1       1.029  37.170  54.835  1.00  0.00    -0.388 OA
HETATM   28  C   UNL     1       1.235  35.833  54.357  1.00  0.00     0.187 C 
HETATM   29  O   UNL     1       3.945  34.774  58.081  1.00  0.00    -0.238 OA
ENDBRANCH  21  22
ENDBRANCH  16  21
BRANCH  17  30
HETATM   30  O   UNL     1       4.621  32.833  55.052  1.00  0.00    -0.353 OA
HETATM   31  C   UNL     1       4.049  32.268  53.880  1.00  0.00     0.210 C 
ENDBRANCH  17  30
ENDBRANCH   1  13
BRANCH   5  32
HETATM   32  N   UNL     1       7.580  26.971  54.588  1.00  0.00    -0.282 NA
HETATM   33  H   UNL     1       6.722  26.429  54.541  1.00  0.00     0.126 HD
HETATM   34  H   UNL     1       8.423  26.406  54.525  1.00  0.00     0.126 HD
ENDBRANCH   5  32
BRANCH  12  35
HETATM   35  C   UNL     1       8.723  31.188  59.721  1.00  0.00    -0.005 A 
HETATM   36  C   UNL     1       9.232  30.588  60.882  1.00  0.00     0.015 A 
HETATM   37  C   UNL     1       8.910  31.097  62.143  1.00  0.00     0.020 A 
HETATM   38  C   UNL     1       8.072  32.204  62.246  1.00  0.00     0.011 A 
HETATM   39 BR   UNL     1       7.625  32.889  63.950  1.00  0.00    -0.051 Br
HETATM   40  C   UNL     1       7.552  32.806  61.101  1.00  0.00     0.020 A 
HETATM   41  C   UNL     1       7.875  32.297  59.840  1.00  0.00     0.015 A 
ENDBRANCH  12  35
TORSDOF 7
ENDMDL
MODEL 3
REMARK VINA RESULT:      -8.3      3.542      8.264
REMARK  7 active torsions:
REMARK  status: ('A' for Active; 'I' for Inactive)
REMARK    1  A    between atoms: O_2  and  C_3 
REMARK    2  A    between atoms: C_4  and  O_5 
REMARK    3  A    between atoms: O_5  and  C_6 
REMARK       I    between atoms: C_6  and  N_7 
REMARK    4  A    between atoms: C_14  and  O_15 
REMARK    5  A    between atoms: C_18  and  C_19 
REMARK    6  A    between atoms: C_23  and  N_24 
REMARK    7  A    between atoms: C_31  and  C_32 
ROOT
HETATM    1  C   UNL     1       3.931  35.639  61.492  1.00  0.00     0.105 C 
HETATM    2  C   UNL     1       3.377  36.169  60.170  1.00  0.00     0.067 C 
HETATM    3  C   UNL     1       4.203  37.224  59.453  1.00  0.00     0.020 C 
HETATM    4  N   UNL     1       4.889  38.099  58.857  1.00  0.00    -0.096 N 
HETATM    5  C   UNL     1       2.125  35.889  59.718  1.00  0.00     0.139 C 
HETATM    6  O   UNL     1       1.230  35.100  60.467  1.00  0.00    -0.279 OA
HETATM    7  C   UNL     1       1.608  34.812  61.707  1.00  0.00     0.175 A 
HETATM    8  C   UNL     1       2.827  35.040  62.295  1.00  0.00     0.040 A 
HETATM    9  N   UNL     1       0.827  34.213  62.637  1.00  0.00    -0.256 N 
HETATM   10  H   UNL     1      -0.133  33.895  62.544  1.00  0.00     0.191 HD
HETATM   11  N   UNL     1       1.454  34.054  63.818  1.00  0.00    -0.172 NA
HETATM   12  C   UNL     1       2.676  34.592  63.635  1.00  0.00     0.099 A 
ENDROOT
BRANCH   1  13
HETATM   13  C   UNL     1       4.987  34.557  61.269  1.00  0.00    -0.039 A 
HETATM   14  C   UNL     1       4.881  33.740  60.131  1.00  0.00     0.048 A 
HETATM   15  C   UNL     1       5.762  32.675  59.938  1.00  0.00     0.105 A 
HETATM   16  C   UNL     1       6.736  32.391  60.896  1.00  0.00     0.147 A 
HETATM   17  C   UNL     1       6.922  33.228  62.002  1.00  0.00     0.105 A 
HETATM   18  C   UNL     1       6.020  34.279  62.198  1.00  0.00     0.048 A 
BRANCH  15  19
HETATM   19  O   UNL     1       5.630  31.860  58.844  1.00  0.00    -0.353 OA
HETATM   20  C   UNL     1       5.324  32.635  57.685  1.00  0.00     0.210 C 
ENDBRANCH  15  19
BRANCH  16  21
HETATM   21  O   UNL     1       7.554  31.271  60.696  1.00  0.00    -0.256 OA
BRANCH  21  22
HETATM   22  C   UNL     1       8.738  31.565  60.023  1.00  0.00     0.368 C 
HETATM   23  N   UNL     1       8.931  30.755  58.913  1.00  0.00    -0.324 N 
HETATM   24  C   UNL     1       9.878  31.187  57.890  1.00  0.00     0.154 C 
HETATM   25  C   UNL     1       7.958  29.754  58.480  1.00  0.00     0.154 C 
HETATM   26  C   UNL     1      10.466  30.000  57.125  1.00  0.00     0.187 C 
HETATM   27  O   UNL     1       9.432  29.139  56.624  1.00  0.00    -0.388 OA
HETATM   28  C   UNL     1       8.644  28.623  57.707  1.00  0.00     0.187 C 
HETATM   29  O   UNL     1       9.539  32.437  60.350  1.00  0.00    -0.238 OA
ENDBRANCH  21  22
ENDBRANCH  16  21
BRANCH  17  30
HETATM   30  O   UNL     1       7.986  32.939  62.814  1.00  0.00    -0.353 OA
HETATM   31  C   UNL     1       7.865  33.259  64.194  1.00  0.00     0.210 C 
ENDBRANCH  17  30
ENDBRANCH   1  13
BRANCH   5  32
HETATM   32  N   UNL     1       1.567  36.358  58.552  1.00  0.00    -0.282 NA
HETATM   33  H   UNL     1       1.910  37.251  58.209  1.00  0.00     0.126 HD
HETATM   34  H   UNL     1       0.554  36.277  58.538  1.00  0.00     0.126 HD
ENDBRANCH   5  32
BRANCH  12  35
HETATM   35  C   UNL     1       3.641  34.633  64.730  1.00  0.00    -0.005 A 
HETATM   36  C   UNL     1       4.414  33.502  65.025  1.00  0.00     0.015 A 
HETATM   37  C   UNL     1       5.326  33.522  66.084  1.00  0.00     0.020 A 
HETATM   38  C   UNL     1       5.462  34.673  66.855  1.00  0.00     0.011 A 
HETATM   39 BR   UNL     1       6.686  34.700  68.295  1.00  0.00    -0.051 Br
HETATM   40  C   UNL     1       4.695  35.804  66.579  1.00  0.00     0.020 A 
HETATM   41  C   UNL     1       3.783  35.783  65.519  1.00  0.00     0.015 A 
ENDBRANCH  12  35
TORSDOF 7
ENDMDL
MODEL 4
REMARK VINA RESULT:      -7.8      2.839      8.110
REMARK  7 active torsions:
REMARK  status: ('A' for Active; 'I' for Inactive)
REMARK    1  A    between atoms: O_2  and  C_3 
REMARK    2  A    between atoms: C_4  and  O_5 
REMARK    3  A    between atoms: O_5  and  C_6 
REMARK       I    between atoms: C_6  and  N_7 
REMARK    4  A    between atoms: C_14  and  O_15 
REMARK    5  A    between atoms: C_18  and  C_19 
REMARK    6  A    between atoms: C_23  and  N_24 
REMARK    7  A    between atoms: C_31  and  C_32 
ROOT
HETATM    1  C   UNL     1       3.450  35.738  59.068  1.00  0.00     0.105 C 
HETATM    2  C   UNL     1       3.273  36.174  57.615  1.00  0.00     0.067 C 
HETATM    3  C   UNL     1       4.411  36.965  56.992  1.00  0.00     0.020 C 
HETATM    4  N   UNL     1       5.356  37.620  56.474  1.00  0.00    -0.096 N 
HETATM    5  C   UNL     1       2.099  36.057  56.936  1.00  0.00     0.139 C 
HETATM    6  O   UNL     1       0.941  35.542  57.550  1.00  0.00    -0.279 OA
HETATM    7  C   UNL     1       1.012  35.360  58.864  1.00  0.00     0.175 A 
HETATM    8  C   UNL     1       2.118  35.451  59.673  1.00  0.00     0.040 A 
HETATM    9  N   UNL     1      -0.034  35.035  59.660  1.00  0.00    -0.256 N 
HETATM   10  H   UNL     1      -1.002  34.879  59.396  1.00  0.00     0.191 HD
HETATM   11  N   UNL     1       0.313  34.930  60.957  1.00  0.00    -0.172 NA
HETATM   12  C   UNL     1       1.629  35.219  60.986  1.00  0.00     0.099 A 
ENDROOT
BRANCH   1  13
HETATM   13  C   UNL     1       4.296  34.470  59.180  1.00  0.00    -0.039 A 
HETATM   14  C   UNL     1       4.873  34.155  60.422  1.00  0.00     0.048 A 
HETATM   15  C   UNL     1       5.734  33.064  60.547  1.00  0.00     0.105 A 
HETATM   16  C   UNL     1       6.057  32.295  59.428  1.00  0.00     0.147 A 
HETATM   17  C   UNL     1       5.442  32.531  58.193  1.00  0.00     0.105 A 
HETATM   18  C   UNL     1       4.599  33.640  58.072  1.00  0.00     0.048 A 
BRANCH  15  19
HETATM   19  O   UNL     1       6.322  32.785  61.753  1.00  0.00    -0.353 OA
HETATM   20  C   UNL     1       6.482  33.982  62.514  1.00  0.00     0.210 C 
ENDBRANCH  15  19
BRANCH  16  21
HETATM   21  O   UNL     1       6.979  31.252  59.586  1.00  0.00    -0.256 OA
BRANCH  21  22
HETATM   22  C   UNL     1       8.293  31.633  59.324  1.00  0.00     0.368 C 
HETATM   23  N   UNL     1       8.914  30.796  58.407  1.00  0.00    -0.324 N 
HETATM   24  C   UNL     1      10.114  31.274  57.727  1.00  0.00     0.154 C 
HETATM   25  C   UNL     1       8.227  29.683  57.754  1.00  0.00     0.154 C 
HETATM   26  C   UNL     1      11.018  30.118  57.295  1.00  0.00     0.187 C 
HETATM   27  O   UNL     1      10.286  29.135  56.546  1.00  0.00    -0.388 OA
HETATM   28  C   UNL     1       9.222  28.593  57.343  1.00  0.00     0.187 C 
HETATM   29  O   UNL     1       8.865  32.595  59.830  1.00  0.00    -0.238 OA
ENDBRANCH  21  22
ENDBRANCH  16  21
BRANCH  17  30
HETATM   30  O   UNL     1       5.727  31.642  57.190  1.00  0.00    -0.353 OA
HETATM   31  C   UNL     1       4.718  30.705  56.839  1.00  0.00     0.210 C 
ENDBRANCH  17  30
ENDBRANCH   1  13
BRANCH   5  32
HETATM   32  N   UNL     1       1.877  36.455  55.639  1.00  0.00    -0.282 NA
HETATM   33  H   UNL     1       2.049  37.433  55.426  1.00  0.00     0.126 HD
HETATM   34  H   UNL     1       1.002  36.102  55.262  1.00  0.00     0.126 HD
ENDBRANCH   5  32
BRANCH  12  35
HETATM   35  C   UNL     1       2.357  35.239  62.252  1.00  0.00    -0.005 A 
HETATM   36  C   UNL     1       3.089  36.377  62.620  1.00  0.00     0.015 A 
HETATM   37  C   UNL     1       3.807  36.402  63.819  1.00  0.00     0.020 A 
HETATM   38  C   UNL     1       3.799  35.285  64.650  1.00  0.00     0.011 A 
HETATM   39 BR   UNL     1       4.778  35.310  66.267  1.00  0.00    -0.051 Br
HETATM   40  C   UNL     1       3.082  34.143  64.294  1.00  0.00     0.020 A 
HETATM   41  C   UNL     1       2.364  34.120  63.095  1.00  0.00     0.015 A 
ENDBRANCH  12  35
TORSDOF 7
ENDMDL
MODEL 5
REMARK VINA RESULT:      -7.7      1.699      2.162
REMARK  7 active torsions:
REMARK  status: ('A' for Active; 'I' for Inactive)
REMARK    1  A    between atoms: O_2  and  C_3 
REMARK    2  A    between atoms: C_4  and  O_5 
REMARK    3  A    between atoms: O_5  and  C_6 
REMARK       I    between atoms: C_6  and  N_7 
REMARK    4  A    between atoms: C_14  and  O_15 
REMARK    5  A    between atoms: C_18  and  C_19 
REMARK    6  A    between atoms: C_23  and  N_24 
REMARK    7  A    between atoms: C_31  and  C_32 
ROOT
HETATM    1  C   UNL     1       6.793  29.079  57.641  1.00  0.00     0.105 C 
HETATM    2  C   UNL     1       6.658  28.004  56.564  1.00  0.00     0.067 C 
HETATM    3  C   UNL     1       5.581  26.953  56.775  1.00  0.00     0.020 C 
HETATM    4  N   UNL     1       4.687  26.081  56.950  1.00  0.00    -0.096 N 
HETATM    5  C   UNL     1       7.555  27.839  55.554  1.00  0.00     0.139 C 
HETATM    6  O   UNL     1       8.704  28.646  55.450  1.00  0.00    -0.279 OA
HETATM    7  C   UNL     1       8.955  29.437  56.487  1.00  0.00     0.175 A 
HETATM    8  C   UNL     1       8.151  29.692  57.571  1.00  0.00     0.040 A 
HETATM    9  N   UNL     1      10.087  30.160  56.656  1.00  0.00    -0.256 N 
HETATM   10  H   UNL     1      10.894  30.219  56.043  1.00  0.00     0.191 HD
HETATM   11  N   UNL     1      10.089  30.861  57.806  1.00  0.00    -0.172 NA
HETATM   12  C   UNL     1       8.918  30.555  58.398  1.00  0.00     0.099 A 
ENDROOT
BRANCH   1  13
HETATM   13  C   UNL     1       5.768  30.197  57.457  1.00  0.00    -0.039 A 
HETATM   14  C   UNL     1       5.786  30.935  56.260  1.00  0.00     0.048 A 
HETATM   15  C   UNL     1       4.937  32.029  56.089  1.00  0.00     0.105 A 
HETATM   16  C   UNL     1       4.085  32.421  57.122  1.00  0.00     0.147 A 
HETATM   17  C   UNL     1       3.983  31.667  58.296  1.00  0.00     0.105 A 
HETATM   18  C   UNL     1       4.855  30.586  58.467  1.00  0.00     0.048 A 
BRANCH  15  19
HETATM   19  O   UNL     1       4.987  32.765  54.934  1.00  0.00    -0.353 OA
HETATM   20  C   UNL     1       4.453  32.013  53.845  1.00  0.00     0.210 C 
ENDBRANCH  15  19
BRANCH  16  21
HETATM   21  O   UNL     1       3.300  33.567  56.932  1.00  0.00    -0.256 OA
BRANCH  21  22
HETATM   22  C   UNL     1       2.254  33.376  56.033  1.00  0.00     0.368 C 
HETATM   23  N   UNL     1       1.985  34.514  55.285  1.00  0.00    -0.324 N 
HETATM   24  C   UNL     1       1.224  34.372  54.047  1.00  0.00     0.154 C 
HETATM   25  C   UNL     1       2.766  35.744  55.400  1.00  0.00     0.154 C 
HETATM   26  C   UNL     1       0.468  35.655  53.698  1.00  0.00     0.187 C 
HETATM   27  O   UNL     1       1.342  36.795  53.707  1.00  0.00    -0.388 OA
HETATM   28  C   UNL     1       1.926  36.963  55.008  1.00  0.00     0.187 C 
HETATM   29  O   UNL     1       1.623  32.331  55.892  1.00  0.00    -0.238 OA
ENDBRANCH  21  22
ENDBRANCH  16  21
BRANCH  17  30
HETATM   30  O   UNL     1       3.026  32.060  59.193  1.00  0.00    -0.353 OA
HETATM   31  C   UNL     1       3.467  32.680  60.393  1.00  0.00     0.210 C 
ENDBRANCH  17  30
ENDBRANCH   1  13
BRANCH   5  32
HETATM   32  N   UNL     1       7.496  26.875  54.576  1.00  0.00    -0.282 NA
HETATM   33  H   UNL     1       8.234  26.887  53.878  1.00  0.00     0.126 HD
HETATM   34  H   UNL     1       6.565  26.767  54.182  1.00  0.00     0.126 HD
ENDBRANCH   5  32
BRANCH  12  35
HETATM   35  C   UNL     1       8.579  31.112  59.705  1.00  0.00    -0.005 A 
HETATM   36  C   UNL     1       7.706  32.206  59.795  1.00  0.00     0.015 A 
HETATM   37  C   UNL     1       7.390  32.762  61.037  1.00  0.00     0.020 A 
HETATM   38  C   UNL     1       7.952  32.228  62.194  1.00  0.00     0.011 A 
HETATM   39 BR   UNL     1       7.536  32.985  63.876  1.00  0.00    -0.051 Br
HETATM   40  C   UNL     1       8.828  31.146  62.120  1.00  0.00     0.020 A 
HETATM   41  C   UNL     1       9.143  30.590  60.877  1.00  0.00     0.015 A 
ENDBRANCH  12  35
TORSDOF 7
ENDMDL
MODEL 6
REMARK VINA RESULT:      -7.7      2.326      7.596
REMARK  7 active torsions:
REMARK  status: ('A' for Active; 'I' for Inactive)
REMARK    1  A    between atoms: O_2  and  C_3 
REMARK    2  A    between atoms: C_4  and  O_5 
REMARK    3  A    between atoms: O_5  and  C_6 
REMARK       I    between atoms: C_6  and  N_7 
REMARK    4  A    between atoms: C_14  and  O_15 
REMARK    5  A    between atoms: C_18  and  C_19 
REMARK    6  A    between atoms: C_23  and  N_24 
REMARK    7  A    between atoms: C_31  and  C_32 
ROOT
HETATM    1  C   UNL     1       4.255  34.778  58.140  1.00  0.00     0.105 C 
HETATM    2  C   UNL     1       3.854  35.352  56.782  1.00  0.00     0.067 C 
HETATM    3  C   UNL     1       4.982  35.725  55.835  1.00  0.00     0.020 C 
HETATM    4  N   UNL     1       5.918  36.034  55.048  1.00  0.00    -0.096 N 
HETATM    5  C   UNL     1       2.580  35.713  56.469  1.00  0.00     0.139 C 
HETATM    6  O   UNL     1       1.532  35.604  57.404  1.00  0.00    -0.279 OA
HETATM    7  C   UNL     1       1.892  35.315  58.649  1.00  0.00     0.175 A 
HETATM    8  C   UNL     1       3.132  34.944  59.108  1.00  0.00     0.040 A 
HETATM    9  N   UNL     1       1.063  35.330  59.720  1.00  0.00    -0.256 N 
HETATM   10  H   UNL     1       0.073  35.550  59.747  1.00  0.00     0.191 HD
HETATM   11  N   UNL     1       1.692  35.014  60.867  1.00  0.00    -0.172 NA
HETATM   12  C   UNL     1       2.976  34.809  60.513  1.00  0.00     0.099 A 
ENDROOT
BRANCH   1  13
HETATM   13  C   UNL     1       4.576  33.286  58.051  1.00  0.00    -0.039 A 
HETATM   14  C   UNL     1       5.665  32.789  58.788  1.00  0.00     0.048 A 
HETATM   15  C   UNL     1       6.058  31.456  58.660  1.00  0.00     0.105 A 
HETATM   16  C   UNL     1       5.391  30.613  57.769  1.00  0.00     0.147 A 
HETATM   17  C   UNL     1       4.256  31.051  57.079  1.00  0.00     0.105 A 
HETATM   18  C   UNL     1       3.884  32.394  57.196  1.00  0.00     0.048 A 
BRANCH  15  19
HETATM   19  O   UNL     1       7.143  30.988  59.353  1.00  0.00    -0.353 OA
HETATM   20  C   UNL     1       7.353  31.769  60.529  1.00  0.00     0.210 C 
ENDBRANCH  15  19
BRANCH  16  21
HETATM   21  O   UNL     1       5.863  29.302  57.622  1.00  0.00    -0.256 OA
BRANCH  21  22
HETATM   22  C   UNL     1       6.701  29.137  56.522  1.00  0.00     0.368 C 
HETATM   23  N   UNL     1       6.422  27.977  55.812  1.00  0.00    -0.324 N 
HETATM   24  C   UNL     1       6.911  27.863  54.442  1.00  0.00     0.154 C 
HETATM   25  C   UNL     1       5.326  27.076  56.161  1.00  0.00     0.154 C 
HETATM   26  C   UNL     1       7.118  26.403  54.035  1.00  0.00     0.187 C 
HETATM   27  O   UNL     1       5.943  25.619  54.293  1.00  0.00    -0.388 OA
HETATM   28  C   UNL     1       5.621  25.649  55.691  1.00  0.00     0.187 C 
HETATM   29  O   UNL     1       7.594  29.914  56.191  1.00  0.00    -0.238 OA
ENDBRANCH  21  22
ENDBRANCH  16  21
BRANCH  17  30
HETATM   30  O   UNL     1       3.596  30.111  56.331  1.00  0.00    -0.353 OA
HETATM   31  C   UNL     1       3.608  30.271  54.919  1.00  0.00     0.210 C 
ENDBRANCH  17  30
ENDBRANCH   1  13
BRANCH   5  32
HETATM   32  N   UNL     1       2.168  36.256  55.275  1.00  0.00    -0.282 NA
HETATM   33  H   UNL     1       2.045  37.265  55.251  1.00  0.00     0.126 HD
HETATM   34  H   UNL     1       1.403  35.742  54.849  1.00  0.00     0.126 HD
ENDBRANCH   5  32
BRANCH  12  35
HETATM   35  C   UNL     1       3.980  34.476  61.519  1.00  0.00    -0.005 A 
HETATM   36  C   UNL     1       5.004  35.387  61.814  1.00  0.00     0.015 A 
HETATM   37  C   UNL     1       5.984  35.072  62.760  1.00  0.00     0.020 A 
HETATM   38  C   UNL     1       5.945  33.840  63.408  1.00  0.00     0.011 A 
HETATM   39 BR   UNL     1       7.275  33.405  64.679  1.00  0.00    -0.051 Br
HETATM   40  C   UNL     1       4.938  32.920  63.119  1.00  0.00     0.020 A 
HETATM   41  C   UNL     1       3.958  33.237  62.174  1.00  0.00     0.015 A 
ENDBRANCH  12  35
TORSDOF 7
ENDMDL
MODEL 7
REMARK VINA RESULT:      -7.6      3.243      5.548
REMARK  7 active torsions:
REMARK  status: ('A' for Active; 'I' for Inactive)
REMARK    1  A    between atoms: O_2  and  C_3 
REMARK    2  A    between atoms: C_4  and  O_5 
REMARK    3  A    between atoms: O_5  and  C_6 
REMARK       I    between atoms: C_6  and  N_7 
REMARK    4  A    between atoms: C_14  and  O_15 
REMARK    5  A    between atoms: C_18  and  C_19 
REMARK    6  A    between atoms: C_23  and  N_24 
REMARK    7  A    between atoms: C_31  and  C_32 
ROOT
HETATM    1  C   UNL     1       7.117  29.884  57.074  1.00  0.00     0.105 C 
HETATM    2  C   UNL     1       8.095  28.720  57.227  1.00  0.00     0.067 C 
HETATM    3  C   UNL     1       9.569  29.032  57.031  1.00  0.00     0.020 C 
HETATM    4  N   UNL     1      10.793  29.291  56.870  1.00  0.00    -0.096 N 
HETATM    5  C   UNL     1       7.702  27.422  57.337  1.00  0.00     0.139 C 
HETATM    6  O   UNL     1       6.343  27.056  57.287  1.00  0.00    -0.279 OA
HETATM    7  C   UNL     1       5.495  28.018  56.939  1.00  0.00     0.175 A 
HETATM    8  C   UNL     1       5.751  29.358  56.786  1.00  0.00     0.040 A 
HETATM    9  N   UNL     1       4.180  27.834  56.673  1.00  0.00    -0.256 N 
HETATM   10  H   UNL     1       3.647  26.971  56.699  1.00  0.00     0.191 HD
HETATM   11  N   UNL     1       3.556  28.976  56.327  1.00  0.00    -0.172 NA
HETATM   12  C   UNL     1       4.519  29.919  56.357  1.00  0.00     0.099 A 
ENDROOT
BRANCH   1  13
HETATM   13  C   UNL     1       7.034  30.724  58.348  1.00  0.00    -0.039 A 
HETATM   14  C   UNL     1       5.991  31.659  58.468  1.00  0.00     0.048 A 
HETATM   15  C   UNL     1       5.932  32.518  59.566  1.00  0.00     0.105 A 
HETATM   16  C   UNL     1       6.933  32.479  60.539  1.00  0.00     0.147 A 
HETATM   17  C   UNL     1       7.942  31.512  60.492  1.00  0.00     0.105 A 
HETATM   18  C   UNL     1       8.005  30.671  59.377  1.00  0.00     0.048 A 
BRANCH  15  19
HETATM   19  O   UNL     1       4.933  33.451  59.659  1.00  0.00    -0.353 OA
HETATM   20  C   UNL     1       3.685  32.814  59.931  1.00  0.00     0.210 C 
ENDBRANCH  15  19
BRANCH  16  21
HETATM   21  O   UNL     1       6.871  33.407  61.587  1.00  0.00    -0.256 OA
BRANCH  21  22
HETATM   22  C   UNL     1       5.960  33.057  62.581  1.00  0.00     0.368 C 
HETATM   23  N   UNL     1       5.277  34.155  63.084  1.00  0.00    -0.324 N 
HETATM   24  C   UNL     1       4.032  33.930  63.811  1.00  0.00     0.154 C 
HETATM   25  C   UNL     1       5.462  35.511  62.569  1.00  0.00     0.154 C 
HETATM   26  C   UNL     1       3.753  35.049  64.817  1.00  0.00     0.187 C 
HETATM   27  O   UNL     1       3.828  36.340  64.193  1.00  0.00    -0.388 OA
HETATM   28  C   UNL     1       5.137  36.552  63.643  1.00  0.00     0.187 C 
HETATM   29  O   UNL     1       5.761  31.914  62.987  1.00  0.00    -0.238 OA
ENDBRANCH  21  22
ENDBRANCH  16  21
BRANCH  17  30
HETATM   30  O   UNL     1       8.800  31.474  61.560  1.00  0.00    -0.353 OA
HETATM   31  C   UNL     1       8.896  30.252  62.281  1.00  0.00     0.210 C 
ENDBRANCH  17  30
ENDBRANCH   1  13
BRANCH   5  32
HETATM   32  N   UNL     1       8.537  26.336  57.451  1.00  0.00    -0.282 NA
HETATM   33  H   UNL     1       8.472  25.631  56.722  1.00  0.00     0.126 HD
HETATM   34  H   UNL     1       8.558  25.950  58.390  1.00  0.00     0.126 HD
ENDBRANCH   5  32
BRANCH  12  35
HETATM   35  C   UNL     1       4.216  31.301  55.998  1.00  0.00    -0.005 A 
HETATM   36  C   UNL     1       3.097  31.939  56.551  1.00  0.00     0.015 A 
HETATM   37  C   UNL     1       2.784  33.255  56.200  1.00  0.00     0.020 A 
HETATM   38  C   UNL     1       3.588  33.934  55.288  1.00  0.00     0.011 A 
HETATM   39 BR   UNL     1       3.161  35.711  54.801  1.00  0.00    -0.051 Br
HETATM   40  C   UNL     1       4.699  33.311  54.723  1.00  0.00     0.020 A 
HETATM   41  C   UNL     1       5.012  31.995  55.076  1.00  0.00     0.015 A 
ENDBRANCH  12  35
TORSDOF 7
ENDMDL
MODEL 8
REMARK VINA RESULT:      -7.5      2.410      7.589
REMARK  7 active torsions:
REMARK  status: ('A' for Active; 'I' for Inactive)
REMARK    1  A    between atoms: O_2  and  C_3 
REMARK    2  A    between atoms: C_4  and  O_5 
REMARK    3  A    between atoms: O_5  and  C_6 
REMARK       I    between atoms: C_6  and  N_7 
REMARK    4  A    between atoms: C_14  and  O_15 
REMARK    5  A    between atoms: C_18  and  C_19 
REMARK    6  A    between atoms: C_23  and  N_24 
REMARK    7  A    between atoms: C_31  and  C_32 
ROOT
HETATM    1  C   UNL     1       3.663  35.004  58.466  1.00  0.00     0.105 C 
HETATM    2  C   UNL     1       3.068  35.634  57.208  1.00  0.00     0.067 C 
HETATM    3  C   UNL     1       4.046  36.240  56.215  1.00  0.00     0.020 C 
HETATM    4  N   UNL     1       4.858  36.742  55.391  1.00  0.00    -0.096 N 
HETATM    5  C   UNL     1       1.734  35.842  57.034  1.00  0.00     0.139 C 
HETATM    6  O   UNL     1       0.800  35.509  58.033  1.00  0.00    -0.279 OA
HETATM    7  C   UNL     1       1.307  35.164  59.211  1.00  0.00     0.175 A 
HETATM    8  C   UNL     1       2.621  34.929  59.531  1.00  0.00     0.040 A 
HETATM    9  N   UNL     1       0.585  34.971  60.340  1.00  0.00    -0.256 N 
HETATM   10  H   UNL     1      -0.419  35.050  60.467  1.00  0.00     0.191 HD
HETATM   11  N   UNL     1       1.352  34.646  61.398  1.00  0.00    -0.172 NA
HETATM   12  C   UNL     1       2.614  34.651  60.924  1.00  0.00     0.099 A 
ENDROOT
BRANCH   1  13
HETATM   13  C   UNL     1       4.165  33.585  58.205  1.00  0.00    -0.039 A 
HETATM   14  C   UNL     1       3.411  32.750  57.361  1.00  0.00     0.048 A 
HETATM   15  C   UNL     1       3.775  31.416  57.174  1.00  0.00     0.105 A 
HETATM   16  C   UNL     1       4.875  30.890  57.853  1.00  0.00     0.147 A 
HETATM   17  C   UNL     1       5.693  31.708  58.639  1.00  0.00     0.105 A 
HETATM   18  C   UNL     1       5.307  33.037  58.839  1.00  0.00     0.048 A 
BRANCH  15  19
HETATM   19  O   UNL     1       3.014  30.599  56.379  1.00  0.00    -0.353 OA
HETATM   20  C   UNL     1       3.045  31.056  55.028  1.00  0.00     0.210 C 
ENDBRANCH  15  19
BRANCH  16  21
HETATM   21  O   UNL     1       5.163  29.528  57.689  1.00  0.00    -0.256 OA
BRANCH  21  22
HETATM   22  C   UNL     1       5.949  29.261  56.571  1.00  0.00     0.368 C 
HETATM   23  N   UNL     1       5.856  27.938  56.162  1.00  0.00    -0.324 N 
HETATM   24  C   UNL     1       6.274  27.596  54.806  1.00  0.00     0.154 C 
HETATM   25  C   UNL     1       4.976  26.966  56.808  1.00  0.00     0.154 C 
HETATM   26  C   UNL     1       6.732  26.140  54.705  1.00  0.00     0.187 C 
HETATM   27  O   UNL     1       5.747  25.245  55.246  1.00  0.00    -0.388 OA
HETATM   28  C   UNL     1       5.511  25.542  56.630  1.00  0.00     0.187 C 
HETATM   29  O   UNL     1       6.654  30.082  55.989  1.00  0.00    -0.238 OA
ENDBRANCH  21  22
ENDBRANCH  16  21
BRANCH  17  30
HETATM   30  O   UNL     1       6.820  31.126  59.158  1.00  0.00    -0.353 OA
HETATM   31  C   UNL     1       7.649  31.928  59.988  1.00  0.00     0.210 C 
ENDBRANCH  17  30
ENDBRANCH   1  13
BRANCH   5  32
HETATM   32  N   UNL     1       1.148  36.426  55.936  1.00  0.00    -0.282 NA
HETATM   33  H   UNL     1       0.427  37.118  56.117  1.00  0.00     0.126 HD
HETATM   34  H   UNL     1       0.897  35.754  55.217  1.00  0.00     0.126 HD
ENDBRANCH   5  32
BRANCH  12  35
HETATM   35  C   UNL     1       3.741  34.373  61.809  1.00  0.00    -0.005 A 
HETATM   36  C   UNL     1       4.701  35.365  62.054  1.00  0.00     0.015 A 
HETATM   37  C   UNL     1       5.796  35.105  62.882  1.00  0.00     0.020 A 
HETATM   38  C   UNL     1       5.936  33.848  63.464  1.00  0.00     0.011 A 
HETATM   39 BR   UNL     1       7.422  33.489  64.576  1.00  0.00    -0.051 Br
HETATM   40  C   UNL     1       4.995  32.848  63.224  1.00  0.00     0.020 A 
HETATM   41  C   UNL     1       3.900  33.110  62.395  1.00  0.00     0.015 A 
ENDBRANCH  12  35
TORSDOF 7
ENDMDL
MODEL 9
REMARK VINA RESULT:      -7.4      3.354      5.757
REMARK  7 active torsions:
REMARK  status: ('A' for Active; 'I' for Inactive)
REMARK    1  A    between atoms: O_2  and  C_3 
REMARK    2  A    between atoms: C_4  and  O_5 
REMARK    3  A    between atoms: O_5  and  C_6 
REMARK       I    between atoms: C_6  and  N_7 
REMARK    4  A    between atoms: C_14  and  O_15 
REMARK    5  A    between atoms: C_18  and  C_19 
REMARK    6  A    between atoms: C_23  and  N_24 
REMARK    7  A    between atoms: C_31  and  C_32 
ROOT
HETATM    1  C   UNL     1       7.110  30.243  56.995  1.00  0.00     0.105 C 
HETATM    2  C   UNL     1       8.057  29.062  57.200  1.00  0.00     0.067 C 
HETATM    3  C   UNL     1       9.536  29.321  56.965  1.00  0.00     0.020 C 
HETATM    4  N   UNL     1      10.764  29.534  56.771  1.00  0.00    -0.096 N 
HETATM    5  C   UNL     1       7.630  27.784  57.389  1.00  0.00     0.139 C 
HETATM    6  O   UNL     1       6.261  27.456  57.380  1.00  0.00    -0.279 OA
HETATM    7  C   UNL     1       5.435  28.420  56.991  1.00  0.00     0.175 A 
HETATM    8  C   UNL     1       5.726  29.742  56.758  1.00  0.00     0.040 A 
HETATM    9  N   UNL     1       4.111  28.260  56.755  1.00  0.00    -0.256 N 
HETATM   10  H   UNL     1       3.554  27.415  56.837  1.00  0.00     0.191 HD
HETATM   11  N   UNL     1       3.513  29.398  56.354  1.00  0.00    -0.172 NA
HETATM   12  C   UNL     1       4.502  30.312  56.316  1.00  0.00     0.099 A 
ENDROOT
BRANCH   1  13
HETATM   13  C   UNL     1       7.071  31.156  58.220  1.00  0.00    -0.039 A 
HETATM   14  C   UNL     1       8.138  31.100  59.134  1.00  0.00     0.048 A 
HETATM   15  C   UNL     1       8.098  31.840  60.316  1.00  0.00     0.105 A 
HETATM   16  C   UNL     1       6.979  32.617  60.617  1.00  0.00     0.147 A 
HETATM   17  C   UNL     1       5.934  32.759  59.698  1.00  0.00     0.105 A 
HETATM   18  C   UNL     1       5.972  31.996  58.527  1.00  0.00     0.048 A 
BRANCH  15  19
HETATM   19  O   UNL     1       9.125  31.751  61.219  1.00  0.00    -0.353 OA
HETATM   20  C   UNL     1       9.137  30.461  61.829  1.00  0.00     0.210 C 
ENDBRANCH  15  19
BRANCH  16  21
HETATM   21  O   UNL     1       6.952  33.288  61.847  1.00  0.00    -0.256 OA
BRANCH  21  22
HETATM   22  C   UNL     1       5.979  32.806  62.719  1.00  0.00     0.368 C 
HETATM   23  N   UNL     1       5.288  33.826  63.359  1.00  0.00    -0.324 N 
HETATM   24  C   UNL     1       3.999  33.520  63.971  1.00  0.00     0.154 C 
HETATM   25  C   UNL     1       5.529  35.241  63.086  1.00  0.00     0.154 C 
HETATM   26  C   UNL     1       3.684  34.465  65.131  1.00  0.00     0.187 C 
HETATM   27  O   UNL     1       3.820  35.839  64.735  1.00  0.00    -0.388 OA
HETATM   28  C   UNL     1       5.163  36.101  64.300  1.00  0.00     0.187 C 
HETATM   29  O   UNL     1       5.734  31.618  62.919  1.00  0.00    -0.238 OA
ENDBRANCH  21  22
ENDBRANCH  16  21
BRANCH  17  30
HETATM   30  O   UNL     1       4.943  33.645  60.032  1.00  0.00    -0.353 OA
HETATM   31  C   UNL     1       3.604  33.172  60.004  1.00  0.00     0.210 C 
ENDBRANCH  17  30
ENDBRANCH   1  13
BRANCH   5  32
HETATM   32  N   UNL     1       8.437  26.683  57.552  1.00  0.00    -0.282 NA
HETATM   33  H   UNL     1       8.305  25.919  56.895  1.00  0.00     0.126 HD
HETATM   34  H   UNL     1       8.503  26.381  58.520  1.00  0.00     0.126 HD
ENDBRANCH   5  32
BRANCH  12  35
HETATM   35  C   UNL     1       4.232  31.680  55.883  1.00  0.00    -0.005 A 
HETATM   36  C   UNL     1       5.043  32.279  54.908  1.00  0.00     0.015 A 
HETATM   37  C   UNL     1       4.808  33.595  54.500  1.00  0.00     0.020 A 
HETATM   38  C   UNL     1       3.765  34.318  55.072  1.00  0.00     0.011 A 
HETATM   39 BR   UNL     1       3.452  36.102  54.531  1.00  0.00    -0.051 Br
HETATM   40  C   UNL     1       2.956  33.740  56.049  1.00  0.00     0.020 A 
HETATM   41  C   UNL     1       3.191  32.423  56.455  1.00  0.00     0.015 A 
ENDBRANCH  12  35
TORSDOF 7
ENDMDL
MODEL 10
REMARK VINA RESULT:      -7.3      3.397      6.119
REMARK  7 active torsions:
REMARK  status: ('A' for Active; 'I' for Inactive)
REMARK    1  A    between atoms: O_2  and  C_3 
REMARK    2  A    between atoms: C_4  and  O_5 
REMARK    3  A    between atoms: O_5  and  C_6 
REMARK       I    between atoms: C_6  and  N_7 
REMARK    4  A    between atoms: C_14  and  O_15 
REMARK    5  A    between atoms: C_18  and  C_19 
REMARK    6  A    between atoms: C_23  and  N_24 
REMARK    7  A    between atoms: C_31  and  C_32 
ROOT
HETATM    1  C   UNL     1       6.821  28.713  55.460  1.00  0.00     0.105 C 
HETATM    2  C   UNL     1       7.676  27.976  56.489  1.00  0.00     0.067 C 
HETATM    3  C   UNL     1       8.981  28.639  56.899  1.00  0.00     0.020 C 
HETATM    4  N   UNL     1      10.063  29.189  57.240  1.00  0.00    -0.096 N 
HETATM    5  C   UNL     1       7.423  26.703  56.898  1.00  0.00     0.139 C 
HETATM    6  O   UNL     1       6.353  25.957  56.367  1.00  0.00    -0.279 OA
HETATM    7  C   UNL     1       5.733  26.494  55.322  1.00  0.00     0.175 A 
HETATM    8  C   UNL     1       5.891  27.753  54.799  1.00  0.00     0.040 A 
HETATM    9  N   UNL     1       4.798  25.867  54.570  1.00  0.00    -0.256 N 
HETATM   10  H   UNL     1       4.428  24.928  54.677  1.00  0.00     0.191 HD
HETATM   11  N   UNL     1       4.345  26.635  53.560  1.00  0.00    -0.172 NA
HETATM   12  C   UNL     1       5.035  27.787  53.666  1.00  0.00     0.099 A 
ENDROOT
BRANCH   1  13
HETATM   13  C   UNL     1       5.976  29.811  56.106  1.00  0.00    -0.039 A 
HETATM   14  C   UNL     1       6.604  30.711  56.985  1.00  0.00     0.048 A 
HETATM   15  C   UNL     1       5.856  31.665  57.675  1.00  0.00     0.105 A 
HETATM   16  C   UNL     1       4.469  31.709  57.526  1.00  0.00     0.147 A 
HETATM   17  C   UNL     1       3.819  30.881  56.603  1.00  0.00     0.105 A 
HETATM   18  C   UNL     1       4.575  29.914  55.933  1.00  0.00     0.048 A 
BRANCH  15  19
HETATM   19  O   UNL     1       6.470  32.516  58.557  1.00  0.00    -0.353 OA
HETATM   20  C   UNL     1       7.254  31.776  59.493  1.00  0.00     0.210 C 
ENDBRANCH  15  19
BRANCH  16  21
HETATM   21  O   UNL     1       3.750  32.637  58.291  1.00  0.00    -0.256 OA
BRANCH  21  22
HETATM   22  C   UNL     1       3.431  32.172  59.565  1.00  0.00     0.368 C 
HETATM   23  N   UNL     1       3.741  33.092  60.557  1.00  0.00    -0.324 N 
HETATM   24  C   UNL     1       3.112  32.946  61.866  1.00  0.00     0.154 C 
HETATM   25  C   UNL     1       4.284  34.418  60.270  1.00  0.00     0.154 C 
HETATM   26  C   UNL     1       3.973  33.548  62.978  1.00  0.00     0.187 C 
HETATM   27  O   UNL     1       4.351  34.899  62.670  1.00  0.00    -0.388 OA
HETATM   28  C   UNL     1       5.108  34.939  61.451  1.00  0.00     0.187 C 
HETATM   29  O   UNL     1       2.929  31.079  59.814  1.00  0.00    -0.238 OA
ENDBRANCH  21  22
ENDBRANCH  16  21
BRANCH  17  30
HETATM   30  O   UNL     1       2.476  31.090  56.436  1.00  0.00    -0.353 OA
HETATM   31  C   UNL     1       2.073  31.957  55.385  1.00  0.00     0.210 C 
ENDBRANCH  17  30
ENDBRANCH   1  13
BRANCH   5  32
HETATM   32  N   UNL     1       8.172  25.985  57.800  1.00  0.00    -0.282 NA
HETATM   33  H   UNL     1       9.182  26.051  57.711  1.00  0.00     0.126 HD
HETATM   34  H   UNL     1       7.835  25.035  57.926  1.00  0.00     0.126 HD
ENDBRANCH   5  32
BRANCH  12  35
HETATM   35  C   UNL     1       4.833  28.865  52.702  1.00  0.00    -0.005 A 
HETATM   36  C   UNL     1       3.741  29.733  52.840  1.00  0.00     0.015 A 
HETATM   37  C   UNL     1       3.524  30.755  51.913  1.00  0.00     0.020 A 
HETATM   38  C   UNL     1       4.397  30.909  50.840  1.00  0.00     0.011 A 
HETATM   39 BR   UNL     1       4.101  32.283  49.576  1.00  0.00    -0.051 Br
HETATM   40  C   UNL     1       5.483  30.049  50.683  1.00  0.00     0.020 A 
HETATM   41  C   UNL     1       5.700  29.027  51.612  1.00  0.00     0.015 A 
ENDBRANCH  12  35
TORSDOF 7
ENDMDL
