MODEL 1
REMARK VINA RESULT:     -10.1      0.000      0.000
REMARK  5 active torsions:
REMARK  status: ('A' for Active; 'I' for Inactive)
REMARK    1  A    between atoms: C_3  and  N_4 
REMARK       I    between atoms: N_4  and  C_5 
REMARK    2  A    between atoms: C_5  and  C_6 
REMARK    3  A    between atoms: C_14  and  C_15 
REMARK    4  A    between atoms: C_24  and  O_25 
REMARK    5  A    between atoms: C_27  and  O_28 
ROOT
HETATM    1  C   UNL     1       7.097  26.725  53.801  1.00  0.00     0.047 A 
HETATM    2  C   UNL     1       6.300  26.848  52.635  1.00  0.00     0.008 A 
HETATM    3  C   UNL     1       5.873  25.639  52.058  1.00  0.00     0.068 A 
HETATM    4  C   UNL     1       5.059  25.673  50.935  1.00  0.00     0.032 A 
HETATM    5  C   UNL     1       4.672  26.873  50.336  1.00  0.00     0.002 A 
HETATM    6  C   UNL     1       5.120  28.073  50.860  1.00  0.00     0.001 A 
HETATM    7  C   UNL     1       5.932  28.063  51.993  1.00  0.00     0.015 A 
HETATM    8  N   UNL     1       6.234  24.436  52.532  1.00  0.00    -0.248 NA
HETATM    9  C   UNL     1       7.066  24.334  53.597  1.00  0.00     0.068 A 
HETATM   10  C   UNL     1       7.503  25.468  54.262  1.00  0.00     0.050 A 
ENDROOT
BRANCH   1  11
HETATM   11  C   UNL     1       7.592  27.904  54.568  1.00  0.00     0.257 C 
HETATM   12  N   UNL     1       6.979  28.095  55.787  1.00  0.00    -0.322 N 
HETATM   13  H   UNL     1       6.528  27.272  56.171  1.00  0.00     0.169 HD
HETATM   14  O   UNL     1       8.532  28.537  54.109  1.00  0.00    -0.267 OA
BRANCH  12  15
HETATM   15  C   UNL     1       6.887  29.260  56.588  1.00  0.00     0.043 A 
HETATM   16  C   UNL     1       5.758  30.084  56.745  1.00  0.00    -0.032 A 
HETATM   17  C   UNL     1       4.444  29.903  56.036  1.00  0.00     0.050 C 
HETATM   18  C   UNL     1       5.820  31.155  57.663  1.00  0.00     0.048 A 
HETATM   19  C   UNL     1       6.947  31.384  58.456  1.00  0.00     0.102 A 
HETATM   20  C   UNL     1       8.074  30.571  58.297  1.00  0.00     0.103 A 
HETATM   21  C   UNL     1       8.029  29.517  57.376  1.00  0.00     0.069 A 
BRANCH  19  22
HETATM   22  O   UNL     1       7.035  32.392  59.386  1.00  0.00    -0.353 OA
HETATM   23  C   UNL     1       5.879  32.611  60.186  1.00  0.00     0.210 C 
ENDBRANCH  19  22
BRANCH  20  24
HETATM   24  O   UNL     1       9.145  30.854  59.108  1.00  0.00    -0.353 OA
HETATM   25  C   UNL     1      10.244  31.546  58.533  1.00  0.00     0.210 C 
ENDBRANCH  20  24
ENDBRANCH  12  15
ENDBRANCH   1  11
BRANCH   9  26
HETATM   26  C   UNL     1       7.483  22.953  53.947  1.00  0.00    -0.007 A 
HETATM   27  C   UNL     1       7.484  22.528  55.292  1.00  0.00     0.014 A 
HETATM   28  C   UNL     1       7.846  21.228  55.659  1.00  0.00     0.001 A 
HETATM   29  C   UNL     1       8.221  20.312  54.684  1.00  0.00     0.000 A 
HETATM   30  C   UNL     1       8.238  20.700  53.347  1.00  0.00     0.001 A 
HETATM   31  C   UNL     1       7.877  22.004  52.985  1.00  0.00     0.014 A 
ENDBRANCH   9  26
TORSDOF 5
ENDMDL
MODEL 2
REMARK VINA RESULT:     -10.1      1.367      2.313
REMARK  5 active torsions:
REMARK  status: ('A' for Active; 'I' for Inactive)
REMARK    1  A    between atoms: C_3  and  N_4 
REMARK       I    between atoms: N_4  and  C_5 
REMARK    2  A    between atoms: C_5  and  C_6 
REMARK    3  A    between atoms: C_14  and  C_15 
REMARK    4  A    between atoms: C_24  and  O_25 
REMARK    5  A    between atoms: C_27  and  O_28 
ROOT
HETATM    1  C   UNL     1       6.580  26.608  54.962  1.00  0.00     0.047 A 
HETATM    2  C   UNL     1       6.203  27.045  53.668  1.00  0.00     0.008 A 
HETATM    3  C   UNL     1       6.181  26.054  52.672  1.00  0.00     0.068 A 
HETATM    4  C   UNL     1       5.789  26.394  51.385  1.00  0.00     0.032 A 
HETATM    5  C   UNL     1       5.442  27.699  51.035  1.00  0.00     0.002 A 
HETATM    6  C   UNL     1       5.502  28.700  51.990  1.00  0.00     0.001 A 
HETATM    7  C   UNL     1       5.886  28.381  53.291  1.00  0.00     0.015 A 
HETATM    8  N   UNL     1       6.546  24.783  52.899  1.00  0.00    -0.248 NA
HETATM    9  C   UNL     1       6.985  24.397  54.122  1.00  0.00     0.068 A 
HETATM   10  C   UNL     1       6.999  25.291  55.180  1.00  0.00     0.050 A 
ENDROOT
BRANCH   1  11
HETATM   11  C   UNL     1       6.606  27.516  56.145  1.00  0.00     0.257 C 
HETATM   12  N   UNL     1       7.371  28.650  55.984  1.00  0.00    -0.322 N 
HETATM   13  H   UNL     1       7.546  28.911  55.020  1.00  0.00     0.169 HD
HETATM   14  O   UNL     1       5.900  27.233  57.104  1.00  0.00    -0.267 OA
BRANCH  12  15
HETATM   15  C   UNL     1       7.943  29.509  56.954  1.00  0.00     0.043 A 
HETATM   16  C   UNL     1       9.314  29.716  57.188  1.00  0.00    -0.032 A 
HETATM   17  C   UNL     1      10.434  29.010  56.475  1.00  0.00     0.050 C 
HETATM   18  C   UNL     1       9.703  30.687  58.137  1.00  0.00     0.048 A 
HETATM   19  C   UNL     1       8.769  31.482  58.807  1.00  0.00     0.102 A 
HETATM   20  C   UNL     1       7.405  31.272  58.582  1.00  0.00     0.103 A 
HETATM   21  C   UNL     1       7.008  30.300  57.656  1.00  0.00     0.069 A 
BRANCH  19  22
HETATM   22  O   UNL     1       9.107  32.460  59.710  1.00  0.00    -0.353 OA
HETATM   23  C   UNL     1       9.606  32.013  60.965  1.00  0.00     0.210 C 
ENDBRANCH  19  22
BRANCH  20  24
HETATM   24  O   UNL     1       6.545  32.088  59.275  1.00  0.00    -0.353 OA
HETATM   25  C   UNL     1       5.165  32.025  58.946  1.00  0.00     0.210 C 
ENDBRANCH  20  24
ENDBRANCH  12  15
ENDBRANCH   1  11
BRANCH   9  26
HETATM   26  C   UNL     1       7.469  22.997  54.211  1.00  0.00    -0.007 A 
HETATM   27  C   UNL     1       7.547  22.347  55.460  1.00  0.00     0.014 A 
HETATM   28  C   UNL     1       7.974  21.021  55.581  1.00  0.00     0.001 A 
HETATM   29  C   UNL     1       8.340  20.305  54.448  1.00  0.00     0.000 A 
HETATM   30  C   UNL     1       8.283  20.917  53.200  1.00  0.00     0.001 A 
HETATM   31  C   UNL     1       7.856  22.247  53.084  1.00  0.00     0.014 A 
ENDBRANCH   9  26
TORSDOF 5
ENDMDL
MODEL 3
REMARK VINA RESULT:     -10.0      3.180      7.253
REMARK  5 active torsions:
REMARK  status: ('A' for Active; 'I' for Inactive)
REMARK    1  A    between atoms: C_3  and  N_4 
REMARK       I    between atoms: N_4  and  C_5 
REMARK    2  A    between atoms: C_5  and  C_6 
REMARK    3  A    between atoms: C_14  and  C_15 
REMARK    4  A    between atoms: C_24  and  O_25 
REMARK    5  A    between atoms: C_27  and  O_28 
ROOT
HETATM    1  C   UNL     1       6.037  25.905  54.008  1.00  0.00     0.047 A 
HETATM    2  C   UNL     1       6.493  26.570  55.174  1.00  0.00     0.008 A 
HETATM    3  C   UNL     1       7.432  25.868  55.949  1.00  0.00     0.068 A 
HETATM    4  C   UNL     1       7.954  26.465  57.088  1.00  0.00     0.032 A 
HETATM    5  C   UNL     1       7.556  27.734  57.510  1.00  0.00     0.002 A 
HETATM    6  C   UNL     1       6.597  28.424  56.787  1.00  0.00     0.001 A 
HETATM    7  C   UNL     1       6.064  27.847  55.635  1.00  0.00     0.015 A 
HETATM    8  N   UNL     1       7.839  24.624  55.653  1.00  0.00    -0.248 NA
HETATM    9  C   UNL     1       7.331  23.967  54.582  1.00  0.00     0.068 A 
HETATM   10  C   UNL     1       6.435  24.593  53.731  1.00  0.00     0.050 A 
ENDROOT
BRANCH   1  11
HETATM   11  C   UNL     1       5.082  26.525  53.046  1.00  0.00     0.257 C 
HETATM   12  N   UNL     1       5.452  26.428  51.723  1.00  0.00    -0.322 N 
HETATM   13  H   UNL     1       6.117  25.689  51.520  1.00  0.00     0.169 HD
HETATM   14  O   UNL     1       4.035  26.982  53.486  1.00  0.00    -0.267 OA
BRANCH  12  15
HETATM   15  C   UNL     1       5.043  27.193  50.603  1.00  0.00     0.043 A 
HETATM   16  C   UNL     1       5.079  28.594  50.486  1.00  0.00    -0.032 A 
HETATM   17  C   UNL     1       5.514  29.546  51.565  1.00  0.00     0.050 C 
HETATM   18  C   UNL     1       4.720  29.182  49.253  1.00  0.00     0.048 A 
HETATM   19  C   UNL     1       4.383  28.412  48.137  1.00  0.00     0.102 A 
HETATM   20  C   UNL     1       4.339  27.019  48.253  1.00  0.00     0.103 A 
HETATM   21  C   UNL     1       4.677  26.426  49.476  1.00  0.00     0.069 A 
BRANCH  19  22
HETATM   22  O   UNL     1       4.062  28.944  46.912  1.00  0.00    -0.353 OA
HETATM   23  C   UNL     1       2.862  29.705  46.851  1.00  0.00     0.210 C 
ENDBRANCH  19  22
BRANCH  20  24
HETATM   24  O   UNL     1       4.000  26.327  47.117  1.00  0.00    -0.353 OA
HETATM   25  C   UNL     1       2.830  25.524  47.158  1.00  0.00     0.210 C 
ENDBRANCH  20  24
ENDBRANCH  12  15
ENDBRANCH   1  11
BRANCH   9  26
HETATM   26  C   UNL     1       7.773  22.558  54.432  1.00  0.00    -0.007 A 
HETATM   27  C   UNL     1       7.960  22.002  53.150  1.00  0.00     0.014 A 
HETATM   28  C   UNL     1       8.400  20.686  52.969  1.00  0.00     0.001 A 
HETATM   29  C   UNL     1       8.665  19.886  54.074  1.00  0.00     0.000 A 
HETATM   30  C   UNL     1       8.483  20.401  55.354  1.00  0.00     0.001 A 
HETATM   31  C   UNL     1       8.040  21.718  55.530  1.00  0.00     0.014 A 
ENDBRANCH   9  26
TORSDOF 5
ENDMDL
MODEL 4
REMARK VINA RESULT:      -9.7      3.193      8.195
REMARK  5 active torsions:
REMARK  status: ('A' for Active; 'I' for Inactive)
REMARK    1  A    between atoms: C_3  and  N_4 
REMARK       I    between atoms: N_4  and  C_5 
REMARK    2  A    between atoms: C_5  and  C_6 
REMARK    3  A    between atoms: C_14  and  C_15 
REMARK    4  A    between atoms: C_24  and  O_25 
REMARK    5  A    between atoms: C_27  and  O_28 
ROOT
HETATM    1  C   UNL     1       6.372  25.621  53.979  1.00  0.00     0.047 A 
HETATM    2  C   UNL     1       7.169  24.479  54.248  1.00  0.00     0.008 A 
HETATM    3  C   UNL     1       7.973  24.555  55.398  1.00  0.00     0.068 A 
HETATM    4  C   UNL     1       8.756  23.464  55.751  1.00  0.00     0.032 A 
HETATM    5  C   UNL     1       8.796  22.300  54.983  1.00  0.00     0.002 A 
HETATM    6  C   UNL     1       8.047  22.223  53.821  1.00  0.00     0.001 A 
HETATM    7  C   UNL     1       7.247  23.303  53.451  1.00  0.00     0.015 A 
HETATM    8  N   UNL     1       8.041  25.649  56.171  1.00  0.00    -0.248 NA
HETATM    9  C   UNL     1       7.339  26.764  55.854  1.00  0.00     0.068 A 
HETATM   10  C   UNL     1       6.482  26.772  54.766  1.00  0.00     0.050 A 
ENDROOT
BRANCH   1  11
HETATM   11  C   UNL     1       5.423  25.690  52.831  1.00  0.00     0.257 C 
HETATM   12  N   UNL     1       5.850  26.468  51.777  1.00  0.00    -0.322 N 
HETATM   13  H   UNL     1       6.852  26.624  51.741  1.00  0.00     0.169 HD
HETATM   14  O   UNL     1       4.411  25.004  52.877  1.00  0.00    -0.267 OA
BRANCH  12  15
HETATM   15  C   UNL     1       5.109  27.077  50.734  1.00  0.00     0.043 A 
HETATM   16  C   UNL     1       4.749  28.433  50.643  1.00  0.00    -0.032 A 
HETATM   17  C   UNL     1       5.043  29.484  51.678  1.00  0.00     0.050 C 
HETATM   18  C   UNL     1       4.087  28.884  49.479  1.00  0.00     0.048 A 
HETATM   19  C   UNL     1       3.831  28.036  48.399  1.00  0.00     0.102 A 
HETATM   20  C   UNL     1       4.182  26.685  48.491  1.00  0.00     0.103 A 
HETATM   21  C   UNL     1       4.822  26.224  49.648  1.00  0.00     0.069 A 
BRANCH  19  22
HETATM   22  O   UNL     1       3.224  28.442  47.236  1.00  0.00    -0.353 OA
HETATM   23  C   UNL     1       3.274  29.836  46.953  1.00  0.00     0.210 C 
ENDBRANCH  19  22
BRANCH  20  24
HETATM   24  O   UNL     1       3.900  25.910  47.393  1.00  0.00    -0.353 OA
HETATM   25  C   UNL     1       2.945  24.871  47.546  1.00  0.00     0.210 C 
ENDBRANCH  20  24
ENDBRANCH  12  15
ENDBRANCH   1  11
BRANCH   9  26
HETATM   26  C   UNL     1       7.592  27.943  56.721  1.00  0.00    -0.007 A 
HETATM   27  C   UNL     1       8.913  28.340  57.015  1.00  0.00     0.014 A 
HETATM   28  C   UNL     1       9.192  29.459  57.807  1.00  0.00     0.001 A 
HETATM   29  C   UNL     1       8.150  30.214  58.330  1.00  0.00     0.000 A 
HETATM   30  C   UNL     1       6.834  29.846  58.065  1.00  0.00     0.001 A 
HETATM   31  C   UNL     1       6.560  28.723  57.274  1.00  0.00     0.014 A 
ENDBRANCH   9  26
TORSDOF 5
ENDMDL
MODEL 5
REMARK VINA RESULT:      -9.6      3.146      6.912
REMARK  5 active torsions:
REMARK  status: ('A' for Active; 'I' for Inactive)
REMARK    1  A    between atoms: C_3  and  N_4 
REMARK       I    between atoms: N_4  and  C_5 
REMARK    2  A    between atoms: C_5  and  C_6 
REMARK    3  A    between atoms: C_14  and  C_15 
REMARK    4  A    between atoms: C_24  and  O_25 
REMARK    5  A    between atoms: C_27  and  O_28 
ROOT
HETATM    1  C   UNL     1       5.942  26.448  53.430  1.00  0.00     0.047 A 
HETATM    2  C   UNL     1       6.432  27.211  54.519  1.00  0.00     0.008 A 
HETATM    3  C   UNL     1       7.321  26.545  55.380  1.00  0.00     0.068 A 
HETATM    4  C   UNL     1       7.873  27.234  56.450  1.00  0.00     0.032 A 
HETATM    5  C   UNL     1       7.552  28.564  56.722  1.00  0.00     0.002 A 
HETATM    6  C   UNL     1       6.642  29.225  55.914  1.00  0.00     0.001 A 
HETATM    7  C   UNL     1       6.080  28.556  54.828  1.00  0.00     0.015 A 
HETATM    8  N   UNL     1       7.652  25.253  55.230  1.00  0.00    -0.248 NA
HETATM    9  C   UNL     1       7.110  24.512  54.233  1.00  0.00     0.068 A 
HETATM   10  C   UNL     1       6.259  25.091  53.306  1.00  0.00     0.050 A 
ENDROOT
BRANCH   1  11
HETATM   11  C   UNL     1       5.032  27.013  52.392  1.00  0.00     0.257 C 
HETATM   12  N   UNL     1       5.445  26.813  51.094  1.00  0.00    -0.322 N 
HETATM   13  H   UNL     1       6.101  26.050  50.968  1.00  0.00     0.169 HD
HETATM   14  O   UNL     1       3.980  27.518  52.761  1.00  0.00    -0.267 OA
BRANCH  12  15
HETATM   15  C   UNL     1       5.089  27.502  49.907  1.00  0.00     0.043 A 
HETATM   16  C   UNL     1       4.330  26.995  48.838  1.00  0.00    -0.032 A 
HETATM   17  C   UNL     1       3.798  25.592  48.738  1.00  0.00     0.050 C 
HETATM   18  C   UNL     1       3.991  27.860  47.774  1.00  0.00     0.048 A 
HETATM   19  C   UNL     1       4.342  29.213  47.781  1.00  0.00     0.102 A 
HETATM   20  C   UNL     1       5.104  29.717  48.840  1.00  0.00     0.103 A 
HETATM   21  C   UNL     1       5.459  28.864  49.892  1.00  0.00     0.069 A 
BRANCH  19  22
HETATM   22  O   UNL     1       4.002  30.094  46.785  1.00  0.00    -0.353 OA
HETATM   23  C   UNL     1       2.612  30.232  46.513  1.00  0.00     0.210 C 
ENDBRANCH  19  22
BRANCH  20  24
HETATM   24  O   UNL     1       5.412  31.053  48.781  1.00  0.00    -0.353 OA
HETATM   25  C   UNL     1       5.962  31.656  49.942  1.00  0.00     0.210 C 
ENDBRANCH  20  24
ENDBRANCH  12  15
ENDBRANCH   1  11
BRANCH   9  26
HETATM   26  C   UNL     1       7.465  23.070  54.248  1.00  0.00    -0.007 A 
HETATM   27  C   UNL     1       7.751  22.394  53.044  1.00  0.00     0.014 A 
HETATM   28  C   UNL     1       8.113  21.043  53.021  1.00  0.00     0.001 A 
HETATM   29  C   UNL     1       8.198  20.328  54.209  1.00  0.00     0.000 A 
HETATM   30  C   UNL     1       7.914  20.962  55.414  1.00  0.00     0.001 A 
HETATM   31  C   UNL     1       7.549  22.314  55.433  1.00  0.00     0.014 A 
ENDBRANCH   9  26
TORSDOF 5
ENDMDL
MODEL 6
REMARK VINA RESULT:      -9.6      1.629      4.914
REMARK  5 active torsions:
REMARK  status: ('A' for Active; 'I' for Inactive)
REMARK    1  A    between atoms: C_3  and  N_4 
REMARK       I    between atoms: N_4  and  C_5 
REMARK    2  A    between atoms: C_5  and  C_6 
REMARK    3  A    between atoms: C_14  and  C_15 
REMARK    4  A    between atoms: C_24  and  O_25 
REMARK    5  A    between atoms: C_27  and  O_28 
ROOT
HETATM    1  C   UNL     1       6.913  26.873  55.076  1.00  0.00     0.047 A 
HETATM    2  C   UNL     1       7.478  25.573  55.084  1.00  0.00     0.008 A 
HETATM    3  C   UNL     1       7.469  24.897  53.851  1.00  0.00     0.068 A 
HETATM    4  C   UNL     1       8.036  23.633  53.767  1.00  0.00     0.032 A 
HETATM    5  C   UNL     1       8.592  22.993  54.875  1.00  0.00     0.002 A 
HETATM    6  C   UNL     1       8.568  23.622  56.109  1.00  0.00     0.001 A 
HETATM    7  C   UNL     1       8.011  24.895  56.216  1.00  0.00     0.015 A 
HETATM    8  N   UNL     1       6.914  25.409  52.742  1.00  0.00    -0.248 NA
HETATM    9  C   UNL     1       6.301  26.618  52.770  1.00  0.00     0.068 A 
HETATM   10  C   UNL     1       6.298  27.380  53.926  1.00  0.00     0.050 A 
ENDROOT
BRANCH   1  11
HETATM   11  C   UNL     1       6.886  27.749  56.283  1.00  0.00     0.257 C 
HETATM   12  N   UNL     1       7.671  28.877  56.192  1.00  0.00    -0.322 N 
HETATM   13  H   UNL     1       7.901  29.162  55.246  1.00  0.00     0.169 HD
HETATM   14  O   UNL     1       6.128  27.451  57.195  1.00  0.00    -0.267 OA
BRANCH  12  15
HETATM   15  C   UNL     1       8.201  29.704  57.213  1.00  0.00     0.043 A 
HETATM   16  C   UNL     1       9.557  30.007  57.429  1.00  0.00    -0.032 A 
HETATM   17  C   UNL     1      10.708  29.454  56.636  1.00  0.00     0.050 C 
HETATM   18  C   UNL     1       9.894  30.931  58.443  1.00  0.00     0.048 A 
HETATM   19  C   UNL     1       8.920  31.590  59.197  1.00  0.00     0.102 A 
HETATM   20  C   UNL     1       7.570  31.285  58.989  1.00  0.00     0.103 A 
HETATM   21  C   UNL     1       7.226  30.357  57.998  1.00  0.00     0.069 A 
BRANCH  19  22
HETATM   22  O   UNL     1       9.204  32.520  60.166  1.00  0.00    -0.353 OA
HETATM   23  C   UNL     1       9.754  32.018  61.378  1.00  0.00     0.210 C 
ENDBRANCH  19  22
BRANCH  20  24
HETATM   24  O   UNL     1       6.669  31.969  59.765  1.00  0.00    -0.353 OA
HETATM   25  C   UNL     1       5.681  32.745  59.102  1.00  0.00     0.210 C 
ENDBRANCH  20  24
ENDBRANCH  12  15
ENDBRANCH   1  11
BRANCH   9  26
HETATM   26  C   UNL     1       5.624  27.016  51.510  1.00  0.00    -0.007 A 
HETATM   27  C   UNL     1       5.476  28.379  51.181  1.00  0.00     0.014 A 
HETATM   28  C   UNL     1       4.867  28.793  49.992  1.00  0.00     0.001 A 
HETATM   29  C   UNL     1       4.385  27.848  49.095  1.00  0.00     0.000 A 
HETATM   30  C   UNL     1       4.508  26.494  49.392  1.00  0.00     0.001 A 
HETATM   31  C   UNL     1       5.116  26.084  50.585  1.00  0.00     0.014 A 
ENDBRANCH   9  26
TORSDOF 5
ENDMDL
MODEL 7
REMARK VINA RESULT:      -9.4      1.525      4.628
REMARK  5 active torsions:
REMARK  status: ('A' for Active; 'I' for Inactive)
REMARK    1  A    between atoms: C_3  and  N_4 
REMARK       I    between atoms: N_4  and  C_5 
REMARK    2  A    between atoms: C_5  and  C_6 
REMARK    3  A    between atoms: C_14  and  C_15 
REMARK    4  A    between atoms: C_24  and  O_25 
REMARK    5  A    between atoms: C_27  and  O_28 
ROOT
HETATM    1  C   UNL     1       6.213  26.547  54.162  1.00  0.00     0.047 A 
HETATM    2  C   UNL     1       6.845  25.280  54.110  1.00  0.00     0.008 A 
HETATM    3  C   UNL     1       6.983  24.719  52.828  1.00  0.00     0.068 A 
HETATM    4  C   UNL     1       7.623  23.495  52.689  1.00  0.00     0.032 A 
HETATM    5  C   UNL     1       8.112  22.784  53.785  1.00  0.00     0.002 A 
HETATM    6  C   UNL     1       7.944  23.296  55.061  1.00  0.00     0.001 A 
HETATM    7  C   UNL     1       7.311  24.527  55.225  1.00  0.00     0.015 A 
HETATM    8  N   UNL     1       6.502  25.303  51.720  1.00  0.00    -0.248 NA
HETATM    9  C   UNL     1       5.825  26.474  51.795  1.00  0.00     0.068 A 
HETATM   10  C   UNL     1       5.678  27.128  53.007  1.00  0.00     0.050 A 
ENDROOT
BRANCH   1  11
HETATM   11  C   UNL     1       6.031  27.308  55.431  1.00  0.00     0.257 C 
HETATM   12  N   UNL     1       6.545  28.585  55.415  1.00  0.00    -0.322 N 
HETATM   13  H   UNL     1       6.677  28.980  54.490  1.00  0.00     0.169 HD
HETATM   14  O   UNL     1       5.385  26.785  56.329  1.00  0.00    -0.267 OA
BRANCH  12  15
HETATM   15  C   UNL     1       6.911  29.435  56.489  1.00  0.00     0.043 A 
HETATM   16  C   UNL     1       6.037  30.140  57.335  1.00  0.00    -0.032 A 
HETATM   17  C   UNL     1       4.538  30.161  57.216  1.00  0.00     0.050 C 
HETATM   18  C   UNL     1       6.579  30.867  58.419  1.00  0.00     0.048 A 
HETATM   19  C   UNL     1       7.948  30.861  58.702  1.00  0.00     0.102 A 
HETATM   20  C   UNL     1       8.819  30.166  57.857  1.00  0.00     0.103 A 
HETATM   21  C   UNL     1       8.294  29.456  56.770  1.00  0.00     0.069 A 
BRANCH  19  22
HETATM   22  O   UNL     1       8.510  31.524  59.765  1.00  0.00    -0.353 OA
HETATM   23  C   UNL     1       7.867  31.356  61.023  1.00  0.00     0.210 C 
ENDBRANCH  19  22
BRANCH  20  24
HETATM   24  O   UNL     1      10.149  30.204  58.195  1.00  0.00    -0.353 OA
HETATM   25  C   UNL     1      11.096  29.878  57.189  1.00  0.00     0.210 C 
ENDBRANCH  20  24
ENDBRANCH  12  15
ENDBRANCH   1  11
BRANCH   9  26
HETATM   26  C   UNL     1       5.243  26.954  50.516  1.00  0.00    -0.007 A 
HETATM   27  C   UNL     1       5.364  28.308  50.141  1.00  0.00     0.014 A 
HETATM   28  C   UNL     1       4.851  28.792  48.933  1.00  0.00     0.001 A 
HETATM   29  C   UNL     1       4.197  27.929  48.063  1.00  0.00     0.000 A 
HETATM   30  C   UNL     1       4.053  26.588  48.405  1.00  0.00     0.001 A 
HETATM   31  C   UNL     1       4.566  26.108  49.617  1.00  0.00     0.014 A 
ENDBRANCH   9  26
TORSDOF 5
ENDMDL
MODEL 8
REMARK VINA RESULT:      -9.1      2.746      8.322
REMARK  5 active torsions:
REMARK  status: ('A' for Active; 'I' for Inactive)
REMARK    1  A    between atoms: C_3  and  N_4 
REMARK       I    between atoms: N_4  and  C_5 
REMARK    2  A    between atoms: C_5  and  C_6 
REMARK    3  A    between atoms: C_14  and  C_15 
REMARK    4  A    between atoms: C_24  and  O_25 
REMARK    5  A    between atoms: C_27  and  O_28 
ROOT
HETATM    1  C   UNL     1       6.008  28.027  56.304  1.00  0.00     0.047 A 
HETATM    2  C   UNL     1       5.160  28.756  55.433  1.00  0.00     0.008 A 
HETATM    3  C   UNL     1       5.192  30.153  55.580  1.00  0.00     0.068 A 
HETATM    4  C   UNL     1       4.417  30.941  54.740  1.00  0.00     0.032 A 
HETATM    5  C   UNL     1       3.580  30.390  53.769  1.00  0.00     0.002 A 
HETATM    6  C   UNL     1       3.499  29.014  53.639  1.00  0.00     0.001 A 
HETATM    7  C   UNL     1       4.273  28.203  54.467  1.00  0.00     0.015 A 
HETATM    8  N   UNL     1       5.926  30.773  56.517  1.00  0.00    -0.248 NA
HETATM    9  C   UNL     1       6.666  30.058  57.399  1.00  0.00     0.068 A 
HETATM   10  C   UNL     1       6.736  28.678  57.306  1.00  0.00     0.050 A 
ENDROOT
BRANCH   1  11
HETATM   11  C   UNL     1       6.137  26.542  56.250  1.00  0.00     0.257 C 
HETATM   12  N   UNL     1       7.261  26.086  55.597  1.00  0.00    -0.322 N 
HETATM   13  H   UNL     1       8.016  26.760  55.526  1.00  0.00     0.169 HD
HETATM   14  O   UNL     1       5.307  25.869  56.846  1.00  0.00    -0.267 OA
BRANCH  12  15
HETATM   15  C   UNL     1       7.527  24.821  55.015  1.00  0.00     0.043 A 
HETATM   16  C   UNL     1       7.829  24.566  53.665  1.00  0.00    -0.032 A 
HETATM   17  C   UNL     1       7.870  25.598  52.573  1.00  0.00     0.050 C 
HETATM   18  C   UNL     1       8.161  23.248  53.281  1.00  0.00     0.048 A 
HETATM   19  C   UNL     1       8.251  22.208  54.209  1.00  0.00     0.102 A 
HETATM   20  C   UNL     1       7.944  22.458  55.551  1.00  0.00     0.103 A 
HETATM   21  C   UNL     1       7.596  23.758  55.939  1.00  0.00     0.069 A 
BRANCH  19  22
HETATM   22  O   UNL     1       8.605  20.922  53.883  1.00  0.00    -0.353 OA
HETATM   23  C   UNL     1       8.071  20.411  52.667  1.00  0.00     0.210 C 
ENDBRANCH  19  22
BRANCH  20  24
HETATM   24  O   UNL     1       8.052  21.390  56.406  1.00  0.00    -0.353 OA
HETATM   25  C   UNL     1       8.413  21.657  57.753  1.00  0.00     0.210 C 
ENDBRANCH  20  24
ENDBRANCH  12  15
ENDBRANCH   1  11
BRANCH   9  26
HETATM   26  C   UNL     1       7.336  30.854  58.458  1.00  0.00    -0.007 A 
HETATM   27  C   UNL     1       8.741  30.841  58.578  1.00  0.00     0.014 A 
HETATM   28  C   UNL     1       9.410  31.598  59.546  1.00  0.00     0.001 A 
HETATM   29  C   UNL     1       8.686  32.391  60.428  1.00  0.00     0.000 A 
HETATM   30  C   UNL     1       7.297  32.421  60.342  1.00  0.00     0.001 A 
HETATM   31  C   UNL     1       6.631  31.660  59.373  1.00  0.00     0.014 A 
ENDBRANCH   9  26
TORSDOF 5
ENDMDL
MODEL 9
REMARK VINA RESULT:      -8.7      3.466      7.309
REMARK  5 active torsions:
REMARK  status: ('A' for Active; 'I' for Inactive)
REMARK    1  A    between atoms: C_3  and  N_4 
REMARK       I    between atoms: N_4  and  C_5 
REMARK    2  A    between atoms: C_5  and  C_6 
REMARK    3  A    between atoms: C_14  and  C_15 
REMARK    4  A    between atoms: C_24  and  O_25 
REMARK    5  A    between atoms: C_27  and  O_28 
ROOT
HETATM    1  C   UNL     1       6.020  27.658  53.389  1.00  0.00     0.047 A 
HETATM    2  C   UNL     1       5.943  28.168  54.709  1.00  0.00     0.008 A 
HETATM    3  C   UNL     1       6.550  27.381  55.703  1.00  0.00     0.068 A 
HETATM    4  C   UNL     1       6.549  27.829  57.017  1.00  0.00     0.032 A 
HETATM    5  C   UNL     1       5.937  29.025  57.394  1.00  0.00     0.002 A 
HETATM    6  C   UNL     1       5.293  29.792  56.438  1.00  0.00     0.001 A 
HETATM    7  C   UNL     1       5.287  29.366  55.110  1.00  0.00     0.015 A 
HETATM    8  N   UNL     1       7.119  26.194  55.448  1.00  0.00    -0.248 NA
HETATM    9  C   UNL     1       7.111  25.678  54.194  1.00  0.00     0.068 A 
HETATM   10  C   UNL     1       6.577  26.400  53.139  1.00  0.00     0.050 A 
ENDROOT
BRANCH   1  11
HETATM   11  C   UNL     1       5.475  28.388  52.209  1.00  0.00     0.257 C 
HETATM   12  N   UNL     1       4.182  28.054  51.871  1.00  0.00    -0.322 N 
HETATM   13  H   UNL     1       3.643  27.629  52.618  1.00  0.00     0.169 HD
HETATM   14  O   UNL     1       6.166  29.261  51.702  1.00  0.00    -0.267 OA
BRANCH  12  15
HETATM   15  C   UNL     1       3.488  28.217  50.646  1.00  0.00     0.043 A 
HETATM   16  C   UNL     1       3.597  27.402  49.506  1.00  0.00    -0.032 A 
HETATM   17  C   UNL     1       4.524  26.227  49.361  1.00  0.00     0.050 C 
HETATM   18  C   UNL     1       2.753  27.661  48.402  1.00  0.00     0.048 A 
HETATM   19  C   UNL     1       1.781  28.664  48.435  1.00  0.00     0.102 A 
HETATM   20  C   UNL     1       1.676  29.480  49.566  1.00  0.00     0.103 A 
HETATM   21  C   UNL     1       2.520  29.243  50.658  1.00  0.00     0.069 A 
BRANCH  19  22
HETATM   22  O   UNL     1       0.918  28.924  47.399  1.00  0.00    -0.353 OA
HETATM   23  C   UNL     1       0.487  27.800  46.641  1.00  0.00     0.210 C 
ENDBRANCH  19  22
BRANCH  20  24
HETATM   24  O   UNL     1       0.701  30.445  49.528  1.00  0.00    -0.353 OA
HETATM   25  C   UNL     1       0.953  31.666  50.207  1.00  0.00     0.210 C 
ENDBRANCH  20  24
ENDBRANCH  12  15
ENDBRANCH   1  11
BRANCH   9  26
HETATM   26  C   UNL     1       7.666  24.307  54.067  1.00  0.00    -0.007 A 
HETATM   27  C   UNL     1       8.408  23.738  55.123  1.00  0.00     0.014 A 
HETATM   28  C   UNL     1       8.926  22.441  55.050  1.00  0.00     0.001 A 
HETATM   29  C   UNL     1       8.715  21.673  53.911  1.00  0.00     0.000 A 
HETATM   30  C   UNL     1       7.994  22.207  52.848  1.00  0.00     0.001 A 
HETATM   31  C   UNL     1       7.479  23.508  52.924  1.00  0.00     0.014 A 
ENDBRANCH   9  26
TORSDOF 5
ENDMDL
MODEL 10
REMARK VINA RESULT:      -8.6      1.612      4.973
REMARK  5 active torsions:
REMARK  status: ('A' for Active; 'I' for Inactive)
REMARK    1  A    between atoms: C_3  and  N_4 
REMARK       I    between atoms: N_4  and  C_5 
REMARK    2  A    between atoms: C_5  and  C_6 
REMARK    3  A    between atoms: C_14  and  C_15 
REMARK    4  A    between atoms: C_24  and  O_25 
REMARK    5  A    between atoms: C_27  and  O_28 
ROOT
HETATM    1  C   UNL     1       6.964  27.113  53.773  1.00  0.00     0.047 A 
HETATM    2  C   UNL     1       7.225  25.738  53.996  1.00  0.00     0.008 A 
HETATM    3  C   UNL     1       6.888  24.875  52.939  1.00  0.00     0.068 A 
HETATM    4  C   UNL     1       7.145  23.517  53.064  1.00  0.00     0.032 A 
HETATM    5  C   UNL     1       7.702  22.970  54.221  1.00  0.00     0.002 A 
HETATM    6  C   UNL     1       7.998  23.797  55.292  1.00  0.00     0.001 A 
HETATM    7  C   UNL     1       7.755  25.166  55.186  1.00  0.00     0.015 A 
HETATM    8  N   UNL     1       6.303  25.298  51.808  1.00  0.00    -0.248 NA
HETATM    9  C   UNL     1       5.982  26.605  51.643  1.00  0.00     0.068 A 
HETATM   10  C   UNL     1       6.315  27.540  52.609  1.00  0.00     0.050 A 
ENDROOT
BRANCH   1  11
HETATM   11  C   UNL     1       7.307  28.172  54.766  1.00  0.00     0.257 C 
HETATM   12  N   UNL     1       6.309  28.456  55.672  1.00  0.00    -0.322 N 
HETATM   13  H   UNL     1       5.616  27.725  55.786  1.00  0.00     0.169 HD
HETATM   14  O   UNL     1       8.442  28.628  54.754  1.00  0.00    -0.267 OA
BRANCH  12  15
HETATM   15  C   UNL     1       6.105  29.608  56.472  1.00  0.00     0.043 A 
HETATM   16  C   UNL     1       6.793  29.943  57.651  1.00  0.00    -0.032 A 
HETATM   17  C   UNL     1       7.846  29.099  58.314  1.00  0.00     0.050 C 
HETATM   18  C   UNL     1       6.521  31.185  58.267  1.00  0.00     0.048 A 
HETATM   19  C   UNL     1       5.632  32.108  57.710  1.00  0.00     0.102 A 
HETATM   20  C   UNL     1       4.941  31.774  56.541  1.00  0.00     0.103 A 
HETATM   21  C   UNL     1       5.190  30.538  55.931  1.00  0.00     0.069 A 
BRANCH  19  22
HETATM   22  O   UNL     1       5.367  33.339  58.258  1.00  0.00    -0.353 OA
HETATM   23  C   UNL     1       5.135  33.366  59.661  1.00  0.00     0.210 C 
ENDBRANCH  19  22
BRANCH  20  24
HETATM   24  O   UNL     1       4.084  32.727  56.051  1.00  0.00    -0.353 OA
HETATM   25  C   UNL     1       3.902  32.791  54.644  1.00  0.00     0.210 C 
ENDBRANCH  20  24
ENDBRANCH  12  15
ENDBRANCH   1  11
BRANCH   9  26
HETATM   26  C   UNL     1       5.233  26.923  50.402  1.00  0.00    -0.007 A 
HETATM   27  C   UNL     1       5.255  28.230  49.871  1.00  0.00     0.014 A 
HETATM   28  C   UNL     1       4.584  28.562  48.690  1.00  0.00     0.001 A 
HETATM   29  C   UNL     1       3.865  27.591  48.005  1.00  0.00     0.000 A 
HETATM   30  C   UNL     1       3.815  26.293  48.505  1.00  0.00     0.001 A 
HETATM   31  C   UNL     1       4.488  25.965  49.689  1.00  0.00     0.014 A 
ENDBRANCH   9  26
TORSDOF 5
ENDMDL
