MODEL 1
REMARK VINA RESULT:     -10.5      0.000      0.000
REMARK  6 active torsions:
REMARK  status: ('A' for Active; 'I' for Inactive)
REMARK    1  A    between atoms: C_2  and  O_3 
REMARK    2  A    between atoms: C_2  and  C_4 
REMARK    3  A    between atoms: C_6  and  N_7 
REMARK       I    between atoms: N_7  and  C_8 
REMARK    4  A    between atoms: C_8  and  C_9 
REMARK    5  A    between atoms: C_14  and  C_15 
REMARK    6  A    between atoms: C_23  and  C_24 
ROOT
HETATM    1  C   UNL     1       7.668  30.485  57.948  1.00  0.00     0.148 A 
HETATM    2  N   UNL     1       6.568  30.548  57.156  1.00  0.00    -0.165 NA
HETATM    3  N   UNL     1       6.712  29.476  56.352  1.00  0.00    -0.240 N 
HETATM    4  C   UNL     1       7.876  28.795  56.533  1.00  0.00     0.123 A 
HETATM    5  N   UNL     1       8.162  27.709  55.792  1.00  0.00    -0.366 N 
HETATM    6  C   UNL     1       7.635  27.570  54.440  1.00  0.00     0.118 C 
HETATM    7  C   UNL     1       6.330  28.357  54.185  1.00  0.00     0.066 C 
HETATM    8  C   UNL     1       5.700  29.062  55.404  1.00  0.00     0.221 C 
HETATM    9  C   UNL     1       8.517  29.406  57.573  1.00  0.00     0.089 A 
HETATM   10  H   UNL     1       9.064  27.249  55.923  1.00  0.00     0.161 HD
ENDROOT
BRANCH   1  11
HETATM   11  C   UNL     1       7.907  31.413  59.066  1.00  0.00     0.276 C 
HETATM   12  N   UNL     1       7.036  31.214  60.118  1.00  0.00    -0.322 N 
HETATM   13  H   UNL     1       6.336  30.497  59.940  1.00  0.00     0.169 HD
HETATM   14  O   UNL     1       8.809  32.245  59.010  1.00  0.00    -0.266 OA
BRANCH  12  15
HETATM   15  C   UNL     1       7.045  31.840  61.377  1.00  0.00     0.035 A 
HETATM   16  C   UNL     1       5.976  32.592  61.874  1.00  0.00     0.039 A 
HETATM   17  C   UNL     1       6.049  33.226  63.127  1.00  0.00    -0.028 A 
HETATM   18  C   UNL     1       7.220  33.092  63.883  1.00  0.00     0.010 A 
HETATM   19  C   UNL     1       8.289  32.337  63.401  1.00  0.00     0.003 A 
HETATM   20  C   UNL     1       8.201  31.717  62.152  1.00  0.00     0.029 A 
BRANCH  17  21
HETATM   21  C   UNL     1       4.887  34.065  63.612  1.00  0.00     0.147 C 
HETATM   22  C   UNL     1       5.323  35.466  64.019  1.00  0.00     0.044 C 
BRANCH  21  23
HETATM   23  O   UNL     1       4.253  33.437  64.725  1.00  0.00    -0.391 OA
HETATM   24  H   UNL     1       4.966  33.135  65.314  1.00  0.00     0.210 HD
ENDBRANCH  21  23
ENDBRANCH  17  21
ENDBRANCH  12  15
ENDBRANCH   1  11
BRANCH   8  25
HETATM   25  C   UNL     1       4.662  28.208  56.096  1.00  0.00     0.409 C 
HETATM   26  F   UNL     1       3.464  28.831  56.183  1.00  0.00    -0.169 F 
HETATM   27  F   UNL     1       4.446  27.074  55.379  1.00  0.00    -0.169 F 
HETATM   28  F   UNL     1       5.015  27.824  57.337  1.00  0.00    -0.169 F 
ENDBRANCH   8  25
BRANCH   6  29
HETATM   29  C   UNL     1       7.538  26.094  54.093  1.00  0.00    -0.035 A 
HETATM   30  C   UNL     1       7.172  25.133  55.051  1.00  0.00     0.012 A 
HETATM   31  C   UNL     1       7.135  23.775  54.726  1.00  0.00     0.043 A 
HETATM   32  C   UNL     1       7.466  23.370  53.441  1.00  0.00     0.116 A 
HETATM   33  F   UNL     1       7.449  22.066  53.135  1.00  0.00    -0.206 F 
HETATM   34  C   UNL     1       7.825  24.298  52.472  1.00  0.00     0.043 A 
HETATM   35  C   UNL     1       7.856  25.656  52.794  1.00  0.00     0.012 A 
ENDBRANCH   6  29
TORSDOF 6
ENDMDL
MODEL 2
REMARK VINA RESULT:     -10.0      1.694      2.164
REMARK  6 active torsions:
REMARK  status: ('A' for Active; 'I' for Inactive)
REMARK    1  A    between atoms: C_2  and  O_3 
REMARK    2  A    between atoms: C_2  and  C_4 
REMARK    3  A    between atoms: C_6  and  N_7 
REMARK       I    between atoms: N_7  and  C_8 
REMARK    4  A    between atoms: C_8  and  C_9 
REMARK    5  A    between atoms: C_14  and  C_15 
REMARK    6  A    between atoms: C_23  and  C_24 
ROOT
HETATM    1  C   UNL     1       7.092  29.289  57.413  1.00  0.00     0.148 A 
HETATM    2  N   UNL     1       5.907  28.682  57.154  1.00  0.00    -0.165 NA
HETATM    3  N   UNL     1       6.266  27.635  56.384  1.00  0.00    -0.240 N 
HETATM    4  C   UNL     1       7.591  27.599  56.074  1.00  0.00     0.123 A 
HETATM    5  N   UNL     1       8.091  26.617  55.303  1.00  0.00    -0.366 N 
HETATM    6  C   UNL     1       7.261  25.963  54.298  1.00  0.00     0.118 C 
HETATM    7  C   UNL     1       5.746  26.013  54.598  1.00  0.00     0.066 C 
HETATM    8  C   UNL     1       5.331  26.618  55.954  1.00  0.00     0.221 C 
HETATM    9  C   UNL     1       8.166  28.644  56.738  1.00  0.00     0.089 A 
HETATM   10  H   UNL     1       9.081  26.645  55.052  1.00  0.00     0.161 HD
ENDROOT
BRANCH   1  11
HETATM   11  C   UNL     1       7.220  30.451  58.310  1.00  0.00     0.276 C 
HETATM   12  N   UNL     1       7.582  30.093  59.594  1.00  0.00    -0.322 N 
HETATM   13  H   UNL     1       7.653  29.088  59.734  1.00  0.00     0.169 HD
HETATM   14  O   UNL     1       7.024  31.589  57.896  1.00  0.00    -0.266 OA
BRANCH  12  15
HETATM   15  C   UNL     1       7.894  30.942  60.671  1.00  0.00     0.035 A 
HETATM   16  C   UNL     1       6.936  31.471  61.541  1.00  0.00     0.039 A 
HETATM   17  C   UNL     1       7.300  32.342  62.584  1.00  0.00    -0.028 A 
HETATM   18  C   UNL     1       8.650  32.676  62.744  1.00  0.00     0.010 A 
HETATM   19  C   UNL     1       9.614  32.146  61.888  1.00  0.00     0.003 A 
HETATM   20  C   UNL     1       9.236  31.286  60.854  1.00  0.00     0.029 A 
BRANCH  17  21
HETATM   21  C   UNL     1       6.229  32.927  63.479  1.00  0.00     0.147 C 
HETATM   22  C   UNL     1       6.792  33.397  64.813  1.00  0.00     0.044 C 
BRANCH  21  23
HETATM   23  O   UNL     1       5.206  31.963  63.723  1.00  0.00    -0.391 OA
HETATM   24  H   UNL     1       5.372  31.604  64.612  1.00  0.00     0.210 HD
ENDBRANCH  21  23
ENDBRANCH  17  21
ENDBRANCH  12  15
ENDBRANCH   1  11
BRANCH   8  25
HETATM   25  C   UNL     1       5.176  25.570  57.034  1.00  0.00     0.409 C 
HETATM   26  F   UNL     1       4.174  25.867  57.893  1.00  0.00    -0.169 F 
HETATM   27  F   UNL     1       4.852  24.376  56.473  1.00  0.00    -0.169 F 
HETATM   28  F   UNL     1       6.292  25.370  57.761  1.00  0.00    -0.169 F 
ENDBRANCH   8  25
BRANCH   6  29
HETATM   29  C   UNL     1       7.791  24.560  54.052  1.00  0.00    -0.035 A 
HETATM   30  C   UNL     1       7.663  23.931  52.801  1.00  0.00     0.012 A 
HETATM   31  C   UNL     1       8.112  22.623  52.607  1.00  0.00     0.043 A 
HETATM   32  C   UNL     1       8.691  21.935  53.664  1.00  0.00     0.116 A 
HETATM   33  F   UNL     1       9.105  20.674  53.484  1.00  0.00    -0.206 F 
HETATM   34  C   UNL     1       8.838  22.533  54.909  1.00  0.00     0.043 A 
HETATM   35  C   UNL     1       8.394  23.843  55.102  1.00  0.00     0.012 A 
ENDBRANCH   6  29
TORSDOF 6
ENDMDL
MODEL 3
REMARK VINA RESULT:      -9.9      6.405     12.808
REMARK  6 active torsions:
REMARK  status: ('A' for Active; 'I' for Inactive)
REMARK    1  A    between atoms: C_2  and  O_3 
REMARK    2  A    between atoms: C_2  and  C_4 
REMARK    3  A    between atoms: C_6  and  N_7 
REMARK       I    between atoms: N_7  and  C_8 
REMARK    4  A    between atoms: C_8  and  C_9 
REMARK    5  A    between atoms: C_14  and  C_15 
REMARK    6  A    between atoms: C_23  and  C_24 
ROOT
HETATM    1  C   UNL     1       6.378  33.480  63.734  1.00  0.00     0.148 A 
HETATM    2  N   UNL     1       5.131  33.632  64.245  1.00  0.00    -0.165 NA
HETATM    3  N   UNL     1       5.368  33.912  65.543  1.00  0.00    -0.240 N 
HETATM    4  C   UNL     1       6.681  33.858  65.894  1.00  0.00     0.123 A 
HETATM    5  N   UNL     1       7.067  34.103  67.159  1.00  0.00    -0.366 N 
HETATM    6  C   UNL     1       6.175  33.820  68.278  1.00  0.00     0.118 C 
HETATM    7  C   UNL     1       4.674  33.838  67.911  1.00  0.00     0.066 C 
HETATM    8  C   UNL     1       4.320  34.273  66.474  1.00  0.00     0.221 C 
HETATM    9  C   UNL     1       7.372  33.600  64.745  1.00  0.00     0.089 A 
HETATM   10  H   UNL     1       8.055  34.010  67.398  1.00  0.00     0.161 HD
ENDROOT
BRANCH   1  11
HETATM   11  C   UNL     1       6.637  33.252  62.302  1.00  0.00     0.276 C 
HETATM   12  N   UNL     1       7.723  32.427  62.084  1.00  0.00    -0.322 N 
HETATM   13  H   UNL     1       8.203  32.149  62.936  1.00  0.00     0.169 HD
HETATM   14  O   UNL     1       5.920  33.760  61.445  1.00  0.00    -0.266 OA
BRANCH  12  15
HETATM   15  C   UNL     1       8.186  31.916  60.858  1.00  0.00     0.035 A 
HETATM   16  C   UNL     1       7.441  31.050  60.051  1.00  0.00     0.039 A 
HETATM   17  C   UNL     1       7.964  30.541  58.849  1.00  0.00    -0.028 A 
HETATM   18  C   UNL     1       9.256  30.918  58.463  1.00  0.00     0.010 A 
HETATM   19  C   UNL     1      10.004  31.788  59.256  1.00  0.00     0.003 A 
HETATM   20  C   UNL     1       9.471  32.281  60.449  1.00  0.00     0.029 A 
BRANCH  17  21
HETATM   21  C   UNL     1       7.143  29.573  58.025  1.00  0.00     0.147 C 
HETATM   22  C   UNL     1       7.576  29.555  56.565  1.00  0.00     0.044 C 
BRANCH  21  23
HETATM   23  O   UNL     1       5.760  29.915  58.093  1.00  0.00    -0.391 OA
HETATM   24  H   UNL     1       5.460  30.037  57.175  1.00  0.00     0.210 HD
ENDBRANCH  21  23
ENDBRANCH  17  21
ENDBRANCH  12  15
ENDBRANCH   1  11
BRANCH   8  25
HETATM   25  C   UNL     1       4.026  35.752  66.371  1.00  0.00     0.409 C 
HETATM   26  F   UNL     1       3.908  36.161  65.087  1.00  0.00    -0.169 F 
HETATM   27  F   UNL     1       2.836  36.027  66.966  1.00  0.00    -0.169 F 
HETATM   28  F   UNL     1       4.948  36.532  66.966  1.00  0.00    -0.169 F 
ENDBRANCH   8  25
BRANCH   6  29
HETATM   29  C   UNL     1       6.532  34.730  69.442  1.00  0.00    -0.035 A 
HETATM   30  C   UNL     1       7.499  35.742  69.317  1.00  0.00     0.012 A 
HETATM   31  C   UNL     1       7.849  36.537  70.410  1.00  0.00     0.043 A 
HETATM   32  C   UNL     1       7.235  36.323  71.636  1.00  0.00     0.116 A 
HETATM   33  F   UNL     1       7.584  37.073  72.690  1.00  0.00    -0.206 F 
HETATM   34  C   UNL     1       6.271  35.335  71.787  1.00  0.00     0.043 A 
HETATM   35  C   UNL     1       5.916  34.543  70.693  1.00  0.00     0.012 A 
ENDBRANCH   6  29
TORSDOF 6
ENDMDL
MODEL 4
REMARK VINA RESULT:      -9.9      1.329      2.025
REMARK  6 active torsions:
REMARK  status: ('A' for Active; 'I' for Inactive)
REMARK    1  A    between atoms: C_2  and  O_3 
REMARK    2  A    between atoms: C_2  and  C_4 
REMARK    3  A    between atoms: C_6  and  N_7 
REMARK       I    between atoms: N_7  and  C_8 
REMARK    4  A    between atoms: C_8  and  C_9 
REMARK    5  A    between atoms: C_14  and  C_15 
REMARK    6  A    between atoms: C_23  and  C_24 
ROOT
HETATM    1  C   UNL     1       7.194  30.596  58.290  1.00  0.00     0.148 A 
HETATM    2  N   UNL     1       6.507  30.516  57.124  1.00  0.00    -0.165 NA
HETATM    3  N   UNL     1       6.768  29.263  56.703  1.00  0.00    -0.240 N 
HETATM    4  C   UNL     1       7.647  28.582  57.489  1.00  0.00     0.123 A 
HETATM    5  N   UNL     1       8.012  27.324  57.186  1.00  0.00    -0.366 N 
HETATM    6  C   UNL     1       8.027  26.865  55.802  1.00  0.00     0.118 C 
HETATM    7  C   UNL     1       7.066  27.637  54.870  1.00  0.00     0.066 C 
HETATM    8  C   UNL     1       6.143  28.677  55.537  1.00  0.00     0.221 C 
HETATM    9  C   UNL     1       7.932  29.406  58.541  1.00  0.00     0.089 A 
HETATM   10  H   UNL     1       8.707  26.860  57.772  1.00  0.00     0.161 HD
ENDROOT
BRANCH   1  11
HETATM   11  C   UNL     1       7.137  31.770  59.178  1.00  0.00     0.276 C 
HETATM   12  N   UNL     1       5.874  31.985  59.695  1.00  0.00    -0.322 N 
HETATM   13  H   UNL     1       5.173  31.335  59.346  1.00  0.00     0.169 HD
HETATM   14  O   UNL     1       8.142  32.438  59.402  1.00  0.00    -0.266 OA
BRANCH  12  15
HETATM   15  C   UNL     1       5.483  32.940  60.651  1.00  0.00     0.035 A 
HETATM   16  C   UNL     1       5.886  32.903  61.989  1.00  0.00     0.039 A 
HETATM   17  C   UNL     1       5.439  33.865  62.912  1.00  0.00    -0.028 A 
HETATM   18  C   UNL     1       4.577  34.875  62.469  1.00  0.00     0.010 A 
HETATM   19  C   UNL     1       4.177  34.927  61.135  1.00  0.00     0.003 A 
HETATM   20  C   UNL     1       4.626  33.960  60.231  1.00  0.00     0.029 A 
BRANCH  17  21
HETATM   21  C   UNL     1       5.864  33.767  64.362  1.00  0.00     0.147 C 
HETATM   22  C   UNL     1       7.256  33.169  64.511  1.00  0.00     0.044 C 
BRANCH  21  23
HETATM   23  O   UNL     1       4.937  32.969  65.096  1.00  0.00    -0.391 OA
HETATM   24  H   UNL     1       5.364  32.761  65.945  1.00  0.00     0.210 HD
ENDBRANCH  21  23
ENDBRANCH  17  21
ENDBRANCH  12  15
ENDBRANCH   1  11
BRANCH   8  25
HETATM   25  C   UNL     1       4.795  28.103  55.908  1.00  0.00     0.409 C 
HETATM   26  F   UNL     1       4.008  29.009  56.534  1.00  0.00    -0.169 F 
HETATM   27  F   UNL     1       4.126  27.734  54.785  1.00  0.00    -0.169 F 
HETATM   28  F   UNL     1       4.866  27.012  56.695  1.00  0.00    -0.169 F 
ENDBRANCH   8  25
BRANCH   6  29
HETATM   29  C   UNL     1       7.829  25.359  55.775  1.00  0.00    -0.035 A 
HETATM   30  C   UNL     1       8.323  24.531  56.797  1.00  0.00     0.012 A 
HETATM   31  C   UNL     1       8.174  23.144  56.731  1.00  0.00     0.043 A 
HETATM   32  C   UNL     1       7.532  22.576  55.640  1.00  0.00     0.116 A 
HETATM   33  F   UNL     1       7.405  21.245  55.567  1.00  0.00    -0.206 F 
HETATM   34  C   UNL     1       7.027  23.370  54.617  1.00  0.00     0.043 A 
HETATM   35  C   UNL     1       7.170  24.758  54.686  1.00  0.00     0.012 A 
ENDBRANCH   6  29
TORSDOF 6
ENDMDL
MODEL 5
REMARK VINA RESULT:      -9.5      2.003      2.700
REMARK  6 active torsions:
REMARK  status: ('A' for Active; 'I' for Inactive)
REMARK    1  A    between atoms: C_2  and  O_3 
REMARK    2  A    between atoms: C_2  and  C_4 
REMARK    3  A    between atoms: C_6  and  N_7 
REMARK       I    between atoms: N_7  and  C_8 
REMARK    4  A    between atoms: C_8  and  C_9 
REMARK    5  A    between atoms: C_14  and  C_15 
REMARK    6  A    between atoms: C_23  and  C_24 
ROOT
HETATM    1  C   UNL     1       5.260  29.595  57.018  1.00  0.00     0.148 A 
HETATM    2  N   UNL     1       5.269  29.766  55.673  1.00  0.00    -0.165 NA
HETATM    3  N   UNL     1       5.826  28.623  55.226  1.00  0.00    -0.240 N 
HETATM    4  C   UNL     1       6.245  27.784  56.213  1.00  0.00     0.123 A 
HETATM    5  N   UNL     1       6.831  26.611  55.917  1.00  0.00    -0.366 N 
HETATM    6  C   UNL     1       7.588  26.446  54.681  1.00  0.00     0.118 C 
HETATM    7  C   UNL     1       7.164  27.406  53.547  1.00  0.00     0.066 C 
HETATM    8  C   UNL     1       5.936  28.298  53.821  1.00  0.00     0.221 C 
HETATM    9  C   UNL     1       5.879  28.370  57.391  1.00  0.00     0.089 A 
HETATM   10  H   UNL     1       7.174  26.026  56.681  1.00  0.00     0.161 HD
ENDROOT
BRANCH   1  11
HETATM   11  C   UNL     1       4.650  30.563  57.947  1.00  0.00     0.276 C 
HETATM   12  N   UNL     1       5.586  31.218  58.722  1.00  0.00    -0.322 N 
HETATM   13  H   UNL     1       6.539  30.899  58.570  1.00  0.00     0.169 HD
HETATM   14  O   UNL     1       3.434  30.729  57.972  1.00  0.00    -0.266 OA
BRANCH  12  15
HETATM   15  C   UNL     1       5.371  32.272  59.629  1.00  0.00     0.035 A 
HETATM   16  C   UNL     1       5.758  32.227  60.972  1.00  0.00     0.039 A 
HETATM   17  C   UNL     1       5.490  33.297  61.844  1.00  0.00    -0.028 A 
HETATM   18  C   UNL     1       4.823  34.422  61.346  1.00  0.00     0.010 A 
HETATM   19  C   UNL     1       4.440  34.481  60.007  1.00  0.00     0.003 A 
HETATM   20  C   UNL     1       4.710  33.408  59.154  1.00  0.00     0.029 A 
BRANCH  17  21
HETATM   21  C   UNL     1       5.888  33.194  63.301  1.00  0.00     0.147 C 
HETATM   22  C   UNL     1       7.317  32.696  63.469  1.00  0.00     0.044 C 
BRANCH  21  23
HETATM   23  O   UNL     1       5.007  32.312  63.994  1.00  0.00    -0.391 OA
HETATM   24  H   UNL     1       4.293  32.865  64.358  1.00  0.00     0.210 HD
ENDBRANCH  21  23
ENDBRANCH  17  21
ENDBRANCH  12  15
ENDBRANCH   1  11
BRANCH   8  25
HETATM   25  C   UNL     1       4.647  27.677  53.332  1.00  0.00     0.409 C 
HETATM   26  F   UNL     1       4.502  27.793  51.991  1.00  0.00    -0.169 F 
HETATM   27  F   UNL     1       4.647  26.345  53.598  1.00  0.00    -0.169 F 
HETATM   28  F   UNL     1       3.544  28.191  53.908  1.00  0.00    -0.169 F 
ENDBRANCH   8  25
BRANCH   6  29
HETATM   29  C   UNL     1       7.576  24.980  54.281  1.00  0.00    -0.035 A 
HETATM   30  C   UNL     1       7.397  23.958  55.228  1.00  0.00     0.012 A 
HETATM   31  C   UNL     1       7.437  22.614  54.849  1.00  0.00     0.043 A 
HETATM   32  C   UNL     1       7.658  22.285  53.520  1.00  0.00     0.116 A 
HETATM   33  F   UNL     1       7.715  20.997  53.158  1.00  0.00    -0.206 F 
HETATM   34  C   UNL     1       7.831  23.275  52.560  1.00  0.00     0.043 A 
HETATM   35  C   UNL     1       7.785  24.619  52.937  1.00  0.00     0.012 A 
ENDBRANCH   6  29
TORSDOF 6
ENDMDL
MODEL 6
REMARK VINA RESULT:      -9.5      7.486     10.263
REMARK  6 active torsions:
REMARK  status: ('A' for Active; 'I' for Inactive)
REMARK    1  A    between atoms: C_2  and  O_3 
REMARK    2  A    between atoms: C_2  and  C_4 
REMARK    3  A    between atoms: C_6  and  N_7 
REMARK       I    between atoms: N_7  and  C_8 
REMARK    4  A    between atoms: C_8  and  C_9 
REMARK    5  A    between atoms: C_14  and  C_15 
REMARK    6  A    between atoms: C_23  and  C_24 
ROOT
HETATM    1  C   UNL     1       5.945  26.937  52.134  1.00  0.00     0.148 A 
HETATM    2  N   UNL     1       5.702  28.271  52.118  1.00  0.00    -0.165 NA
HETATM    3  N   UNL     1       4.863  28.414  51.072  1.00  0.00    -0.240 N 
HETATM    4  C   UNL     1       4.637  27.265  50.379  1.00  0.00     0.123 A 
HETATM    5  N   UNL     1       3.830  27.258  49.303  1.00  0.00    -0.366 N 
HETATM    6  C   UNL     1       3.677  28.450  48.477  1.00  0.00     0.118 C 
HETATM    7  C   UNL     1       3.960  29.775  49.222  1.00  0.00     0.066 C 
HETATM    8  C   UNL     1       4.231  29.671  50.736  1.00  0.00     0.221 C 
HETATM    9  C   UNL     1       5.305  26.279  51.047  1.00  0.00     0.089 A 
HETATM   10  H   UNL     1       3.717  26.388  48.779  1.00  0.00     0.161 HD
ENDROOT
BRANCH   1  11
HETATM   11  C   UNL     1       6.751  26.280  53.177  1.00  0.00     0.276 C 
HETATM   12  N   UNL     1       6.431  24.946  53.334  1.00  0.00    -0.322 N 
HETATM   13  H   UNL     1       5.659  24.638  52.746  1.00  0.00     0.169 HD
HETATM   14  O   UNL     1       7.607  26.904  53.796  1.00  0.00    -0.266 OA
BRANCH  12  15
HETATM   15  C   UNL     1       7.066  23.996  54.155  1.00  0.00     0.035 A 
HETATM   16  C   UNL     1       7.706  22.854  53.663  1.00  0.00     0.039 A 
HETATM   17  C   UNL     1       8.297  21.919  54.530  1.00  0.00    -0.028 A 
HETATM   18  C   UNL     1       8.239  22.148  55.910  1.00  0.00     0.010 A 
HETATM   19  C   UNL     1       7.611  23.288  56.411  1.00  0.00     0.003 A 
HETATM   20  C   UNL     1       7.024  24.205  55.536  1.00  0.00     0.029 A 
BRANCH  17  21
HETATM   21  C   UNL     1       8.944  20.674  53.962  1.00  0.00     0.147 C 
HETATM   22  C   UNL     1       8.333  20.271  52.627  1.00  0.00     0.044 C 
BRANCH  21  23
HETATM   23  O   UNL     1       8.815  19.587  54.877  1.00  0.00    -0.391 OA
HETATM   24  H   UNL     1       8.298  19.921  55.630  1.00  0.00     0.210 HD
ENDBRANCH  21  23
ENDBRANCH  17  21
ENDBRANCH  12  15
ENDBRANCH   1  11
BRANCH   8  25
HETATM   25  C   UNL     1       2.979  29.856  51.563  1.00  0.00     0.409 C 
HETATM   26  F   UNL     1       3.106  30.857  52.465  1.00  0.00    -0.169 F 
HETATM   27  F   UNL     1       1.942  30.204  50.757  1.00  0.00    -0.169 F 
HETATM   28  F   UNL     1       2.600  28.750  52.231  1.00  0.00    -0.169 F 
ENDBRANCH   8  25
BRANCH   6  29
HETATM   29  C   UNL     1       2.322  28.410  47.791  1.00  0.00    -0.035 A 
HETATM   30  C   UNL     1       1.734  27.199  47.389  1.00  0.00     0.012 A 
HETATM   31  C   UNL     1       0.510  27.185  46.716  1.00  0.00     0.043 A 
HETATM   32  C   UNL     1      -0.132  28.384  46.439  1.00  0.00     0.116 A 
HETATM   33  F   UNL     1      -1.296  28.373  45.778  1.00  0.00    -0.206 F 
HETATM   34  C   UNL     1       0.422  29.596  46.831  1.00  0.00     0.043 A 
HETATM   35  C   UNL     1       1.643  29.610  47.509  1.00  0.00     0.012 A 
ENDBRANCH   6  29
TORSDOF 6
ENDMDL
MODEL 7
REMARK VINA RESULT:      -9.4      2.401      3.432
REMARK  6 active torsions:
REMARK  status: ('A' for Active; 'I' for Inactive)
REMARK    1  A    between atoms: C_2  and  O_3 
REMARK    2  A    between atoms: C_2  and  C_4 
REMARK    3  A    between atoms: C_6  and  N_7 
REMARK       I    between atoms: N_7  and  C_8 
REMARK    4  A    between atoms: C_8  and  C_9 
REMARK    5  A    between atoms: C_14  and  C_15 
REMARK    6  A    between atoms: C_23  and  C_24 
ROOT
HETATM    1  C   UNL     1       7.861  31.280  59.462  1.00  0.00     0.148 A 
HETATM    2  N   UNL     1       8.899  30.446  59.207  1.00  0.00    -0.165 NA
HETATM    3  N   UNL     1       8.457  29.722  58.160  1.00  0.00    -0.240 N 
HETATM    4  C   UNL     1       7.172  29.992  57.798  1.00  0.00     0.123 A 
HETATM    5  N   UNL     1       6.592  29.337  56.777  1.00  0.00    -0.366 N 
HETATM    6  C   UNL     1       6.997  27.979  56.436  1.00  0.00     0.118 C 
HETATM    7  C   UNL     1       8.439  27.623  56.861  1.00  0.00     0.066 C 
HETATM    8  C   UNL     1       9.285  28.767  57.457  1.00  0.00     0.221 C 
HETATM    9  C   UNL     1       6.756  31.011  58.606  1.00  0.00     0.089 A 
HETATM   10  H   UNL     1       5.613  29.532  56.562  1.00  0.00     0.161 HD
ENDROOT
BRANCH   1  11
HETATM   11  C   UNL     1       7.914  32.341  60.482  1.00  0.00     0.276 C 
HETATM   12  N   UNL     1       6.845  32.294  61.354  1.00  0.00    -0.322 N 
HETATM   13  H   UNL     1       6.165  31.572  61.129  1.00  0.00     0.169 HD
HETATM   14  O   UNL     1       8.843  33.144  60.506  1.00  0.00    -0.266 OA
BRANCH  12  15
HETATM   15  C   UNL     1       6.632  33.079  62.502  1.00  0.00     0.035 A 
HETATM   16  C   UNL     1       5.702  34.121  62.564  1.00  0.00     0.039 A 
HETATM   17  C   UNL     1       5.551  34.896  63.728  1.00  0.00    -0.028 A 
HETATM   18  C   UNL     1       6.353  34.607  64.839  1.00  0.00     0.010 A 
HETATM   19  C   UNL     1       7.276  33.563  64.791  1.00  0.00     0.003 A 
HETATM   20  C   UNL     1       7.417  32.806  63.626  1.00  0.00     0.029 A 
BRANCH  17  21
HETATM   21  C   UNL     1       4.564  36.043  63.742  1.00  0.00     0.147 C 
HETATM   22  C   UNL     1       5.221  37.358  64.136  1.00  0.00     0.044 C 
BRANCH  21  23
HETATM   23  O   UNL     1       3.499  35.768  64.651  1.00  0.00    -0.391 OA
HETATM   24  H   UNL     1       2.676  35.815  64.134  1.00  0.00     0.210 HD
ENDBRANCH  21  23
ENDBRANCH  17  21
ENDBRANCH  12  15
ENDBRANCH   1  11
BRANCH   8  25
HETATM   25  C   UNL     1      10.119  29.476  56.413  1.00  0.00     0.409 C 
HETATM   26  F   UNL     1      10.219  30.803  56.655  1.00  0.00    -0.169 F 
HETATM   27  F   UNL     1      11.388  28.992  56.431  1.00  0.00    -0.169 F 
HETATM   28  F   UNL     1       9.661  29.323  55.156  1.00  0.00    -0.169 F 
ENDBRANCH   8  25
BRANCH   6  29
HETATM   29  C   UNL     1       6.713  27.729  54.964  1.00  0.00    -0.035 A 
HETATM   30  C   UNL     1       5.821  28.536  54.237  1.00  0.00     0.012 A 
HETATM   31  C   UNL     1       5.536  28.262  52.898  1.00  0.00     0.043 A 
HETATM   32  C   UNL     1       6.138  27.177  52.278  1.00  0.00     0.116 A 
HETATM   33  F   UNL     1       5.850  26.903  51.000  1.00  0.00    -0.206 F 
HETATM   34  C   UNL     1       7.029  26.365  52.970  1.00  0.00     0.043 A 
HETATM   35  C   UNL     1       7.320  26.642  54.307  1.00  0.00     0.012 A 
ENDBRANCH   6  29
TORSDOF 6
ENDMDL
MODEL 8
REMARK VINA RESULT:      -9.3      3.201      4.553
REMARK  6 active torsions:
REMARK  status: ('A' for Active; 'I' for Inactive)
REMARK    1  A    between atoms: C_2  and  O_3 
REMARK    2  A    between atoms: C_2  and  C_4 
REMARK    3  A    between atoms: C_6  and  N_7 
REMARK       I    between atoms: N_7  and  C_8 
REMARK    4  A    between atoms: C_8  and  C_9 
REMARK    5  A    between atoms: C_14  and  C_15 
REMARK    6  A    between atoms: C_23  and  C_24 
ROOT
HETATM    1  C   UNL     1       5.252  28.759  54.869  1.00  0.00     0.148 A 
HETATM    2  N   UNL     1       5.434  28.413  53.570  1.00  0.00    -0.165 NA
HETATM    3  N   UNL     1       6.065  27.225  53.660  1.00  0.00    -0.240 N 
HETATM    4  C   UNL     1       6.368  26.848  54.932  1.00  0.00     0.123 A 
HETATM    5  N   UNL     1       7.008  25.691  55.174  1.00  0.00    -0.366 N 
HETATM    6  C   UNL     1       7.924  25.125  54.190  1.00  0.00     0.118 C 
HETATM    7  C   UNL     1       7.633  25.558  52.735  1.00  0.00     0.066 C 
HETATM    8  C   UNL     1       6.364  26.404  52.506  1.00  0.00     0.221 C 
HETATM    9  C   UNL     1       5.840  27.807  55.748  1.00  0.00     0.089 A 
HETATM   10  H   UNL     1       7.259  25.460  56.137  1.00  0.00     0.161 HD
ENDROOT
BRANCH   1  11
HETATM   11  C   UNL     1       4.509  29.961  55.283  1.00  0.00     0.276 C 
HETATM   12  N   UNL     1       5.197  30.720  56.209  1.00  0.00    -0.322 N 
HETATM   13  H   UNL     1       6.082  30.309  56.498  1.00  0.00     0.169 HD
HETATM   14  O   UNL     1       3.404  30.211  54.810  1.00  0.00    -0.266 OA
BRANCH  12  15
HETATM   15  C   UNL     1       4.839  31.973  56.736  1.00  0.00     0.035 A 
HETATM   16  C   UNL     1       4.268  32.145  58.001  1.00  0.00     0.039 A 
HETATM   17  C   UNL     1       3.898  33.419  58.468  1.00  0.00    -0.028 A 
HETATM   18  C   UNL     1       4.112  34.528  57.641  1.00  0.00     0.010 A 
HETATM   19  C   UNL     1       4.688  34.369  56.381  1.00  0.00     0.003 A 
HETATM   20  C   UNL     1       5.046  33.096  55.931  1.00  0.00     0.029 A 
BRANCH  17  21
HETATM   21  C   UNL     1       3.245  33.559  59.826  1.00  0.00     0.147 C 
HETATM   22  C   UNL     1       4.261  33.847  60.922  1.00  0.00     0.044 C 
BRANCH  21  23
HETATM   23  O   UNL     1       2.532  32.369  60.158  1.00  0.00    -0.391 OA
HETATM   24  H   UNL     1       2.290  32.446  61.097  1.00  0.00     0.210 HD
ENDBRANCH  21  23
ENDBRANCH  17  21
ENDBRANCH  12  15
ENDBRANCH   1  11
BRANCH   8  25
HETATM   25  C   UNL     1       5.162  25.561  52.147  1.00  0.00     0.409 C 
HETATM   26  F   UNL     1       4.761  25.761  50.871  1.00  0.00    -0.169 F 
HETATM   27  F   UNL     1       5.479  24.243  52.241  1.00  0.00    -0.169 F 
HETATM   28  F   UNL     1       4.098  25.764  52.946  1.00  0.00    -0.169 F 
ENDBRANCH   8  25
BRANCH   6  29
HETATM   29  C   UNL     1       7.990  23.619  54.379  1.00  0.00    -0.035 A 
HETATM   30  C   UNL     1       7.805  23.025  55.640  1.00  0.00     0.012 A 
HETATM   31  C   UNL     1       7.918  21.642  55.804  1.00  0.00     0.043 A 
HETATM   32  C   UNL     1       8.219  20.846  54.708  1.00  0.00     0.116 A 
HETATM   33  F   UNL     1       8.346  19.523  54.868  1.00  0.00    -0.206 F 
HETATM   34  C   UNL     1       8.400  21.405  53.449  1.00  0.00     0.043 A 
HETATM   35  C   UNL     1       8.281  22.786  53.283  1.00  0.00     0.012 A 
ENDBRANCH   6  29
TORSDOF 6
ENDMDL
MODEL 9
REMARK VINA RESULT:      -9.3      2.698      3.549
REMARK  6 active torsions:
REMARK  status: ('A' for Active; 'I' for Inactive)
REMARK    1  A    between atoms: C_2  and  O_3 
REMARK    2  A    between atoms: C_2  and  C_4 
REMARK    3  A    between atoms: C_6  and  N_7 
REMARK       I    between atoms: N_7  and  C_8 
REMARK    4  A    between atoms: C_8  and  C_9 
REMARK    5  A    between atoms: C_14  and  C_15 
REMARK    6  A    between atoms: C_23  and  C_24 
ROOT
HETATM    1  C   UNL     1       5.942  30.738  57.312  1.00  0.00     0.148 A 
HETATM    2  N   UNL     1       6.158  29.399  57.346  1.00  0.00    -0.165 NA
HETATM    3  N   UNL     1       5.821  29.006  56.102  1.00  0.00    -0.240 N 
HETATM    4  C   UNL     1       5.324  30.001  55.318  1.00  0.00     0.123 A 
HETATM    5  N   UNL     1       4.934  29.754  54.055  1.00  0.00    -0.366 N 
HETATM    6  C   UNL     1       4.436  28.438  53.672  1.00  0.00     0.118 C 
HETATM    7  C   UNL     1       4.951  27.284  54.562  1.00  0.00     0.066 C 
HETATM    8  C   UNL     1       6.004  27.651  55.628  1.00  0.00     0.221 C 
HETATM    9  C   UNL     1       5.404  31.145  56.059  1.00  0.00     0.089 A 
HETATM   10  H   UNL     1       4.524  30.514  53.509  1.00  0.00     0.161 HD
ENDROOT
BRANCH   1  11
HETATM   11  C   UNL     1       6.264  31.633  58.436  1.00  0.00     0.276 C 
HETATM   12  N   UNL     1       6.755  30.952  59.533  1.00  0.00    -0.322 N 
HETATM   13  H   UNL     1       6.770  29.942  59.415  1.00  0.00     0.169 HD
HETATM   14  O   UNL     1       6.101  32.845  58.341  1.00  0.00    -0.266 OA
BRANCH  12  15
HETATM   15  C   UNL     1       7.259  31.493  60.730  1.00  0.00     0.035 A 
HETATM   16  C   UNL     1       6.454  32.074  61.715  1.00  0.00     0.039 A 
HETATM   17  C   UNL     1       7.012  32.629  62.880  1.00  0.00    -0.028 A 
HETATM   18  C   UNL     1       8.402  32.592  63.045  1.00  0.00     0.010 A 
HETATM   19  C   UNL     1       9.213  32.008  62.073  1.00  0.00     0.003 A 
HETATM   20  C   UNL     1       8.643  31.464  60.919  1.00  0.00     0.029 A 
BRANCH  17  21
HETATM   21  C   UNL     1       6.112  33.286  63.904  1.00  0.00     0.147 C 
HETATM   22  C   UNL     1       6.845  33.582  65.204  1.00  0.00     0.044 C 
BRANCH  21  23
HETATM   23  O   UNL     1       4.990  32.450  64.185  1.00  0.00    -0.391 OA
HETATM   24  H   UNL     1       4.355  32.589  63.461  1.00  0.00     0.210 HD
ENDBRANCH  21  23
ENDBRANCH  17  21
ENDBRANCH  12  15
ENDBRANCH   1  11
BRANCH   8  25
HETATM   25  C   UNL     1       7.420  27.464  55.133  1.00  0.00     0.409 C 
HETATM   26  F   UNL     1       8.051  28.644  54.932  1.00  0.00    -0.169 F 
HETATM   27  F   UNL     1       8.150  26.800  56.067  1.00  0.00    -0.169 F 
HETATM   28  F   UNL     1       7.508  26.754  53.992  1.00  0.00    -0.169 F 
ENDBRANCH   8  25
BRANCH   6  29
HETATM   29  C   UNL     1       4.681  28.224  52.188  1.00  0.00    -0.035 A 
HETATM   30  C   UNL     1       4.554  29.272  51.261  1.00  0.00     0.012 A 
HETATM   31  C   UNL     1       4.737  29.046  49.895  1.00  0.00     0.043 A 
HETATM   32  C   UNL     1       5.045  27.770  49.448  1.00  0.00     0.116 A 
HETATM   33  F   UNL     1       5.201  27.548  48.136  1.00  0.00    -0.206 F 
HETATM   34  C   UNL     1       5.183  26.715  50.342  1.00  0.00     0.043 A 
HETATM   35  C   UNL     1       5.007  26.942  51.709  1.00  0.00     0.012 A 
ENDBRANCH   6  29
TORSDOF 6
ENDMDL
MODEL 10
REMARK VINA RESULT:      -9.2      7.691     10.408
REMARK  6 active torsions:
REMARK  status: ('A' for Active; 'I' for Inactive)
REMARK    1  A    between atoms: C_2  and  O_3 
REMARK    2  A    between atoms: C_2  and  C_4 
REMARK    3  A    between atoms: C_6  and  N_7 
REMARK       I    between atoms: N_7  and  C_8 
REMARK    4  A    between atoms: C_8  and  C_9 
REMARK    5  A    between atoms: C_14  and  C_15 
REMARK    6  A    between atoms: C_23  and  C_24 
ROOT
HETATM    1  C   UNL     1       5.395  26.863  52.281  1.00  0.00     0.148 A 
HETATM    2  N   UNL     1       4.635  26.934  51.160  1.00  0.00    -0.165 NA
HETATM    3  N   UNL     1       4.741  28.230  50.804  1.00  0.00    -0.240 N 
HETATM    4  C   UNL     1       5.449  28.993  51.681  1.00  0.00     0.123 A 
HETATM    5  N   UNL     1       5.627  30.308  51.463  1.00  0.00    -0.366 N 
HETATM    6  C   UNL     1       4.640  31.080  50.717  1.00  0.00     0.118 C 
HETATM    7  C   UNL     1       3.792  30.242  49.735  1.00  0.00     0.066 C 
HETATM    8  C   UNL     1       4.181  28.758  49.579  1.00  0.00     0.221 C 
HETATM    9  C   UNL     1       5.907  28.140  52.644  1.00  0.00     0.089 A 
HETATM   10  H   UNL     1       6.125  30.859  52.163  1.00  0.00     0.161 HD
ENDROOT
BRANCH   1  11
HETATM   11  C   UNL     1       5.662  25.600  52.992  1.00  0.00     0.276 C 
HETATM   12  N   UNL     1       6.963  25.511  53.446  1.00  0.00    -0.322 N 
HETATM   13  H   UNL     1       7.545  26.301  53.178  1.00  0.00     0.169 HD
HETATM   14  O   UNL     1       4.777  24.763  53.140  1.00  0.00    -0.266 OA
BRANCH  12  15
HETATM   15  C   UNL     1       7.530  24.505  54.249  1.00  0.00     0.035 A 
HETATM   16  C   UNL     1       7.974  23.276  53.749  1.00  0.00     0.039 A 
HETATM   17  C   UNL     1       8.504  22.291  54.601  1.00  0.00    -0.028 A 
HETATM   18  C   UNL     1       8.585  22.558  55.973  1.00  0.00     0.010 A 
HETATM   19  C   UNL     1       8.154  23.783  56.480  1.00  0.00     0.003 A 
HETATM   20  C   UNL     1       7.625  24.750  55.621  1.00  0.00     0.029 A 
BRANCH  17  21
HETATM   21  C   UNL     1       8.935  20.958  54.028  1.00  0.00     0.147 C 
HETATM   22  C   UNL     1       8.082  20.545  52.837  1.00  0.00     0.044 C 
BRANCH  21  23
HETATM   23  O   UNL     1       8.859  19.942  55.026  1.00  0.00    -0.391 OA
HETATM   24  H   UNL     1       9.730  19.509  55.046  1.00  0.00     0.210 HD
ENDBRANCH  21  23
ENDBRANCH  17  21
ENDBRANCH  12  15
ENDBRANCH   1  11
BRANCH   8  25
HETATM   25  C   UNL     1       5.140  28.527  48.433  1.00  0.00     0.409 C 
HETATM   26  F   UNL     1       5.069  27.264  47.954  1.00  0.00    -0.169 F 
HETATM   27  F   UNL     1       4.821  29.343  47.394  1.00  0.00    -0.169 F 
HETATM   28  F   UNL     1       6.427  28.775  48.742  1.00  0.00    -0.169 F 
ENDBRANCH   8  25
BRANCH   6  29
HETATM   29  C   UNL     1       5.325  32.273  50.071  1.00  0.00    -0.035 A 
HETATM   30  C   UNL     1       5.817  32.219  48.756  1.00  0.00     0.012 A 
HETATM   31  C   UNL     1       6.487  33.308  48.196  1.00  0.00     0.043 A 
HETATM   32  C   UNL     1       6.671  34.459  48.949  1.00  0.00     0.116 A 
HETATM   33  F   UNL     1       7.329  35.497  48.419  1.00  0.00    -0.206 F 
HETATM   34  C   UNL     1       6.190  34.544  50.250  1.00  0.00     0.043 A 
HETATM   35  C   UNL     1       5.514  33.457  50.809  1.00  0.00     0.012 A 
ENDBRANCH   6  29
TORSDOF 6
ENDMDL
