MODEL 1
REMARK VINA RESULT:     -10.2      0.000      0.000
REMARK  5 active torsions:
REMARK  status: ('A' for Active; 'I' for Inactive)
REMARK    1  A    between atoms: C_2  and  C_3 
REMARK    2  A    between atoms: C_8  and  C_9 
REMARK       I    between atoms: C_9  and  N_10 
REMARK    3  A    between atoms: N_10  and  C_11 
REMARK    4  A    between atoms: C_11  and  C_12 
REMARK    5  A    between atoms: C_19  and  C_20 
ROOT
HETATM    1  C   UNL     1       7.075  24.779  56.500  1.00  0.00     0.118 C 
HETATM    2  N   UNL     1       8.024  25.886  56.346  1.00  0.00    -0.366 N 
HETATM    3  C   UNL     1       7.696  27.088  56.861  1.00  0.00     0.123 A 
HETATM    4  N   UNL     1       6.400  27.503  56.837  1.00  0.00    -0.240 N 
HETATM    5  N   UNL     1       6.183  28.678  57.447  1.00  0.00    -0.165 NA
HETATM    6  C   UNL     1       7.429  29.082  57.792  1.00  0.00     0.148 A 
HETATM    7  C   UNL     1       8.408  28.112  57.427  1.00  0.00     0.088 A 
HETATM    8  C   UNL     1       5.343  26.720  56.239  1.00  0.00     0.221 C 
HETATM    9  C   UNL     1       5.593  25.216  56.457  1.00  0.00     0.066 C 
HETATM   10  H   UNL     1       8.996  25.582  56.426  1.00  0.00     0.161 HD
ENDROOT
BRANCH   6  11
HETATM   11  C   UNL     1       7.678  30.367  58.465  1.00  0.00     0.272 C 
HETATM   12  N   UNL     1       6.601  30.822  59.191  1.00  0.00    -0.353 N 
HETATM   13  H   UNL     1       5.733  30.314  59.038  1.00  0.00     0.162 HD
HETATM   14  O   UNL     1       8.738  30.979  58.370  1.00  0.00    -0.266 OA
BRANCH  12  15
HETATM   15  C   UNL     1       6.553  32.151  59.764  1.00  0.00     0.155 C 
BRANCH  15  16
HETATM   16  C   UNL     1       6.588  32.123  61.292  1.00  0.00     0.139 C 
HETATM   17  O   UNL     1       7.666  31.288  61.757  1.00  0.00    -0.384 OA
HETATM   18  C   UNL     1       8.100  31.793  63.030  1.00  0.00     0.168 C 
HETATM   19  C   UNL     1       7.380  33.107  63.273  1.00  0.00     0.029 C 
HETATM   20  C   UNL     1       6.866  33.483  61.905  1.00  0.00     0.035 C 
ENDBRANCH  15  16
ENDBRANCH  12  15
ENDBRANCH   6  11
BRANCH   8  21
HETATM   21  C   UNL     1       5.201  27.077  54.776  1.00  0.00     0.409 C 
HETATM   22  F   UNL     1       4.183  27.939  54.554  1.00  0.00    -0.169 F 
HETATM   23  F   UNL     1       6.312  27.607  54.230  1.00  0.00    -0.169 F 
HETATM   24  F   UNL     1       4.912  25.958  54.058  1.00  0.00    -0.169 F 
ENDBRANCH   8  21
BRANCH   1  25
HETATM   25  C   UNL     1       7.384  23.676  55.501  1.00  0.00    -0.035 A 
HETATM   26  C   UNL     1       7.628  22.370  55.960  1.00  0.00     0.011 A 
HETATM   27  C   UNL     1       7.910  21.337  55.060  1.00  0.00     0.024 A 
HETATM   28  C   UNL     1       7.944  21.601  53.693  1.00  0.00     0.034 A 
HETATM   29  C   UNL     1       7.699  22.885  53.219  1.00  0.00     0.024 A 
HETATM   30 CL   UNL     1       8.296  20.330  52.588  1.00  0.00    -0.084 Cl
HETATM   31  C   UNL     1       7.421  23.918  54.119  1.00  0.00     0.011 A 
ENDBRANCH   1  25
TORSDOF 5
ENDMDL
MODEL 2
REMARK VINA RESULT:      -9.6      2.571      3.265
REMARK  5 active torsions:
REMARK  status: ('A' for Active; 'I' for Inactive)
REMARK    1  A    between atoms: C_2  and  C_3 
REMARK    2  A    between atoms: C_8  and  C_9 
REMARK       I    between atoms: C_9  and  N_10 
REMARK    3  A    between atoms: N_10  and  C_11 
REMARK    4  A    between atoms: C_11  and  C_12 
REMARK    5  A    between atoms: C_19  and  C_20 
ROOT
HETATM    1  C   UNL     1       6.565  27.104  54.258  1.00  0.00     0.118 C 
HETATM    2  N   UNL     1       5.534  27.097  55.300  1.00  0.00    -0.366 N 
HETATM    3  C   UNL     1       5.313  28.233  55.992  1.00  0.00     0.123 A 
HETATM    4  N   UNL     1       6.357  29.053  56.293  1.00  0.00    -0.240 N 
HETATM    5  N   UNL     1       6.006  30.189  56.915  1.00  0.00    -0.165 NA
HETATM    6  C   UNL     1       4.674  30.038  57.108  1.00  0.00     0.148 A 
HETATM    7  C   UNL     1       4.206  28.811  56.552  1.00  0.00     0.088 A 
HETATM    8  C   UNL     1       7.721  28.741  55.937  1.00  0.00     0.221 C 
HETATM    9  C   UNL     1       7.774  28.012  54.581  1.00  0.00     0.066 C 
HETATM   10  H   UNL     1       4.724  26.529  55.044  1.00  0.00     0.161 HD
ENDROOT
BRANCH   6  11
HETATM   11  C   UNL     1       3.862  31.049  57.805  1.00  0.00     0.272 C 
HETATM   12  N   UNL     1       4.105  31.106  59.159  1.00  0.00    -0.353 N 
HETATM   13  H   UNL     1       4.673  30.348  59.527  1.00  0.00     0.162 HD
HETATM   14  O   UNL     1       3.037  31.756  57.233  1.00  0.00    -0.266 OA
BRANCH  12  15
HETATM   15  C   UNL     1       3.281  31.880  60.065  1.00  0.00     0.155 C 
BRANCH  15  16
HETATM   16  C   UNL     1       4.105  32.542  61.170  1.00  0.00     0.139 C 
HETATM   17  O   UNL     1       4.048  31.760  62.379  1.00  0.00    -0.384 OA
HETATM   18  C   UNL     1       5.271  31.971  63.101  1.00  0.00     0.168 C 
HETATM   19  C   UNL     1       6.199  32.776  62.208  1.00  0.00     0.029 C 
HETATM   20  C   UNL     1       5.583  32.628  60.839  1.00  0.00     0.035 C 
ENDBRANCH  15  16
ENDBRANCH  12  15
ENDBRANCH   6  11
BRANCH   8  21
HETATM   21  C   UNL     1       8.376  27.948  57.045  1.00  0.00     0.409 C 
HETATM   22  F   UNL     1       7.742  28.102  58.230  1.00  0.00    -0.169 F 
HETATM   23  F   UNL     1       8.465  26.627  56.797  1.00  0.00    -0.169 F 
HETATM   24  F   UNL     1       9.647  28.393  57.237  1.00  0.00    -0.169 F 
ENDBRANCH   8  21
BRANCH   1  25
HETATM   25  C   UNL     1       6.982  25.682  53.918  1.00  0.00    -0.035 A 
HETATM   26  C   UNL     1       6.734  24.646  54.835  1.00  0.00     0.011 A 
HETATM   27  C   UNL     1       7.104  23.330  54.544  1.00  0.00     0.024 A 
HETATM   28  C   UNL     1       7.720  23.037  53.330  1.00  0.00     0.034 A 
HETATM   29  C   UNL     1       7.968  24.047  52.406  1.00  0.00     0.024 A 
HETATM   30 CL   UNL     1       8.179  21.417  52.975  1.00  0.00    -0.084 Cl
HETATM   31  C   UNL     1       7.601  25.363  52.700  1.00  0.00     0.011 A 
ENDBRANCH   1  25
TORSDOF 5
ENDMDL
MODEL 3
REMARK VINA RESULT:      -9.2      1.727      2.389
REMARK  5 active torsions:
REMARK  status: ('A' for Active; 'I' for Inactive)
REMARK    1  A    between atoms: C_2  and  C_3 
REMARK    2  A    between atoms: C_8  and  C_9 
REMARK       I    between atoms: C_9  and  N_10 
REMARK    3  A    between atoms: N_10  and  C_11 
REMARK    4  A    between atoms: C_11  and  C_12 
REMARK    5  A    between atoms: C_19  and  C_20 
ROOT
HETATM    1  C   UNL     1       6.594  25.113  55.680  1.00  0.00     0.118 C 
HETATM    2  N   UNL     1       7.709  25.762  56.376  1.00  0.00    -0.366 N 
HETATM    3  C   UNL     1       7.551  27.033  56.797  1.00  0.00     0.123 A 
HETATM    4  N   UNL     1       6.822  27.906  56.049  1.00  0.00    -0.240 N 
HETATM    5  N   UNL     1       6.668  29.117  56.605  1.00  0.00    -0.165 NA
HETATM    6  C   UNL     1       7.426  29.042  57.725  1.00  0.00     0.148 A 
HETATM    7  C   UNL     1       8.008  27.749  57.871  1.00  0.00     0.088 A 
HETATM    8  C   UNL     1       6.232  27.542  54.781  1.00  0.00     0.221 C 
HETATM    9  C   UNL     1       5.758  26.077  54.805  1.00  0.00     0.066 C 
HETATM   10  H   UNL     1       8.217  25.117  56.985  1.00  0.00     0.161 HD
ENDROOT
BRANCH   6  11
HETATM   11  C   UNL     1       7.585  30.182  58.643  1.00  0.00     0.272 C 
HETATM   12  N   UNL     1       6.459  30.968  58.738  1.00  0.00    -0.353 N 
HETATM   13  H   UNL     1       5.736  30.769  58.051  1.00  0.00     0.162 HD
HETATM   14  O   UNL     1       8.628  30.415  59.247  1.00  0.00    -0.266 OA
BRANCH  12  15
HETATM   15  C   UNL     1       6.458  32.246  59.420  1.00  0.00     0.155 C 
BRANCH  15  16
HETATM   16  C   UNL     1       5.070  32.887  59.441  1.00  0.00     0.139 C 
HETATM   17  O   UNL     1       4.990  33.883  60.480  1.00  0.00    -0.384 OA
HETATM   18  C   UNL     1       4.042  34.879  60.067  1.00  0.00     0.168 C 
HETATM   19  C   UNL     1       3.658  34.580  58.628  1.00  0.00     0.029 C 
HETATM   20  C   UNL     1       4.743  33.639  58.164  1.00  0.00     0.035 C 
ENDBRANCH  15  16
ENDBRANCH  12  15
ENDBRANCH   6  11
BRANCH   8  21
HETATM   21  C   UNL     1       7.208  27.816  53.659  1.00  0.00     0.409 C 
HETATM   22  F   UNL     1       8.279  28.532  54.074  1.00  0.00    -0.169 F 
HETATM   23  F   UNL     1       7.669  26.706  53.050  1.00  0.00    -0.169 F 
HETATM   24  F   UNL     1       6.603  28.564  52.698  1.00  0.00    -0.169 F 
ENDBRANCH   8  21
BRANCH   1  25
HETATM   25  C   UNL     1       7.088  23.905  54.902  1.00  0.00    -0.035 A 
HETATM   26  C   UNL     1       7.422  22.724  55.588  1.00  0.00     0.011 A 
HETATM   27  C   UNL     1       7.875  21.598  54.895  1.00  0.00     0.024 A 
HETATM   28  C   UNL     1       7.991  21.640  53.508  1.00  0.00     0.034 A 
HETATM   29  C   UNL     1       7.659  22.796  52.810  1.00  0.00     0.024 A 
HETATM   30 CL   UNL     1       8.552  20.254  52.657  1.00  0.00    -0.084 Cl
HETATM   31  C   UNL     1       7.210  23.923  53.504  1.00  0.00     0.011 A 
ENDBRANCH   1  25
TORSDOF 5
ENDMDL
MODEL 4
REMARK VINA RESULT:      -9.2      5.969      9.171
REMARK  5 active torsions:
REMARK  status: ('A' for Active; 'I' for Inactive)
REMARK    1  A    between atoms: C_2  and  C_3 
REMARK    2  A    between atoms: C_8  and  C_9 
REMARK       I    between atoms: C_9  and  N_10 
REMARK    3  A    between atoms: N_10  and  C_11 
REMARK    4  A    between atoms: C_11  and  C_12 
REMARK    5  A    between atoms: C_19  and  C_20 
ROOT
HETATM    1  C   UNL     1       7.444  25.150  52.656  1.00  0.00     0.118 C 
HETATM    2  N   UNL     1       6.170  25.104  51.932  1.00  0.00    -0.366 N 
HETATM    3  C   UNL     1       5.676  26.253  51.429  1.00  0.00     0.123 A 
HETATM    4  N   UNL     1       5.847  27.418  52.112  1.00  0.00    -0.240 N 
HETATM    5  N   UNL     1       5.382  28.505  51.478  1.00  0.00    -0.165 NA
HETATM    6  C   UNL     1       4.791  27.990  50.373  1.00  0.00     0.148 A 
HETATM    7  C   UNL     1       4.945  26.573  50.316  1.00  0.00     0.088 A 
HETATM    8  C   UNL     1       6.511  27.479  53.393  1.00  0.00     0.221 C 
HETATM    9  C   UNL     1       7.659  26.455  53.458  1.00  0.00     0.066 C 
HETATM   10  H   UNL     1       6.070  24.255  51.371  1.00  0.00     0.161 HD
ENDROOT
BRANCH   6  11
HETATM   11  C   UNL     1       4.100  28.835  49.386  1.00  0.00     0.272 C 
HETATM   12  N   UNL     1       3.523  28.119  48.362  1.00  0.00    -0.353 N 
HETATM   13  H   UNL     1       3.786  27.137  48.322  1.00  0.00     0.162 HD
HETATM   14  O   UNL     1       4.060  30.060  49.463  1.00  0.00    -0.266 OA
BRANCH  12  15
HETATM   15  C   UNL     1       2.970  28.754  47.183  1.00  0.00     0.155 C 
BRANCH  15  16
HETATM   16  C   UNL     1       1.442  28.697  47.160  1.00  0.00     0.139 C 
HETATM   17  O   UNL     1       0.915  29.673  46.240  1.00  0.00    -0.384 OA
HETATM   18  C   UNL     1      -0.332  29.174  45.733  1.00  0.00     0.168 C 
HETATM   19  C   UNL     1      -0.490  27.746  46.223  1.00  0.00     0.029 C 
HETATM   20  C   UNL     1       0.905  27.369  46.660  1.00  0.00     0.035 C 
ENDBRANCH  15  16
ENDBRANCH  12  15
ENDBRANCH   6  11
BRANCH   8  21
HETATM   21  C   UNL     1       5.505  27.290  54.506  1.00  0.00     0.409 C 
HETATM   22  F   UNL     1       4.419  28.083  54.355  1.00  0.00    -0.169 F 
HETATM   23  F   UNL     1       5.070  26.023  54.644  1.00  0.00    -0.169 F 
HETATM   24  F   UNL     1       6.065  27.640  55.695  1.00  0.00    -0.169 F 
ENDBRANCH   8  21
BRANCH   1  25
HETATM   25  C   UNL     1       7.609  23.908  53.515  1.00  0.00    -0.035 A 
HETATM   26  C   UNL     1       7.783  22.655  52.901  1.00  0.00     0.011 A 
HETATM   27  C   UNL     1       7.941  21.498  53.669  1.00  0.00     0.024 A 
HETATM   28  C   UNL     1       7.933  21.583  55.059  1.00  0.00     0.034 A 
HETATM   29  C   UNL     1       7.769  22.814  55.686  1.00  0.00     0.024 A 
HETATM   30 CL   UNL     1       8.124  20.158  56.003  1.00  0.00    -0.084 Cl
HETATM   31  C   UNL     1       7.608  23.970  54.917  1.00  0.00     0.011 A 
ENDBRANCH   1  25
TORSDOF 5
ENDMDL
MODEL 5
REMARK VINA RESULT:      -8.9      3.032      3.846
REMARK  5 active torsions:
REMARK  status: ('A' for Active; 'I' for Inactive)
REMARK    1  A    between atoms: C_2  and  C_3 
REMARK    2  A    between atoms: C_8  and  C_9 
REMARK       I    between atoms: C_9  and  N_10 
REMARK    3  A    between atoms: N_10  and  C_11 
REMARK    4  A    between atoms: C_11  and  C_12 
REMARK    5  A    between atoms: C_19  and  C_20 
ROOT
HETATM    1  C   UNL     1       6.547  26.715  54.200  1.00  0.00     0.118 C 
HETATM    2  N   UNL     1       5.518  26.750  55.244  1.00  0.00    -0.366 N 
HETATM    3  C   UNL     1       5.278  27.920  55.869  1.00  0.00     0.123 A 
HETATM    4  N   UNL     1       6.307  28.775  56.120  1.00  0.00    -0.240 N 
HETATM    5  N   UNL     1       5.936  29.939  56.675  1.00  0.00    -0.165 NA
HETATM    6  C   UNL     1       4.607  29.775  56.881  1.00  0.00     0.148 A 
HETATM    7  C   UNL     1       4.161  28.510  56.398  1.00  0.00     0.088 A 
HETATM    8  C   UNL     1       7.676  28.468  55.778  1.00  0.00     0.221 C 
HETATM    9  C   UNL     1       7.740  27.663  54.467  1.00  0.00     0.066 C 
HETATM   10  H   UNL     1       4.718  26.154  55.024  1.00  0.00     0.161 HD
ENDROOT
BRANCH   6  11
HETATM   11  C   UNL     1       3.778  30.810  57.520  1.00  0.00     0.272 C 
HETATM   12  N   UNL     1       4.184  31.123  58.798  1.00  0.00    -0.353 N 
HETATM   13  H   UNL     1       4.879  30.496  59.194  1.00  0.00     0.162 HD
HETATM   14  O   UNL     1       2.810  31.327  56.970  1.00  0.00    -0.266 OA
BRANCH  12  15
HETATM   15  C   UNL     1       3.399  31.960  59.681  1.00  0.00     0.155 C 
BRANCH  15  16
HETATM   16  C   UNL     1       3.692  33.447  59.478  1.00  0.00     0.139 C 
HETATM   17  O   UNL     1       2.528  34.126  58.967  1.00  0.00    -0.384 OA
HETATM   18  C   UNL     1       2.574  35.487  59.422  1.00  0.00     0.168 C 
HETATM   19  C   UNL     1       3.722  35.604  60.408  1.00  0.00     0.029 C 
HETATM   20  C   UNL     1       4.019  34.169  60.771  1.00  0.00     0.035 C 
ENDBRANCH  15  16
ENDBRANCH  12  15
ENDBRANCH   6  11
BRANCH   8  21
HETATM   21  C   UNL     1       8.348  27.753  56.929  1.00  0.00     0.409 C 
HETATM   22  F   UNL     1       9.569  28.263  57.208  1.00  0.00    -0.169 F 
HETATM   23  F   UNL     1       7.632  27.757  58.071  1.00  0.00    -0.169 F 
HETATM   24  F   UNL     1       8.549  26.448  56.602  1.00  0.00    -0.169 F 
ENDBRANCH   8  21
BRANCH   1  25
HETATM   25  C   UNL     1       6.989  25.285  53.943  1.00  0.00    -0.035 A 
HETATM   26  C   UNL     1       7.540  24.940  52.696  1.00  0.00     0.011 A 
HETATM   27  C   UNL     1       7.958  23.631  52.436  1.00  0.00     0.024 A 
HETATM   28  C   UNL     1       7.836  22.657  53.424  1.00  0.00     0.034 A 
HETATM   29  C   UNL     1       7.300  22.979  54.666  1.00  0.00     0.024 A 
HETATM   30 CL   UNL     1       8.347  21.046  53.101  1.00  0.00    -0.084 Cl
HETATM   31  C   UNL     1       6.879  24.287  54.924  1.00  0.00     0.011 A 
ENDBRANCH   1  25
TORSDOF 5
ENDMDL
MODEL 6
REMARK VINA RESULT:      -8.8      4.289      8.970
REMARK  5 active torsions:
REMARK  status: ('A' for Active; 'I' for Inactive)
REMARK    1  A    between atoms: C_2  and  C_3 
REMARK    2  A    between atoms: C_8  and  C_9 
REMARK       I    between atoms: C_9  and  N_10 
REMARK    3  A    between atoms: N_10  and  C_11 
REMARK    4  A    between atoms: C_11  and  C_12 
REMARK    5  A    between atoms: C_19  and  C_20 
ROOT
HETATM    1  C   UNL     1       8.111  30.233  58.557  1.00  0.00     0.118 C 
HETATM    2  N   UNL     1       7.754  28.821  58.713  1.00  0.00    -0.366 N 
HETATM    3  C   UNL     1       7.388  28.126  57.616  1.00  0.00     0.123 A 
HETATM    4  N   UNL     1       6.674  28.741  56.634  1.00  0.00    -0.240 N 
HETATM    5  N   UNL     1       6.435  27.974  55.560  1.00  0.00    -0.165 NA
HETATM    6  C   UNL     1       6.941  26.770  55.920  1.00  0.00     0.148 A 
HETATM    7  C   UNL     1       7.537  26.825  57.215  1.00  0.00     0.088 A 
HETATM    8  C   UNL     1       6.245  30.118  56.729  1.00  0.00     0.221 C 
HETATM    9  C   UNL     1       7.302  30.965  57.461  1.00  0.00     0.066 C 
HETATM   10  H   UNL     1       8.333  28.345  59.407  1.00  0.00     0.161 HD
ENDROOT
BRANCH   6  11
HETATM   11  C   UNL     1       6.864  25.591  55.042  1.00  0.00     0.272 C 
HETATM   12  N   UNL     1       7.962  24.767  55.136  1.00  0.00    -0.353 N 
HETATM   13  H   UNL     1       8.746  25.152  55.658  1.00  0.00     0.162 HD
HETATM   14  O   UNL     1       5.919  25.379  54.287  1.00  0.00    -0.266 OA
BRANCH  12  15
HETATM   15  C   UNL     1       8.190  23.666  54.223  1.00  0.00     0.155 C 
BRANCH  15  16
HETATM   16  C   UNL     1       8.705  22.418  54.941  1.00  0.00     0.139 C 
HETATM   17  O   UNL     1       8.556  22.558  56.367  1.00  0.00    -0.384 OA
HETATM   18  C   UNL     1       8.378  21.247  56.925  1.00  0.00     0.168 C 
HETATM   19  C   UNL     1       8.227  20.273  55.770  1.00  0.00     0.029 C 
HETATM   20  C   UNL     1       7.917  21.168  54.595  1.00  0.00     0.035 C 
ENDBRANCH  15  16
ENDBRANCH  12  15
ENDBRANCH   6  11
BRANCH   8  21
HETATM   21  C   UNL     1       4.887  30.191  57.389  1.00  0.00     0.409 C 
HETATM   22  F   UNL     1       4.841  31.125  58.367  1.00  0.00    -0.169 F 
HETATM   23  F   UNL     1       3.874  30.442  56.536  1.00  0.00    -0.169 F 
HETATM   24  F   UNL     1       4.603  29.003  57.988  1.00  0.00    -0.169 F 
ENDBRANCH   8  21
BRANCH   1  25
HETATM   25  C   UNL     1       8.048  30.945  59.897  1.00  0.00    -0.035 A 
HETATM   26  C   UNL     1       8.872  30.518  60.952  1.00  0.00     0.011 A 
HETATM   27  C   UNL     1       8.836  31.159  62.194  1.00  0.00     0.024 A 
HETATM   28  C   UNL     1       7.979  32.239  62.390  1.00  0.00     0.034 A 
HETATM   29  C   UNL     1       7.159  32.682  61.356  1.00  0.00     0.024 A 
HETATM   30 CL   UNL     1       7.931  33.025  63.920  1.00  0.00    -0.084 Cl
HETATM   31  C   UNL     1       7.194  32.038  60.116  1.00  0.00     0.011 A 
ENDBRANCH   1  25
TORSDOF 5
ENDMDL
MODEL 7
REMARK VINA RESULT:      -8.7      5.821      8.099
REMARK  5 active torsions:
REMARK  status: ('A' for Active; 'I' for Inactive)
REMARK    1  A    between atoms: C_2  and  C_3 
REMARK    2  A    between atoms: C_8  and  C_9 
REMARK       I    between atoms: C_9  and  N_10 
REMARK    3  A    between atoms: N_10  and  C_11 
REMARK    4  A    between atoms: C_11  and  C_12 
REMARK    5  A    between atoms: C_19  and  C_20 
ROOT
HETATM    1  C   UNL     1       7.565  25.124  52.586  1.00  0.00     0.118 C 
HETATM    2  N   UNL     1       6.308  24.958  51.850  1.00  0.00    -0.366 N 
HETATM    3  C   UNL     1       5.714  26.056  51.339  1.00  0.00     0.123 A 
HETATM    4  N   UNL     1       5.771  27.233  52.020  1.00  0.00    -0.240 N 
HETATM    5  N   UNL     1       5.213  28.271  51.379  1.00  0.00    -0.165 NA
HETATM    6  C   UNL     1       4.684  27.701  50.270  1.00  0.00     0.148 A 
HETATM    7  C   UNL     1       4.968  26.305  50.219  1.00  0.00     0.088 A 
HETATM    8  C   UNL     1       6.414  27.358  53.308  1.00  0.00     0.221 C 
HETATM    9  C   UNL     1       7.651  26.444  53.386  1.00  0.00     0.066 C 
HETATM   10  H   UNL     1       6.292  24.103  51.291  1.00  0.00     0.161 HD
ENDROOT
BRANCH   6  11
HETATM   11  C   UNL     1       3.927  28.477  49.274  1.00  0.00     0.272 C 
HETATM   12  N   UNL     1       4.729  29.132  48.367  1.00  0.00    -0.353 N 
HETATM   13  H   UNL     1       5.720  29.138  48.594  1.00  0.00     0.162 HD
HETATM   14  O   UNL     1       2.701  28.546  49.269  1.00  0.00    -0.266 OA
BRANCH  12  15
HETATM   15  C   UNL     1       4.210  30.108  47.431  1.00  0.00     0.155 C 
BRANCH  15  16
HETATM   16  C   UNL     1       4.555  31.540  47.841  1.00  0.00     0.139 C 
HETATM   17  O   UNL     1       5.555  31.542  48.878  1.00  0.00    -0.384 OA
HETATM   18  C   UNL     1       6.319  32.751  48.755  1.00  0.00     0.168 C 
HETATM   19  C   UNL     1       5.889  33.438  47.471  1.00  0.00     0.029 C 
HETATM   20  C   UNL     1       5.171  32.348  46.714  1.00  0.00     0.035 C 
ENDBRANCH  15  16
ENDBRANCH  12  15
ENDBRANCH   6  11
BRANCH   8  21
HETATM   21  C   UNL     1       5.419  27.079  54.412  1.00  0.00     0.409 C 
HETATM   22  F   UNL     1       5.122  25.764  54.516  1.00  0.00    -0.169 F 
HETATM   23  F   UNL     1       5.812  27.507  55.627  1.00  0.00    -0.169 F 
HETATM   24  F   UNL     1       4.245  27.711  54.140  1.00  0.00    -0.169 F 
ENDBRANCH   8  21
BRANCH   1  25
HETATM   25  C   UNL     1       7.836  23.903  53.450  1.00  0.00    -0.035 A 
HETATM   26  C   UNL     1       8.054  24.061  54.829  1.00  0.00     0.011 A 
HETATM   27  C   UNL     1       8.300  22.953  55.646  1.00  0.00     0.024 A 
HETATM   28  C   UNL     1       8.324  21.676  55.091  1.00  0.00     0.034 A 
HETATM   29  C   UNL     1       8.104  21.498  53.729  1.00  0.00     0.024 A 
HETATM   30 CL   UNL     1       8.632  20.315  56.096  1.00  0.00    -0.084 Cl
HETATM   31  C   UNL     1       7.861  22.607  52.913  1.00  0.00     0.011 A 
ENDBRANCH   1  25
TORSDOF 5
ENDMDL
MODEL 8
REMARK VINA RESULT:      -8.6      6.410     10.013
REMARK  5 active torsions:
REMARK  status: ('A' for Active; 'I' for Inactive)
REMARK    1  A    between atoms: C_2  and  C_3 
REMARK    2  A    between atoms: C_8  and  C_9 
REMARK       I    between atoms: C_9  and  N_10 
REMARK    3  A    between atoms: N_10  and  C_11 
REMARK    4  A    between atoms: C_11  and  C_12 
REMARK    5  A    between atoms: C_19  and  C_20 
ROOT
HETATM    1  C   UNL     1       5.352  27.348  54.655  1.00  0.00     0.118 C 
HETATM    2  N   UNL     1       5.540  28.110  53.416  1.00  0.00    -0.366 N 
HETATM    3  C   UNL     1       5.257  27.508  52.243  1.00  0.00     0.123 A 
HETATM    4  N   UNL     1       5.517  26.180  52.086  1.00  0.00    -0.240 N 
HETATM    5  N   UNL     1       5.123  25.675  50.907  1.00  0.00    -0.165 NA
HETATM    6  C   UNL     1       4.678  26.765  50.237  1.00  0.00     0.148 A 
HETATM    7  C   UNL     1       4.760  27.938  51.042  1.00  0.00     0.088 A 
HETATM    8  C   UNL     1       6.129  25.378  53.120  1.00  0.00     0.221 C 
HETATM    9  C   UNL     1       5.658  25.839  54.512  1.00  0.00     0.066 C 
HETATM   10  H   UNL     1       5.285  29.094  53.520  1.00  0.00     0.161 HD
ENDROOT
BRANCH   6  11
HETATM   11  C   UNL     1       4.176  26.685  48.855  1.00  0.00     0.272 C 
HETATM   12  N   UNL     1       2.809  26.825  48.762  1.00  0.00    -0.353 N 
HETATM   13  H   UNL     1       2.312  26.795  49.648  1.00  0.00     0.162 HD
HETATM   14  O   UNL     1       4.906  26.493  47.887  1.00  0.00    -0.266 OA
BRANCH  12  15
HETATM   15  C   UNL     1       2.085  26.580  47.532  1.00  0.00     0.155 C 
BRANCH  15  16
HETATM   16  C   UNL     1       0.822  27.436  47.426  1.00  0.00     0.139 C 
HETATM   17  O   UNL     1       1.141  28.830  47.601  1.00  0.00    -0.384 OA
HETATM   18  C   UNL     1       0.186  29.601  46.857  1.00  0.00     0.168 C 
HETATM   19  C   UNL     1      -0.648  28.632  46.037  1.00  0.00     0.029 C 
HETATM   20  C   UNL     1       0.168  27.362  46.058  1.00  0.00     0.035 C 
ENDBRANCH  15  16
ENDBRANCH  12  15
ENDBRANCH   6  11
BRANCH   8  21
HETATM   21  C   UNL     1       7.634  25.413  52.978  1.00  0.00     0.409 C 
HETATM   22  F   UNL     1       8.144  26.643  53.218  1.00  0.00    -0.169 F 
HETATM   23  F   UNL     1       8.281  24.539  53.774  1.00  0.00    -0.169 F 
HETATM   24  F   UNL     1       7.980  25.103  51.700  1.00  0.00    -0.169 F 
ENDBRANCH   8  21
BRANCH   1  25
HETATM   25  C   UNL     1       6.125  27.992  55.793  1.00  0.00    -0.035 A 
HETATM   26  C   UNL     1       5.805  29.299  56.200  1.00  0.00     0.011 A 
HETATM   27  C   UNL     1       6.499  29.912  57.248  1.00  0.00     0.024 A 
HETATM   28  C   UNL     1       7.515  29.221  57.903  1.00  0.00     0.034 A 
HETATM   29  C   UNL     1       7.842  27.924  57.519  1.00  0.00     0.024 A 
HETATM   30 CL   UNL     1       8.371  29.978  59.189  1.00  0.00    -0.084 Cl
HETATM   31  C   UNL     1       7.150  27.314  56.469  1.00  0.00     0.011 A 
ENDBRANCH   1  25
TORSDOF 5
ENDMDL
MODEL 9
REMARK VINA RESULT:      -8.4      5.946      7.595
REMARK  5 active torsions:
REMARK  status: ('A' for Active; 'I' for Inactive)
REMARK    1  A    between atoms: C_2  and  C_3 
REMARK    2  A    between atoms: C_8  and  C_9 
REMARK       I    between atoms: C_9  and  N_10 
REMARK    3  A    between atoms: N_10  and  C_11 
REMARK    4  A    between atoms: C_11  and  C_12 
REMARK    5  A    between atoms: C_19  and  C_20 
ROOT
HETATM    1  C   UNL     1       7.463  25.093  52.621  1.00  0.00     0.118 C 
HETATM    2  N   UNL     1       6.215  25.019  51.855  1.00  0.00    -0.366 N 
HETATM    3  C   UNL     1       5.712  26.157  51.337  1.00  0.00     0.123 A 
HETATM    4  N   UNL     1       5.834  27.325  52.026  1.00  0.00    -0.240 N 
HETATM    5  N   UNL     1       5.366  28.402  51.377  1.00  0.00    -0.165 NA
HETATM    6  C   UNL     1       4.824  27.876  50.253  1.00  0.00     0.148 A 
HETATM    7  C   UNL     1       5.011  26.463  50.201  1.00  0.00     0.088 A 
HETATM    8  C   UNL     1       6.454  27.399  53.329  1.00  0.00     0.221 C 
HETATM    9  C   UNL     1       7.622  26.401  53.430  1.00  0.00     0.066 C 
HETATM   10  H   UNL     1       6.153  24.169  51.291  1.00  0.00     0.161 HD
ENDROOT
BRANCH   6  11
HETATM   11  C   UNL     1       4.147  28.707  49.245  1.00  0.00     0.272 C 
HETATM   12  N   UNL     1       4.661  29.981  49.152  1.00  0.00    -0.353 N 
HETATM   13  H   UNL     1       5.311  30.237  49.890  1.00  0.00     0.162 HD
HETATM   14  O   UNL     1       3.204  28.305  48.569  1.00  0.00    -0.266 OA
BRANCH  12  15
HETATM   15  C   UNL     1       4.021  31.023  48.377  1.00  0.00     0.155 C 
BRANCH  15  16
HETATM   16  C   UNL     1       3.122  31.913  49.236  1.00  0.00     0.139 C 
HETATM   17  O   UNL     1       1.773  31.407  49.246  1.00  0.00    -0.384 OA
HETATM   18  C   UNL     1       1.171  31.778  50.496  1.00  0.00     0.168 C 
HETATM   19  C   UNL     1       2.257  32.381  51.369  1.00  0.00     0.029 C 
HETATM   20  C   UNL     1       3.533  31.938  50.696  1.00  0.00     0.035 C 
ENDBRANCH  15  16
ENDBRANCH  12  15
ENDBRANCH   6  11
BRANCH   8  21
HETATM   21  C   UNL     1       5.416  27.187  54.407  1.00  0.00     0.409 C 
HETATM   22  F   UNL     1       4.995  25.902  54.468  1.00  0.00    -0.169 F 
HETATM   23  F   UNL     1       5.826  27.541  55.641  1.00  0.00    -0.169 F 
HETATM   24  F   UNL     1       4.313  27.934  54.135  1.00  0.00    -0.169 F 
ENDBRANCH   8  21
BRANCH   1  25
HETATM   25  C   UNL     1       7.628  23.853  53.483  1.00  0.00    -0.035 A 
HETATM   26  C   UNL     1       7.573  23.967  54.883  1.00  0.00     0.011 A 
HETATM   27  C   UNL     1       7.717  22.840  55.699  1.00  0.00     0.024 A 
HETATM   28  C   UNL     1       7.910  21.588  55.121  1.00  0.00     0.034 A 
HETATM   29  C   UNL     1       7.961  21.453  53.737  1.00  0.00     0.024 A 
HETATM   30 CL   UNL     1       8.092  20.203  56.125  1.00  0.00    -0.084 Cl
HETATM   31  C   UNL     1       7.820  22.581  52.923  1.00  0.00     0.011 A 
ENDBRANCH   1  25
TORSDOF 5
ENDMDL
MODEL 10
REMARK VINA RESULT:      -8.2      4.901      7.831
REMARK  5 active torsions:
REMARK  status: ('A' for Active; 'I' for Inactive)
REMARK    1  A    between atoms: C_2  and  C_3 
REMARK    2  A    between atoms: C_8  and  C_9 
REMARK       I    between atoms: C_9  and  N_10 
REMARK    3  A    between atoms: N_10  and  C_11 
REMARK    4  A    between atoms: C_11  and  C_12 
REMARK    5  A    between atoms: C_19  and  C_20 
ROOT
HETATM    1  C   UNL     1       7.366  25.168  53.761  1.00  0.00     0.118 C 
HETATM    2  N   UNL     1       6.017  25.164  53.187  1.00  0.00    -0.366 N 
HETATM    3  C   UNL     1       5.334  26.326  53.146  1.00  0.00     0.123 A 
HETATM    4  N   UNL     1       5.469  27.225  54.160  1.00  0.00    -0.240 N 
HETATM    5  N   UNL     1       4.803  28.374  53.973  1.00  0.00    -0.165 NA
HETATM    6  C   UNL     1       4.126  28.157  52.821  1.00  0.00     0.148 A 
HETATM    7  C   UNL     1       4.426  26.872  52.279  1.00  0.00     0.088 A 
HETATM    8  C   UNL     1       6.293  26.972  55.320  1.00  0.00     0.221 C 
HETATM    9  C   UNL     1       7.545  26.165  54.929  1.00  0.00     0.066 C 
HETATM   10  H   UNL     1       5.935  24.534  52.386  1.00  0.00     0.161 HD
ENDROOT
BRANCH   6  11
HETATM   11  C   UNL     1       3.216  29.159  52.243  1.00  0.00     0.272 C 
HETATM   12  N   UNL     1       2.400  28.652  51.258  1.00  0.00    -0.353 N 
HETATM   13  H   UNL     1       2.639  27.717  50.939  1.00  0.00     0.162 HD
HETATM   14  O   UNL     1       3.203  30.335  52.597  1.00  0.00    -0.266 OA
BRANCH  12  15
HETATM   15  C   UNL     1       1.575  29.498  50.419  1.00  0.00     0.155 C 
BRANCH  15  16
HETATM   16  C   UNL     1       1.722  29.158  48.935  1.00  0.00     0.139 C 
HETATM   17  O   UNL     1       0.847  29.982  48.140  1.00  0.00    -0.384 OA
HETATM   18  C   UNL     1       1.453  30.155  46.850  1.00  0.00     0.168 C 
HETATM   19  C   UNL     1       2.850  29.563  46.915  1.00  0.00     0.029 C 
HETATM   20  C   UNL     1       3.112  29.444  48.396  1.00  0.00     0.035 C 
ENDBRANCH  15  16
ENDBRANCH  12  15
ENDBRANCH   6  11
BRANCH   8  21
HETATM   21  C   UNL     1       5.477  26.291  56.395  1.00  0.00     0.409 C 
HETATM   22  F   UNL     1       4.442  27.053  56.815  1.00  0.00    -0.169 F 
HETATM   23  F   UNL     1       4.980  25.092  56.030  1.00  0.00    -0.169 F 
HETATM   24  F   UNL     1       6.253  26.072  57.490  1.00  0.00    -0.169 F 
ENDBRANCH   8  21
BRANCH   1  25
HETATM   25  C   UNL     1       7.784  23.755  54.135  1.00  0.00    -0.035 A 
HETATM   26  C   UNL     1       7.886  23.395  55.490  1.00  0.00     0.011 A 
HETATM   27  C   UNL     1       8.264  22.101  55.859  1.00  0.00     0.024 A 
HETATM   28  C   UNL     1       8.537  21.153  54.876  1.00  0.00     0.034 A 
HETATM   29  C   UNL     1       8.436  21.487  53.530  1.00  0.00     0.024 A 
HETATM   30 CL   UNL     1       9.007  19.562  55.332  1.00  0.00    -0.084 Cl
HETATM   31  C   UNL     1       8.061  22.783  53.161  1.00  0.00     0.011 A 
ENDBRANCH   1  25
TORSDOF 5
ENDMDL
