MODEL 1
REMARK VINA RESULT:      -9.3      0.000      0.000
REMARK  4 active torsions:
REMARK  status: ('A' for Active; 'I' for Inactive)
REMARK    1  A    between atoms: C_2  and  C_3 
REMARK       I    between atoms: N_10  and  C_11 
REMARK    2  A    between atoms: C_11  and  C_12 
REMARK    3  A    between atoms: C_16  and  C_17 
REMARK    4  A    between atoms: C_18  and  O_19 
ROOT
HETATM    1  C   UNL     1       6.666  28.943  56.806  1.00  0.00     0.068 A 
HETATM    2  N   UNL     1       5.945  29.910  57.395  1.00  0.00    -0.178 NA
HETATM    3  N   UNL     1       5.069  30.303  56.453  1.00  0.00    -0.281 N 
HETATM    4  H   UNL     1       4.398  31.026  56.690  1.00  0.00     0.189 HD
HETATM    5  C   UNL     1       5.202  29.608  55.294  1.00  0.00     0.039 A 
HETATM    6  C   UNL     1       6.252  28.740  55.467  1.00  0.00     0.011 A 
HETATM    7  C   UNL     1       6.720  27.795  54.423  1.00  0.00     0.169 C 
HETATM    8  N   UNL     1       5.670  27.623  53.394  1.00  0.00    -0.342 N 
HETATM    9  C   UNL     1       5.738  26.586  52.452  1.00  0.00     0.272 C 
HETATM   10  O   UNL     1       5.250  26.713  51.329  1.00  0.00    -0.266 OA
HETATM   11  C   UNL     1       4.997  28.868  52.951  1.00  0.00     0.132 C 
HETATM   12  C   UNL     1       4.340  29.677  54.095  1.00  0.00     0.079 C 
ENDROOT
BRANCH   9  13
HETATM   13  C   UNL     1       6.436  25.368  52.785  1.00  0.00     0.120 C 
HETATM   14  N   UNL     1       7.493  24.928  52.037  1.00  0.00    -0.272 N 
HETATM   15  H   UNL     1       7.862  25.362  51.195  1.00  0.00     0.189 HD
HETATM   16  N   UNL     1       8.115  23.850  52.544  1.00  0.00    -0.174 NA
HETATM   17  C   UNL     1       7.377  23.513  53.619  1.00  0.00     0.092 C 
HETATM   18  C   UNL     1       6.256  24.379  53.730  1.00  0.00     0.071 C 
BRANCH  17  19
HETATM   19  C   UNL     1       7.776  22.411  54.506  1.00  0.00     0.028 A 
HETATM   20  C   UNL     1       8.080  21.130  54.010  1.00  0.00     0.078 A 
HETATM   21  C   UNL     1       8.497  20.102  54.856  1.00  0.00     0.037 A 
HETATM   22  C   UNL     1       8.630  20.340  56.222  1.00  0.00     0.003 A 
HETATM   23  C   UNL     1       8.340  21.601  56.738  1.00  0.00     0.001 A 
HETATM   24  C   UNL     1       7.915  22.627  55.889  1.00  0.00     0.017 A 
BRANCH  20  25
HETATM   25  O   UNL     1       8.002  20.816  52.677  1.00  0.00    -0.360 OA
HETATM   26  H   UNL     1       8.383  21.585  52.192  1.00  0.00     0.217 HD
ENDBRANCH  20  25
ENDBRANCH  17  19
ENDBRANCH   9  13
BRANCH   1  27
HETATM   27  C   UNL     1       7.710  28.173  57.571  1.00  0.00     0.032 C 
HETATM   28  C   UNL     1       9.117  28.547  57.094  1.00  0.00     0.016 C 
HETATM   29  C   UNL     1       7.505  26.659  57.504  1.00  0.00     0.016 C 
ENDBRANCH   1  27
TORSDOF 4
ENDMDL
MODEL 2
REMARK VINA RESULT:      -9.2      2.402      3.170
REMARK  4 active torsions:
REMARK  status: ('A' for Active; 'I' for Inactive)
REMARK    1  A    between atoms: C_2  and  C_3 
REMARK       I    between atoms: N_10  and  C_11 
REMARK    2  A    between atoms: C_11  and  C_12 
REMARK    3  A    between atoms: C_16  and  C_17 
REMARK    4  A    between atoms: C_18  and  O_19 
ROOT
HETATM    1  C   UNL     1       7.252  30.913  58.316  1.00  0.00     0.068 A 
HETATM    2  N   UNL     1       6.862  32.038  58.937  1.00  0.00    -0.178 NA
HETATM    3  N   UNL     1       5.760  32.429  58.272  1.00  0.00    -0.281 N 
HETATM    4  H   UNL     1       5.277  33.264  58.588  1.00  0.00     0.189 HD
HETATM    5  C   UNL     1       5.431  31.583  57.263  1.00  0.00     0.039 A 
HETATM    6  C   UNL     1       6.395  30.604  57.232  1.00  0.00     0.011 A 
HETATM    7  C   UNL     1       6.395  29.479  56.265  1.00  0.00     0.169 C 
HETATM    8  N   UNL     1       5.049  29.328  55.669  1.00  0.00    -0.342 N 
HETATM    9  C   UNL     1       4.701  28.182  54.938  1.00  0.00     0.272 C 
HETATM   10  O   UNL     1       3.878  28.234  54.025  1.00  0.00    -0.266 OA
HETATM   11  C   UNL     1       4.382  30.590  55.264  1.00  0.00     0.132 C 
HETATM   12  C   UNL     1       4.226  31.620  56.407  1.00  0.00     0.079 C 
ENDROOT
BRANCH   9  13
HETATM   13  C   UNL     1       5.357  26.929  55.227  1.00  0.00     0.120 C 
HETATM   14  N   UNL     1       5.013  26.184  56.322  1.00  0.00    -0.272 N 
HETATM   15  H   UNL     1       4.325  26.428  57.030  1.00  0.00     0.189 HD
HETATM   16  N   UNL     1       5.622  24.988  56.386  1.00  0.00    -0.174 NA
HETATM   17  C   UNL     1       6.471  24.988  55.341  1.00  0.00     0.092 C 
HETATM   18  C   UNL     1       6.407  26.236  54.663  1.00  0.00     0.071 C 
BRANCH  17  19
HETATM   19  C   UNL     1       7.282  23.807  55.013  1.00  0.00     0.028 A 
HETATM   20  C   UNL     1       8.003  23.105  55.996  1.00  0.00     0.078 A 
HETATM   21  C   UNL     1       8.737  21.960  55.681  1.00  0.00     0.037 A 
HETATM   22  C   UNL     1       8.755  21.487  54.371  1.00  0.00     0.003 A 
HETATM   23  C   UNL     1       8.045  22.161  53.380  1.00  0.00     0.001 A 
HETATM   24  C   UNL     1       7.317  23.313  53.697  1.00  0.00     0.017 A 
BRANCH  20  25
HETATM   25  O   UNL     1       8.019  23.484  57.315  1.00  0.00    -0.360 OA
HETATM   26  H   UNL     1       7.436  24.276  57.378  1.00  0.00     0.217 HD
ENDBRANCH  20  25
ENDBRANCH  17  19
ENDBRANCH   9  13
BRANCH   1  27
HETATM   27  C   UNL     1       8.417  30.107  58.824  1.00  0.00     0.032 C 
HETATM   28  C   UNL     1       8.789  30.529  60.249  1.00  0.00     0.016 C 
HETATM   29  C   UNL     1       9.639  30.179  57.907  1.00  0.00     0.016 C 
ENDBRANCH   1  27
TORSDOF 4
ENDMDL
MODEL 3
REMARK VINA RESULT:      -8.9      2.726      4.872
REMARK  4 active torsions:
REMARK  status: ('A' for Active; 'I' for Inactive)
REMARK    1  A    between atoms: C_2  and  C_3 
REMARK       I    between atoms: N_10  and  C_11 
REMARK    2  A    between atoms: C_11  and  C_12 
REMARK    3  A    between atoms: C_16  and  C_17 
REMARK    4  A    between atoms: C_18  and  O_19 
ROOT
HETATM    1  C   UNL     1       4.257  28.152  49.521  1.00  0.00     0.068 A 
HETATM    2  N   UNL     1       3.925  29.332  48.974  1.00  0.00    -0.178 NA
HETATM    3  N   UNL     1       3.675  30.136  50.023  1.00  0.00    -0.281 N 
HETATM    4  H   UNL     1       3.419  31.100  49.841  1.00  0.00     0.189 HD
HETATM    5  C   UNL     1       3.852  29.509  51.215  1.00  0.00     0.039 A 
HETATM    6  C   UNL     1       4.195  28.208  50.936  1.00  0.00     0.011 A 
HETATM    7  C   UNL     1       4.477  27.190  51.977  1.00  0.00     0.169 C 
HETATM    8  N   UNL     1       4.756  27.855  53.268  1.00  0.00    -0.342 N 
HETATM    9  C   UNL     1       5.318  27.150  54.343  1.00  0.00     0.272 C 
HETATM   10  O   UNL     1       5.074  27.464  55.508  1.00  0.00    -0.266 OA
HETATM   11  C   UNL     1       3.848  28.974  53.622  1.00  0.00     0.132 C 
HETATM   12  C   UNL     1       3.793  30.104  52.567  1.00  0.00     0.079 C 
ENDROOT
BRANCH   9  13
HETATM   13  C   UNL     1       6.158  26.007  54.081  1.00  0.00     0.120 C 
HETATM   14  N   UNL     1       7.324  26.129  53.377  1.00  0.00    -0.272 N 
HETATM   15  H   UNL     1       7.691  26.977  52.954  1.00  0.00     0.189 HD
HETATM   16  N   UNL     1       8.054  25.002  53.324  1.00  0.00    -0.174 NA
HETATM   17  C   UNL     1       7.292  24.079  53.939  1.00  0.00     0.092 C 
HETATM   18  C   UNL     1       6.051  24.654  54.325  1.00  0.00     0.071 C 
BRANCH  17  19
HETATM   19  C   UNL     1       7.776  22.709  54.159  1.00  0.00     0.028 A 
HETATM   20  C   UNL     1       8.091  22.229  55.443  1.00  0.00     0.078 A 
HETATM   21  C   UNL     1       8.511  20.913  55.645  1.00  0.00     0.037 A 
HETATM   22  C   UNL     1       8.613  20.044  54.562  1.00  0.00     0.003 A 
HETATM   23  C   UNL     1       8.303  20.493  53.280  1.00  0.00     0.001 A 
HETATM   24  C   UNL     1       7.890  21.815  53.079  1.00  0.00     0.017 A 
BRANCH  20  25
HETATM   25  O   UNL     1       7.992  23.007  56.569  1.00  0.00    -0.360 OA
HETATM   26  H   UNL     1       7.244  22.636  57.092  1.00  0.00     0.217 HD
ENDBRANCH  20  25
ENDBRANCH  17  19
ENDBRANCH   9  13
BRANCH   1  27
HETATM   27  C   UNL     1       4.700  26.994  48.668  1.00  0.00     0.032 C 
HETATM   28  C   UNL     1       5.325  27.491  47.361  1.00  0.00     0.016 C 
HETATM   29  C   UNL     1       3.576  25.997  48.382  1.00  0.00     0.016 C 
ENDBRANCH   1  27
TORSDOF 4
ENDMDL
MODEL 4
REMARK VINA RESULT:      -8.7      2.815      6.975
REMARK  4 active torsions:
REMARK  status: ('A' for Active; 'I' for Inactive)
REMARK    1  A    between atoms: C_2  and  C_3 
REMARK       I    between atoms: N_10  and  C_11 
REMARK    2  A    between atoms: C_11  and  C_12 
REMARK    3  A    between atoms: C_16  and  C_17 
REMARK    4  A    between atoms: C_18  and  O_19 
ROOT
HETATM    1  C   UNL     1       7.877  22.926  55.381  1.00  0.00     0.068 A 
HETATM    2  N   UNL     1       8.139  22.199  56.479  1.00  0.00    -0.178 NA
HETATM    3  N   UNL     1       8.251  23.103  57.468  1.00  0.00    -0.281 N 
HETATM    4  H   UNL     1       8.431  22.768  58.408  1.00  0.00     0.189 HD
HETATM    5  C   UNL     1       8.055  24.376  57.037  1.00  0.00     0.039 A 
HETATM    6  C   UNL     1       7.845  24.311  55.681  1.00  0.00     0.011 A 
HETATM    7  C   UNL     1       7.588  25.498  54.829  1.00  0.00     0.169 C 
HETATM    8  N   UNL     1       7.172  26.640  55.673  1.00  0.00    -0.342 N 
HETATM    9  C   UNL     1       6.607  27.794  55.108  1.00  0.00     0.272 C 
HETATM   10  O   UNL     1       6.750  28.897  55.635  1.00  0.00    -0.266 OA
HETATM   11  C   UNL     1       7.954  26.837  56.918  1.00  0.00     0.132 C 
HETATM   12  C   UNL     1       7.976  25.605  57.854  1.00  0.00     0.079 C 
ENDROOT
BRANCH   9  13
HETATM   13  C   UNL     1       5.889  27.695  53.860  1.00  0.00     0.120 C 
HETATM   14  N   UNL     1       4.539  27.473  53.834  1.00  0.00    -0.272 N 
HETATM   15  H   UNL     1       3.933  27.327  54.636  1.00  0.00     0.189 HD
HETATM   16  N   UNL     1       3.997  27.532  52.606  1.00  0.00    -0.174 NA
HETATM   17  C   UNL     1       5.048  27.706  51.783  1.00  0.00     0.092 C 
HETATM   18  C   UNL     1       6.257  27.700  52.531  1.00  0.00     0.071 C 
BRANCH  17  19
HETATM   19  C   UNL     1       4.865  27.896  50.337  1.00  0.00     0.028 A 
HETATM   20  C   UNL     1       4.415  26.857  49.502  1.00  0.00     0.078 A 
HETATM   21  C   UNL     1       4.206  27.060  48.137  1.00  0.00     0.037 A 
HETATM   22  C   UNL     1       4.433  28.317  47.580  1.00  0.00     0.003 A 
HETATM   23  C   UNL     1       4.875  29.363  48.386  1.00  0.00     0.001 A 
HETATM   24  C   UNL     1       5.092  29.155  49.753  1.00  0.00     0.017 A 
BRANCH  20  25
HETATM   25  O   UNL     1       4.140  25.597  49.970  1.00  0.00    -0.360 OA
HETATM   26  H   UNL     1       3.217  25.630  50.314  1.00  0.00     0.217 HD
ENDBRANCH  20  25
ENDBRANCH  17  19
ENDBRANCH   9  13
BRANCH   1  27
HETATM   27  C   UNL     1       7.591  22.267  54.058  1.00  0.00     0.032 C 
HETATM   28  C   UNL     1       7.923  20.773  54.114  1.00  0.00     0.016 C 
HETATM   29  C   UNL     1       8.315  22.935  52.889  1.00  0.00     0.016 C 
ENDBRANCH   1  27
TORSDOF 4
ENDMDL
MODEL 5
REMARK VINA RESULT:      -8.7      1.636      2.162
REMARK  4 active torsions:
REMARK  status: ('A' for Active; 'I' for Inactive)
REMARK    1  A    between atoms: C_2  and  C_3 
REMARK       I    between atoms: N_10  and  C_11 
REMARK    2  A    between atoms: C_11  and  C_12 
REMARK    3  A    between atoms: C_16  and  C_17 
REMARK    4  A    between atoms: C_18  and  O_19 
ROOT
HETATM    1  C   UNL     1       4.870  29.422  55.277  1.00  0.00     0.068 A 
HETATM    2  N   UNL     1       3.863  30.270  55.541  1.00  0.00    -0.178 NA
HETATM    3  N   UNL     1       3.147  30.314  54.403  1.00  0.00    -0.281 N 
HETATM    4  H   UNL     1       2.312  30.890  54.382  1.00  0.00     0.189 HD
HETATM    5  C   UNL     1       3.658  29.512  53.434  1.00  0.00     0.039 A 
HETATM    6  C   UNL     1       4.798  28.941  53.946  1.00  0.00     0.011 A 
HETATM    7  C   UNL     1       5.653  27.991  53.193  1.00  0.00     0.169 C 
HETATM    8  N   UNL     1       4.900  27.439  52.046  1.00  0.00    -0.342 N 
HETATM    9  C   UNL     1       5.370  26.322  51.337  1.00  0.00     0.272 C 
HETATM   10  O   UNL     1       5.116  26.174  50.142  1.00  0.00    -0.266 OA
HETATM   11  C   UNL     1       4.104  28.420  51.269  1.00  0.00     0.132 C 
HETATM   12  C   UNL     1       3.074  29.210  52.110  1.00  0.00     0.079 C 
ENDROOT
BRANCH   9  13
HETATM   13  C   UNL     1       6.208  25.357  52.006  1.00  0.00     0.120 C 
HETATM   14  N   UNL     1       7.495  25.132  51.601  1.00  0.00    -0.272 N 
HETATM   15  H   UNL     1       7.966  25.565  50.812  1.00  0.00     0.189 HD
HETATM   16  N   UNL     1       8.184  24.299  52.399  1.00  0.00    -0.174 NA
HETATM   17  C   UNL     1       7.284  23.888  53.312  1.00  0.00     0.092 C 
HETATM   18  C   UNL     1       6.010  24.448  53.024  1.00  0.00     0.071 C 
BRANCH  17  19
HETATM   19  C   UNL     1       7.670  23.010  54.426  1.00  0.00     0.028 A 
HETATM   20  C   UNL     1       7.986  23.520  55.699  1.00  0.00     0.078 A 
HETATM   21  C   UNL     1       8.310  22.675  56.760  1.00  0.00     0.037 A 
HETATM   22  C   UNL     1       8.315  21.295  56.572  1.00  0.00     0.003 A 
HETATM   23  C   UNL     1       8.002  20.764  55.323  1.00  0.00     0.001 A 
HETATM   24  C   UNL     1       7.684  21.614  54.258  1.00  0.00     0.017 A 
BRANCH  20  25
HETATM   25  O   UNL     1       7.979  24.863  55.981  1.00  0.00    -0.360 OA
HETATM   26  H   UNL     1       7.659  24.945  56.909  1.00  0.00     0.217 HD
ENDBRANCH  20  25
ENDBRANCH  17  19
ENDBRANCH   9  13
BRANCH   1  27
HETATM   27  C   UNL     1       5.859  29.029  56.342  1.00  0.00     0.032 C 
HETATM   28  C   UNL     1       7.291  29.325  55.887  1.00  0.00     0.016 C 
HETATM   29  C   UNL     1       5.723  27.569  56.774  1.00  0.00     0.016 C 
ENDBRANCH   1  27
TORSDOF 4
ENDMDL
MODEL 6
REMARK VINA RESULT:      -8.6      2.714      7.237
REMARK  4 active torsions:
REMARK  status: ('A' for Active; 'I' for Inactive)
REMARK    1  A    between atoms: C_2  and  C_3 
REMARK       I    between atoms: N_10  and  C_11 
REMARK    2  A    between atoms: C_11  and  C_12 
REMARK    3  A    between atoms: C_16  and  C_17 
REMARK    4  A    between atoms: C_18  and  O_19 
ROOT
HETATM    1  C   UNL     1       7.385  23.552  55.266  1.00  0.00     0.068 A 
HETATM    2  N   UNL     1       7.812  22.635  54.383  1.00  0.00    -0.178 NA
HETATM    3  N   UNL     1       7.202  22.964  53.230  1.00  0.00    -0.281 N 
HETATM    4  H   UNL     1       7.399  22.406  52.406  1.00  0.00     0.189 HD
HETATM    5  C   UNL     1       6.416  24.065  53.350  1.00  0.00     0.039 A 
HETATM    6  C   UNL     1       6.477  24.458  54.665  1.00  0.00     0.011 A 
HETATM    7  C   UNL     1       5.752  25.633  55.207  1.00  0.00     0.169 C 
HETATM    8  N   UNL     1       5.340  26.524  54.100  1.00  0.00    -0.342 N 
HETATM    9  C   UNL     1       4.887  27.829  54.346  1.00  0.00     0.272 C 
HETATM   10  O   UNL     1       4.071  28.371  53.600  1.00  0.00    -0.266 OA
HETATM   11  C   UNL     1       4.769  25.845  52.910  1.00  0.00     0.132 C 
HETATM   12  C   UNL     1       5.700  24.785  52.276  1.00  0.00     0.079 C 
ENDROOT
BRANCH   9  13
HETATM   13  C   UNL     1       5.344  28.530  55.521  1.00  0.00     0.120 C 
HETATM   14  N   UNL     1       4.650  28.471  56.698  1.00  0.00    -0.272 N 
HETATM   15  H   UNL     1       3.771  27.987  56.860  1.00  0.00     0.189 HD
HETATM   16  N   UNL     1       5.267  29.071  57.730  1.00  0.00    -0.174 NA
HETATM   17  C   UNL     1       6.366  29.627  57.187  1.00  0.00     0.092 C 
HETATM   18  C   UNL     1       6.383  29.399  55.784  1.00  0.00     0.071 C 
BRANCH  17  19
HETATM   19  C   UNL     1       7.361  30.323  58.014  1.00  0.00     0.028 A 
HETATM   20  C   UNL     1       6.988  31.251  59.004  1.00  0.00     0.078 A 
HETATM   21  C   UNL     1       7.938  31.875  59.812  1.00  0.00     0.037 A 
HETATM   22  C   UNL     1       9.289  31.573  59.653  1.00  0.00     0.003 A 
HETATM   23  C   UNL     1       9.685  30.654  58.684  1.00  0.00     0.001 A 
HETATM   24  C   UNL     1       8.730  30.036  57.870  1.00  0.00     0.017 A 
BRANCH  20  25
HETATM   25  O   UNL     1       5.680  31.587  59.247  1.00  0.00    -0.360 OA
HETATM   26  H   UNL     1       5.235  31.607  58.367  1.00  0.00     0.217 HD
ENDBRANCH  20  25
ENDBRANCH  17  19
ENDBRANCH   9  13
BRANCH   1  27
HETATM   27  C   UNL     1       7.916  23.585  56.675  1.00  0.00     0.032 C 
HETATM   28  C   UNL     1       9.021  24.636  56.814  1.00  0.00     0.016 C 
HETATM   29  C   UNL     1       8.408  22.221  57.160  1.00  0.00     0.016 C 
ENDBRANCH   1  27
TORSDOF 4
ENDMDL
MODEL 7
REMARK VINA RESULT:      -8.5      2.935      4.942
REMARK  4 active torsions:
REMARK  status: ('A' for Active; 'I' for Inactive)
REMARK    1  A    between atoms: C_2  and  C_3 
REMARK       I    between atoms: N_10  and  C_11 
REMARK    2  A    between atoms: C_11  and  C_12 
REMARK    3  A    between atoms: C_16  and  C_17 
REMARK    4  A    between atoms: C_18  and  O_19 
ROOT
HETATM    1  C   UNL     1       4.088  28.416  50.753  1.00  0.00     0.068 A 
HETATM    2  N   UNL     1       4.060  29.429  49.871  1.00  0.00    -0.178 NA
HETATM    3  N   UNL     1       3.873  30.529  50.623  1.00  0.00    -0.281 N 
HETATM    4  H   UNL     1       3.838  31.429  50.158  1.00  0.00     0.189 HD
HETATM    5  C   UNL     1       3.796  30.248  51.949  1.00  0.00     0.039 A 
HETATM    6  C   UNL     1       3.894  28.883  52.076  1.00  0.00     0.011 A 
HETATM    7  C   UNL     1       3.857  28.173  53.377  1.00  0.00     0.169 C 
HETATM    8  N   UNL     1       4.131  29.123  54.477  1.00  0.00    -0.342 N 
HETATM    9  C   UNL     1       4.426  28.671  55.773  1.00  0.00     0.272 C 
HETATM   10  O   UNL     1       4.132  29.341  56.763  1.00  0.00    -0.266 OA
HETATM   11  C   UNL     1       3.438  30.432  54.382  1.00  0.00     0.132 C 
HETATM   12  C   UNL     1       3.721  31.206  53.073  1.00  0.00     0.079 C 
ENDROOT
BRANCH   9  13
HETATM   13  C   UNL     1       5.038  27.377  55.951  1.00  0.00     0.120 C 
HETATM   14  N   UNL     1       4.554  26.483  56.866  1.00  0.00    -0.272 N 
HETATM   15  H   UNL     1       3.780  26.631  57.508  1.00  0.00     0.189 HD
HETATM   16  N   UNL     1       5.151  25.280  56.827  1.00  0.00    -0.174 NA
HETATM   17  C   UNL     1       6.129  25.420  55.913  1.00  0.00     0.092 C 
HETATM   18  C   UNL     1       6.153  26.756  55.429  1.00  0.00     0.071 C 
BRANCH  17  19
HETATM   19  C   UNL     1       6.977  24.286  55.518  1.00  0.00     0.028 A 
HETATM   20  C   UNL     1       7.841  23.651  56.429  1.00  0.00     0.078 A 
HETATM   21  C   UNL     1       8.610  22.550  56.054  1.00  0.00     0.037 A 
HETATM   22  C   UNL     1       8.522  22.051  54.757  1.00  0.00     0.003 A 
HETATM   23  C   UNL     1       7.671  22.659  53.837  1.00  0.00     0.001 A 
HETATM   24  C   UNL     1       6.907  23.768  54.213  1.00  0.00     0.017 A 
BRANCH  20  25
HETATM   25  O   UNL     1       7.970  24.058  57.733  1.00  0.00    -0.360 OA
HETATM   26  H   UNL     1       8.477  23.348  58.192  1.00  0.00     0.217 HD
ENDBRANCH  20  25
ENDBRANCH  17  19
ENDBRANCH   9  13
BRANCH   1  27
HETATM   27  C   UNL     1       4.372  27.005  50.310  1.00  0.00     0.032 C 
HETATM   28  C   UNL     1       5.653  26.479  50.965  1.00  0.00     0.016 C 
HETATM   29  C   UNL     1       4.447  26.859  48.790  1.00  0.00     0.016 C 
ENDBRANCH   1  27
TORSDOF 4
ENDMDL
MODEL 8
REMARK VINA RESULT:      -8.4      2.789      3.624
REMARK  4 active torsions:
REMARK  status: ('A' for Active; 'I' for Inactive)
REMARK    1  A    between atoms: C_2  and  C_3 
REMARK       I    between atoms: N_10  and  C_11 
REMARK    2  A    between atoms: C_11  and  C_12 
REMARK    3  A    between atoms: C_16  and  C_17 
REMARK    4  A    between atoms: C_18  and  O_19 
ROOT
HETATM    1  C   UNL     1       3.860  30.820  53.778  1.00  0.00     0.068 A 
HETATM    2  N   UNL     1       2.968  31.809  53.613  1.00  0.00    -0.178 NA
HETATM    3  N   UNL     1       2.521  31.658  52.353  1.00  0.00    -0.281 N 
HETATM    4  H   UNL     1       1.811  32.298  52.014  1.00  0.00     0.189 HD
HETATM    5  C   UNL     1       3.090  30.599  51.721  1.00  0.00     0.039 A 
HETATM    6  C   UNL     1       3.993  30.048  52.597  1.00  0.00     0.011 A 
HETATM    7  C   UNL     1       4.826  28.861  52.283  1.00  0.00     0.169 C 
HETATM    8  N   UNL     1       4.251  28.136  51.129  1.00  0.00    -0.342 N 
HETATM    9  C   UNL     1       4.677  26.840  50.799  1.00  0.00     0.272 C 
HETATM   10  O   UNL     1       4.658  26.440  49.635  1.00  0.00    -0.266 OA
HETATM   11  C   UNL     1       3.800  28.984  49.998  1.00  0.00     0.132 C 
HETATM   12  C   UNL     1       2.755  30.056  50.387  1.00  0.00     0.079 C 
ENDROOT
BRANCH   9  13
HETATM   13  C   UNL     1       5.194  25.977  51.834  1.00  0.00     0.120 C 
HETATM   14  N   UNL     1       4.425  25.615  52.905  1.00  0.00    -0.272 N 
HETATM   15  H   UNL     1       3.475  25.920  53.101  1.00  0.00     0.189 HD
HETATM   16  N   UNL     1       5.002  24.711  53.715  1.00  0.00    -0.174 NA
HETATM   17  C   UNL     1       6.237  24.544  53.206  1.00  0.00     0.092 C 
HETATM   18  C   UNL     1       6.423  25.408  52.092  1.00  0.00     0.071 C 
BRANCH  17  19
HETATM   19  C   UNL     1       7.173  23.563  53.772  1.00  0.00     0.028 A 
HETATM   20  C   UNL     1       7.351  23.420  55.160  1.00  0.00     0.078 A 
HETATM   21  C   UNL     1       8.211  22.457  55.688  1.00  0.00     0.037 A 
HETATM   22  C   UNL     1       8.906  21.605  54.833  1.00  0.00     0.003 A 
HETATM   23  C   UNL     1       8.744  21.722  53.454  1.00  0.00     0.001 A 
HETATM   24  C   UNL     1       7.887  22.694  52.927  1.00  0.00     0.017 A 
BRANCH  20  25
HETATM   25  O   UNL     1       6.687  24.198  56.075  1.00  0.00    -0.360 OA
HETATM   26  H   UNL     1       6.735  23.713  56.931  1.00  0.00     0.217 HD
ENDBRANCH  20  25
ENDBRANCH  17  19
ENDBRANCH   9  13
BRANCH   1  27
HETATM   27  C   UNL     1       4.530  30.588  55.106  1.00  0.00     0.032 C 
HETATM   28  C   UNL     1       3.827  29.469  55.879  1.00  0.00     0.016 C 
HETATM   29  C   UNL     1       4.623  31.854  55.958  1.00  0.00     0.016 C 
ENDBRANCH   1  27
TORSDOF 4
ENDMDL
MODEL 9
REMARK VINA RESULT:      -8.3      3.312      4.697
REMARK  4 active torsions:
REMARK  status: ('A' for Active; 'I' for Inactive)
REMARK    1  A    between atoms: C_2  and  C_3 
REMARK       I    between atoms: N_10  and  C_11 
REMARK    2  A    between atoms: C_11  and  C_12 
REMARK    3  A    between atoms: C_16  and  C_17 
REMARK    4  A    between atoms: C_18  and  O_19 
ROOT
HETATM    1  C   UNL     1       7.391  31.627  59.860  1.00  0.00     0.068 A 
HETATM    2  N   UNL     1       7.001  32.332  60.934  1.00  0.00    -0.178 NA
HETATM    3  N   UNL     1       5.748  32.727  60.645  1.00  0.00    -0.281 N 
HETATM    4  H   UNL     1       5.241  33.267  61.338  1.00  0.00     0.189 HD
HETATM    5  C   UNL     1       5.327  32.284  59.432  1.00  0.00     0.039 A 
HETATM    6  C   UNL     1       6.377  31.596  58.872  1.00  0.00     0.011 A 
HETATM    7  C   UNL     1       6.319  30.949  57.538  1.00  0.00     0.169 C 
HETATM    8  N   UNL     1       4.909  30.782  57.122  1.00  0.00    -0.342 N 
HETATM    9  C   UNL     1       4.563  29.958  56.040  1.00  0.00     0.272 C 
HETATM   10  O   UNL     1       3.572  30.196  55.350  1.00  0.00    -0.266 OA
HETATM   11  C   UNL     1       4.025  31.949  57.365  1.00  0.00     0.132 C 
HETATM   12  C   UNL     1       3.979  32.413  58.840  1.00  0.00     0.079 C 
ENDROOT
BRANCH   9  13
HETATM   13  C   UNL     1       5.410  28.842  55.698  1.00  0.00     0.120 C 
HETATM   14  N   UNL     1       6.317  28.925  54.677  1.00  0.00    -0.272 N 
HETATM   15  H   UNL     1       6.463  29.719  54.060  1.00  0.00     0.189 HD
HETATM   16  N   UNL     1       7.116  27.851  54.563  1.00  0.00    -0.174 NA
HETATM   17  C   UNL     1       6.653  26.988  55.487  1.00  0.00     0.092 C 
HETATM   18  C   UNL     1       5.514  27.538  56.137  1.00  0.00     0.071 C 
BRANCH  17  19
HETATM   19  C   UNL     1       7.317  25.701  55.734  1.00  0.00     0.028 A 
HETATM   20  C   UNL     1       8.089  25.472  56.887  1.00  0.00     0.078 A 
HETATM   21  C   UNL     1       8.681  24.233  57.132  1.00  0.00     0.037 A 
HETATM   22  C   UNL     1       8.503  23.188  56.228  1.00  0.00     0.003 A 
HETATM   23  C   UNL     1       7.740  23.388  55.080  1.00  0.00     0.001 A 
HETATM   24  C   UNL     1       7.153  24.633  54.833  1.00  0.00     0.017 A 
BRANCH  20  25
HETATM   25  O   UNL     1       8.294  26.434  57.844  1.00  0.00    -0.360 OA
HETATM   26  H   UNL     1       8.901  26.034  58.509  1.00  0.00     0.217 HD
ENDBRANCH  20  25
ENDBRANCH  17  19
ENDBRANCH   9  13
BRANCH   1  27
HETATM   27  C   UNL     1       8.724  30.929  59.829  1.00  0.00     0.032 C 
HETATM   28  C   UNL     1       9.230  30.661  61.249  1.00  0.00     0.016 C 
HETATM   29  C   UNL     1       9.777  31.686  59.018  1.00  0.00     0.016 C 
ENDBRANCH   1  27
TORSDOF 4
ENDMDL
MODEL 10
REMARK VINA RESULT:      -8.3      3.187      7.046
REMARK  4 active torsions:
REMARK  status: ('A' for Active; 'I' for Inactive)
REMARK    1  A    between atoms: C_2  and  C_3 
REMARK       I    between atoms: N_10  and  C_11 
REMARK    2  A    between atoms: C_11  and  C_12 
REMARK    3  A    between atoms: C_16  and  C_17 
REMARK    4  A    between atoms: C_18  and  O_19 
ROOT
HETATM    1  C   UNL     1       7.185  23.920  54.494  1.00  0.00     0.068 A 
HETATM    2  N   UNL     1       7.223  23.109  55.564  1.00  0.00    -0.178 NA
HETATM    3  N   UNL     1       6.952  23.912  56.609  1.00  0.00    -0.281 N 
HETATM    4  H   UNL     1       6.909  23.500  57.535  1.00  0.00     0.189 HD
HETATM    5  C   UNL     1       6.730  25.199  56.235  1.00  0.00     0.039 A 
HETATM    6  C   UNL     1       6.907  25.256  54.874  1.00  0.00     0.011 A 
HETATM    7  C   UNL     1       6.751  26.496  54.075  1.00  0.00     0.169 C 
HETATM    8  N   UNL     1       5.987  27.500  54.849  1.00  0.00    -0.342 N 
HETATM    9  C   UNL     1       5.463  28.647  54.234  1.00  0.00     0.272 C 
HETATM   10  O   UNL     1       5.324  29.698  54.861  1.00  0.00    -0.266 OA
HETATM   11  C   UNL     1       6.372  27.638  56.275  1.00  0.00     0.132 C 
HETATM   12  C   UNL     1       6.285  26.323  57.086  1.00  0.00     0.079 C 
ENDROOT
BRANCH   9  13
HETATM   13  C   UNL     1       5.129  28.612  52.831  1.00  0.00     0.120 C 
HETATM   14  N   UNL     1       5.765  29.420  51.930  1.00  0.00    -0.272 N 
HETATM   15  H   UNL     1       6.474  30.118  52.136  1.00  0.00     0.189 HD
HETATM   16  N   UNL     1       5.432  29.183  50.649  1.00  0.00    -0.174 NA
HETATM   17  C   UNL     1       4.470  28.244  50.721  1.00  0.00     0.092 C 
HETATM   18  C   UNL     1       4.181  27.948  52.081  1.00  0.00     0.071 C 
BRANCH  17  19
HETATM   19  C   UNL     1       3.887  27.651  49.510  1.00  0.00     0.028 A 
HETATM   20  C   UNL     1       3.090  28.400  48.624  1.00  0.00     0.078 A 
HETATM   21  C   UNL     1       2.576  27.838  47.456  1.00  0.00     0.037 A 
HETATM   22  C   UNL     1       2.858  26.511  47.142  1.00  0.00     0.003 A 
HETATM   23  C   UNL     1       3.648  25.748  47.999  1.00  0.00     0.001 A 
HETATM   24  C   UNL     1       4.156  26.312  49.175  1.00  0.00     0.017 A 
BRANCH  20  25
HETATM   25  O   UNL     1       2.785  29.720  48.840  1.00  0.00    -0.360 OA
HETATM   26  H   UNL     1       2.145  29.733  49.590  1.00  0.00     0.217 HD
ENDBRANCH  20  25
ENDBRANCH  17  19
ENDBRANCH   9  13
BRANCH   1  27
HETATM   27  C   UNL     1       7.351  23.378  53.099  1.00  0.00     0.032 C 
HETATM   28  C   UNL     1       8.104  22.045  53.122  1.00  0.00     0.016 C 
HETATM   29  C   UNL     1       8.034  24.365  52.152  1.00  0.00     0.016 C 
ENDBRANCH   1  27
TORSDOF 4
ENDMDL
