MODEL 1
REMARK VINA RESULT:      -9.0      0.000      0.000
REMARK  6 active torsions:
REMARK  status: ('A' for Active; 'I' for Inactive)
REMARK    1  A    between atoms: C_4  and  C_5 
REMARK    2  A    between atoms: C_5  and  N_6 
REMARK    3  A    between atoms: C_5  and  C_22 
REMARK    4  A    between atoms: N_6  and  C_9 
REMARK    5  A    between atoms: C_9  and  C_10 
REMARK    6  A    between atoms: C_13  and  C_14 
REMARK       I    between atoms: C_22  and  N_23 
ROOT
HETATM    1  N   UNL     1       9.460  30.156  58.662  1.00  0.00    -0.054 N 
HETATM    2  H   UNL     1       8.844  29.674  59.326  1.00  0.00     0.278 HD
HETATM    3  H   UNL     1      10.378  29.697  58.719  1.00  0.00     0.278 HD
ENDROOT
BRANCH   1   4
HETATM    4  C   UNL     1       8.974  29.942  57.246  1.00  0.00     0.310 C 
BRANCH   4   5
HETATM    5  C   UNL     1       8.005  28.779  57.202  1.00  0.00    -0.019 A 
HETATM    6  C   UNL     1       8.486  27.460  57.226  1.00  0.00     0.010 A 
HETATM    7  C   UNL     1       7.598  26.383  57.175  1.00  0.00     0.001 A 
HETATM    8  C   UNL     1       6.226  26.610  57.090  1.00  0.00     0.000 A 
HETATM    9  C   UNL     1       5.736  27.912  57.055  1.00  0.00     0.001 A 
HETATM   10  C   UNL     1       6.618  28.993  57.108  1.00  0.00     0.010 A 
ENDBRANCH   4   5
BRANCH   4  11
HETATM   11  C   UNL     1      10.177  29.714  56.298  1.00  0.00     0.251 C 
HETATM   12  N   UNL     1      11.393  29.468  56.859  1.00  0.00    -0.368 N 
HETATM   13  H   UNL     1      11.629  29.734  57.809  1.00  0.00     0.159 HD
HETATM   14  H   UNL     1      12.183  29.385  56.223  1.00  0.00     0.159 HD
HETATM   15  O   UNL     1      10.019  29.714  55.077  1.00  0.00    -0.271 OA
ENDBRANCH   4  11
ENDBRANCH   1   4
BRANCH   1  16
HETATM   16  C   UNL     1       9.640  31.578  59.064  1.00  0.00     0.272 C 
BRANCH  16  17
HETATM   17  C   UNL     1       8.845  31.927  60.292  1.00  0.00    -0.033 A 
HETATM   18  C   UNL     1       9.405  31.824  61.573  1.00  0.00     0.010 A 
HETATM   19  C   UNL     1       8.667  32.183  62.706  1.00  0.00     0.013 A 
HETATM   20  C   UNL     1       7.356  32.678  62.602  1.00  0.00    -0.025 A 
HETATM   21  C   UNL     1       6.808  32.784  61.313  1.00  0.00     0.013 A 
HETATM   22  C   UNL     1       7.536  32.413  60.176  1.00  0.00     0.010 A 
BRANCH  20  23
HETATM   23  C   UNL     1       6.596  33.096  63.795  1.00  0.00    -0.008 A 
HETATM   24  C   UNL     1       5.200  33.039  63.841  1.00  0.00     0.128 A 
HETATM   25  N   UNL     1       4.439  33.404  64.900  1.00  0.00    -0.272 NA
HETATM   26  C   UNL     1       5.092  33.849  65.992  1.00  0.00     0.116 A 
HETATM   27  C   UNL     1       6.471  33.945  66.068  1.00  0.00     0.020 A 
HETATM   28  C   UNL     1       7.225  33.567  64.957  1.00  0.00     0.015 A 
ENDBRANCH  20  23
ENDBRANCH  16  17
ENDBRANCH   1  16
TORSDOF 6
ENDMDL
MODEL 2
REMARK VINA RESULT:      -8.9      3.049      9.314
REMARK  6 active torsions:
REMARK  status: ('A' for Active; 'I' for Inactive)
REMARK    1  A    between atoms: C_4  and  C_5 
REMARK    2  A    between atoms: C_5  and  N_6 
REMARK    3  A    between atoms: C_5  and  C_22 
REMARK    4  A    between atoms: N_6  and  C_9 
REMARK    5  A    between atoms: C_9  and  C_10 
REMARK    6  A    between atoms: C_13  and  C_14 
REMARK       I    between atoms: C_22  and  N_23 
ROOT
HETATM    1  N   UNL     1       7.878  30.085  57.565  1.00  0.00    -0.054 N 
HETATM    2  H   UNL     1       7.413  30.999  57.546  1.00  0.00     0.278 HD
HETATM    3  H   UNL     1       8.303  29.947  56.639  1.00  0.00     0.278 HD
ENDROOT
BRANCH   1   4
HETATM    4  C   UNL     1       9.023  30.097  58.551  1.00  0.00     0.310 C 
BRANCH   4   5
HETATM    5  C   UNL     1       8.627  30.867  59.793  1.00  0.00    -0.019 A 
HETATM    6  C   UNL     1       7.665  31.887  59.713  1.00  0.00     0.010 A 
HETATM    7  C   UNL     1       7.303  32.608  60.854  1.00  0.00     0.001 A 
HETATM    8  C   UNL     1       7.903  32.327  62.079  1.00  0.00     0.000 A 
HETATM    9  C   UNL     1       8.866  31.327  62.171  1.00  0.00     0.001 A 
HETATM   10  C   UNL     1       9.230  30.601  61.036  1.00  0.00     0.010 A 
ENDBRANCH   4   5
BRANCH   4  11
HETATM   11  C   UNL     1      10.289  30.697  57.892  1.00  0.00     0.251 C 
HETATM   12  N   UNL     1      11.009  29.900  57.053  1.00  0.00    -0.368 N 
HETATM   13  H   UNL     1      10.967  28.887  57.079  1.00  0.00     0.159 HD
HETATM   14  H   UNL     1      11.872  30.289  56.680  1.00  0.00     0.159 HD
HETATM   15  O   UNL     1      10.602  31.870  58.091  1.00  0.00    -0.271 OA
ENDBRANCH   4  11
ENDBRANCH   1   4
BRANCH   1  16
HETATM   16  C   UNL     1       6.876  29.002  57.768  1.00  0.00     0.272 C 
BRANCH  16  17
HETATM   17  C   UNL     1       7.240  27.744  57.028  1.00  0.00    -0.033 A 
HETATM   18  C   UNL     1       7.835  26.661  57.688  1.00  0.00     0.010 A 
HETATM   19  C   UNL     1       8.139  25.483  56.995  1.00  0.00     0.013 A 
HETATM   20  C   UNL     1       7.838  25.335  55.631  1.00  0.00    -0.025 A 
HETATM   21  C   UNL     1       7.235  26.425  54.983  1.00  0.00     0.013 A 
HETATM   22  C   UNL     1       6.942  27.612  55.666  1.00  0.00     0.010 A 
BRANCH  20  23
HETATM   23  C   UNL     1       8.121  24.077  54.915  1.00  0.00    -0.008 A 
HETATM   24  C   UNL     1       8.911  23.068  55.474  1.00  0.00     0.128 A 
HETATM   25  N   UNL     1       9.211  21.890  54.875  1.00  0.00    -0.272 NA
HETATM   26  C   UNL     1       8.692  21.684  53.649  1.00  0.00     0.116 A 
HETATM   27  C   UNL     1       7.891  22.604  52.996  1.00  0.00     0.020 A 
HETATM   28  C   UNL     1       7.607  23.811  53.637  1.00  0.00     0.015 A 
ENDBRANCH  20  23
ENDBRANCH  16  17
ENDBRANCH   1  16
TORSDOF 6
ENDMDL
MODEL 3
REMARK VINA RESULT:      -8.8     10.108     12.168
REMARK  6 active torsions:
REMARK  status: ('A' for Active; 'I' for Inactive)
REMARK    1  A    between atoms: C_4  and  C_5 
REMARK    2  A    between atoms: C_5  and  N_6 
REMARK    3  A    between atoms: C_5  and  C_22 
REMARK    4  A    between atoms: N_6  and  C_9 
REMARK    5  A    between atoms: C_9  and  C_10 
REMARK    6  A    between atoms: C_13  and  C_14 
REMARK       I    between atoms: C_22  and  N_23 
ROOT
HETATM    1  N   UNL     1       4.775  26.617  50.866  1.00  0.00    -0.054 N 
HETATM    2  H   UNL     1       4.032  26.126  51.375  1.00  0.00     0.278 HD
HETATM    3  H   UNL     1       5.130  25.965  50.153  1.00  0.00     0.278 HD
ENDROOT
BRANCH   1   4
HETATM    4  C   UNL     1       4.204  27.793  50.107  1.00  0.00     0.310 C 
BRANCH   4   5
HETATM    5  C   UNL     1       3.365  27.301  48.946  1.00  0.00    -0.019 A 
HETATM    6  C   UNL     1       2.356  28.118  48.410  1.00  0.00     0.010 A 
HETATM    7  C   UNL     1       1.572  27.666  47.346  1.00  0.00     0.001 A 
HETATM    8  C   UNL     1       1.780  26.395  46.814  1.00  0.00     0.000 A 
HETATM    9  C   UNL     1       2.770  25.572  47.342  1.00  0.00     0.001 A 
HETATM   10  C   UNL     1       3.558  26.018  48.404  1.00  0.00     0.010 A 
ENDBRANCH   4   5
BRANCH   4  11
HETATM   11  C   UNL     1       5.344  28.725  49.629  1.00  0.00     0.251 C 
HETATM   12  N   UNL     1       6.068  28.340  48.541  1.00  0.00    -0.368 N 
HETATM   13  H   UNL     1       6.130  27.376  48.230  1.00  0.00     0.159 HD
HETATM   14  H   UNL     1       6.853  28.931  48.280  1.00  0.00     0.159 HD
HETATM   15  O   UNL     1       5.553  29.798  50.193  1.00  0.00    -0.271 OA
ENDBRANCH   4  11
ENDBRANCH   1   4
BRANCH   1  16
HETATM   16  C   UNL     1       5.903  26.939  51.783  1.00  0.00     0.272 C 
BRANCH  16  17
HETATM   17  C   UNL     1       6.430  25.719  52.487  1.00  0.00    -0.033 A 
HETATM   18  C   UNL     1       5.852  25.262  53.679  1.00  0.00     0.010 A 
HETATM   19  C   UNL     1       6.331  24.106  54.307  1.00  0.00     0.013 A 
HETATM   20  C   UNL     1       7.382  23.354  53.756  1.00  0.00    -0.025 A 
HETATM   21  C   UNL     1       7.947  23.817  52.558  1.00  0.00     0.013 A 
HETATM   22  C   UNL     1       7.483  24.981  51.932  1.00  0.00     0.010 A 
BRANCH  20  23
HETATM   23  C   UNL     1       7.854  22.112  54.398  1.00  0.00    -0.008 A 
HETATM   24  C   UNL     1       8.322  21.026  53.653  1.00  0.00     0.128 A 
HETATM   25  N   UNL     1       8.770  19.858  54.174  1.00  0.00    -0.272 NA
HETATM   26  C   UNL     1       8.768  19.753  55.517  1.00  0.00     0.116 A 
HETATM   27  C   UNL     1       8.335  20.761  56.360  1.00  0.00     0.020 A 
HETATM   28  C   UNL     1       7.873  21.949  55.791  1.00  0.00     0.015 A 
ENDBRANCH  20  23
ENDBRANCH  16  17
ENDBRANCH   1  16
TORSDOF 6
ENDMDL
MODEL 4
REMARK VINA RESULT:      -8.8      6.113     10.368
REMARK  6 active torsions:
REMARK  status: ('A' for Active; 'I' for Inactive)
REMARK    1  A    between atoms: C_4  and  C_5 
REMARK    2  A    between atoms: C_5  and  N_6 
REMARK    3  A    between atoms: C_5  and  C_22 
REMARK    4  A    between atoms: N_6  and  C_9 
REMARK    5  A    between atoms: C_9  and  C_10 
REMARK    6  A    between atoms: C_13  and  C_14 
REMARK       I    between atoms: C_22  and  N_23 
ROOT
HETATM    1  N   UNL     1       4.699  28.597  54.505  1.00  0.00    -0.054 N 
HETATM    2  H   UNL     1       4.052  27.831  54.719  1.00  0.00     0.278 HD
HETATM    3  H   UNL     1       4.125  29.405  54.229  1.00  0.00     0.278 HD
ENDROOT
BRANCH   1   4
HETATM    4  C   UNL     1       5.443  29.020  55.751  1.00  0.00     0.310 C 
BRANCH   4   5
HETATM    5  C   UNL     1       6.078  27.812  56.408  1.00  0.00    -0.019 A 
HETATM    6  C   UNL     1       7.457  27.801  56.677  1.00  0.00     0.010 A 
HETATM    7  C   UNL     1       8.051  26.686  57.274  1.00  0.00     0.001 A 
HETATM    8  C   UNL     1       7.281  25.571  57.598  1.00  0.00     0.000 A 
HETATM    9  C   UNL     1       5.915  25.565  57.327  1.00  0.00     0.001 A 
HETATM   10  C   UNL     1       5.315  26.677  56.733  1.00  0.00     0.010 A 
ENDBRANCH   4   5
BRANCH   4  11
HETATM   11  C   UNL     1       4.486  29.755  56.721  1.00  0.00     0.251 C 
HETATM   12  N   UNL     1       4.954  30.072  57.960  1.00  0.00    -0.368 N 
HETATM   13  H   UNL     1       5.737  29.595  58.394  1.00  0.00     0.159 HD
HETATM   14  H   UNL     1       4.292  30.496  58.605  1.00  0.00     0.159 HD
HETATM   15  O   UNL     1       3.355  30.078  56.358  1.00  0.00    -0.271 OA
ENDBRANCH   4  11
ENDBRANCH   1   4
BRANCH   1  16
HETATM   16  C   UNL     1       5.558  28.237  53.343  1.00  0.00     0.272 C 
BRANCH  16  17
HETATM   17  C   UNL     1       6.079  26.829  53.437  1.00  0.00    -0.033 A 
HETATM   18  C   UNL     1       7.454  26.568  53.518  1.00  0.00     0.010 A 
HETATM   19  C   UNL     1       7.925  25.255  53.638  1.00  0.00     0.013 A 
HETATM   20  C   UNL     1       7.044  24.163  53.706  1.00  0.00    -0.025 A 
HETATM   21  C   UNL     1       5.670  24.438  53.631  1.00  0.00     0.013 A 
HETATM   22  C   UNL     1       5.192  25.747  53.496  1.00  0.00     0.010 A 
BRANCH  20  23
HETATM   23  C   UNL     1       7.543  22.784  53.876  1.00  0.00    -0.008 A 
HETATM   24  C   UNL     1       7.734  22.217  55.139  1.00  0.00     0.128 A 
HETATM   25  N   UNL     1       8.187  20.961  55.370  1.00  0.00    -0.272 NA
HETATM   26  C   UNL     1       8.463  20.208  54.287  1.00  0.00     0.116 A 
HETATM   27  C   UNL     1       8.308  20.657  52.987  1.00  0.00     0.020 A 
HETATM   28  C   UNL     1       7.846  21.958  52.785  1.00  0.00     0.015 A 
ENDBRANCH  20  23
ENDBRANCH  16  17
ENDBRANCH   1  16
TORSDOF 6
ENDMDL
MODEL 5
REMARK VINA RESULT:      -8.7      8.153     11.301
REMARK  6 active torsions:
REMARK  status: ('A' for Active; 'I' for Inactive)
REMARK    1  A    between atoms: C_4  and  C_5 
REMARK    2  A    between atoms: C_5  and  N_6 
REMARK    3  A    between atoms: C_5  and  C_22 
REMARK    4  A    between atoms: N_6  and  C_9 
REMARK    5  A    between atoms: C_9  and  C_10 
REMARK    6  A    between atoms: C_13  and  C_14 
REMARK       I    between atoms: C_22  and  N_23 
ROOT
HETATM    1  N   UNL     1       6.322  24.523  56.122  1.00  0.00    -0.054 N 
HETATM    2  H   UNL     1       5.718  23.775  55.761  1.00  0.00     0.278 HD
HETATM    3  H   UNL     1       6.366  24.404  57.142  1.00  0.00     0.278 HD
ENDROOT
BRANCH   1   4
HETATM    4  C   UNL     1       7.736  24.344  55.620  1.00  0.00     0.310 C 
BRANCH   4   5
HETATM    5  C   UNL     1       7.861  23.026  54.884  1.00  0.00    -0.019 A 
HETATM    6  C   UNL     1       8.049  23.012  53.492  1.00  0.00     0.010 A 
HETATM    7  C   UNL     1       8.154  21.800  52.806  1.00  0.00     0.001 A 
HETATM    8  C   UNL     1       8.064  20.593  53.498  1.00  0.00     0.000 A 
HETATM    9  C   UNL     1       7.868  20.593  54.875  1.00  0.00     0.001 A 
HETATM   10  C   UNL     1       7.764  21.800  55.568  1.00  0.00     0.010 A 
ENDBRANCH   4   5
BRANCH   4  11
HETATM   11  C   UNL     1       8.736  24.432  56.799  1.00  0.00     0.251 C 
HETATM   12  N   UNL     1       8.230  24.598  58.053  1.00  0.00    -0.368 N 
HETATM   13  H   UNL     1       7.308  24.981  58.231  1.00  0.00     0.159 HD
HETATM   14  H   UNL     1       8.903  24.719  58.806  1.00  0.00     0.159 HD
HETATM   15  O   UNL     1       9.945  24.309  56.605  1.00  0.00    -0.271 OA
ENDBRANCH   4  11
ENDBRANCH   1   4
BRANCH   1  16
HETATM   16  C   UNL     1       5.714  25.853  55.847  1.00  0.00     0.272 C 
BRANCH  16  17
HETATM   17  C   UNL     1       5.586  26.127  54.374  1.00  0.00    -0.033 A 
HETATM   18  C   UNL     1       5.019  25.183  53.507  1.00  0.00     0.010 A 
HETATM   19  C   UNL     1       4.875  25.463  52.142  1.00  0.00     0.013 A 
HETATM   20  C   UNL     1       5.267  26.699  51.602  1.00  0.00    -0.025 A 
HETATM   21  C   UNL     1       5.826  27.639  52.481  1.00  0.00     0.013 A 
HETATM   22  C   UNL     1       5.987  27.361  53.844  1.00  0.00     0.010 A 
BRANCH  20  23
HETATM   23  C   UNL     1       5.074  27.006  50.171  1.00  0.00    -0.008 A 
HETATM   24  C   UNL     1       5.472  28.225  49.616  1.00  0.00     0.128 A 
HETATM   25  N   UNL     1       5.327  28.575  48.315  1.00  0.00    -0.272 NA
HETATM   26  C   UNL     1       4.760  27.662  47.502  1.00  0.00     0.116 A 
HETATM   27  C   UNL     1       4.331  26.419  47.934  1.00  0.00     0.020 A 
HETATM   28  C   UNL     1       4.489  26.094  49.282  1.00  0.00     0.015 A 
ENDBRANCH  20  23
ENDBRANCH  16  17
ENDBRANCH   1  16
TORSDOF 6
ENDMDL
MODEL 6
REMARK VINA RESULT:      -8.7      8.470     11.418
REMARK  6 active torsions:
REMARK  status: ('A' for Active; 'I' for Inactive)
REMARK    1  A    between atoms: C_4  and  C_5 
REMARK    2  A    between atoms: C_5  and  N_6 
REMARK    3  A    between atoms: C_5  and  C_22 
REMARK    4  A    between atoms: N_6  and  C_9 
REMARK    5  A    between atoms: C_9  and  C_10 
REMARK    6  A    between atoms: C_13  and  C_14 
REMARK       I    between atoms: C_22  and  N_23 
ROOT
HETATM    1  N   UNL     1       6.043  28.670  52.445  1.00  0.00    -0.054 N 
HETATM    2  H   UNL     1       6.799  28.496  51.774  1.00  0.00     0.278 HD
HETATM    3  H   UNL     1       5.903  29.689  52.480  1.00  0.00     0.278 HD
ENDROOT
BRANCH   1   4
HETATM    4  C   UNL     1       4.744  28.090  51.934  1.00  0.00     0.310 C 
BRANCH   4   5
HETATM    5  C   UNL     1       4.831  27.865  50.439  1.00  0.00    -0.019 A 
HETATM    6  C   UNL     1       4.577  26.592  49.902  1.00  0.00     0.010 A 
HETATM    7  C   UNL     1       4.667  26.376  48.525  1.00  0.00     0.001 A 
HETATM    8  C   UNL     1       5.018  27.421  47.673  1.00  0.00     0.000 A 
HETATM    9  C   UNL     1       5.281  28.685  48.193  1.00  0.00     0.001 A 
HETATM   10  C   UNL     1       5.193  28.909  49.568  1.00  0.00     0.010 A 
ENDBRANCH   4   5
BRANCH   4  11
HETATM   11  C   UNL     1       3.562  29.021  52.300  1.00  0.00     0.251 C 
HETATM   12  N   UNL     1       2.302  28.595  52.008  1.00  0.00    -0.368 N 
HETATM   13  H   UNL     1       2.104  27.891  51.304  1.00  0.00     0.159 HD
HETATM   14  H   UNL     1       1.543  29.245  52.196  1.00  0.00     0.159 HD
HETATM   15  O   UNL     1       3.763  30.089  52.876  1.00  0.00    -0.271 OA
ENDBRANCH   4  11
ENDBRANCH   1   4
BRANCH   1  16
HETATM   16  C   UNL     1       6.447  28.223  53.806  1.00  0.00     0.272 C 
BRANCH  16  17
HETATM   17  C   UNL     1       6.809  26.763  53.841  1.00  0.00    -0.033 A 
HETATM   18  C   UNL     1       7.567  26.179  52.817  1.00  0.00     0.010 A 
HETATM   19  C   UNL     1       7.926  24.827  52.877  1.00  0.00     0.013 A 
HETATM   20  C   UNL     1       7.562  24.019  53.968  1.00  0.00    -0.025 A 
HETATM   21  C   UNL     1       6.808  24.618  54.990  1.00  0.00     0.013 A 
HETATM   22  C   UNL     1       6.434  25.966  54.930  1.00  0.00     0.010 A 
BRANCH  20  23
HETATM   23  C   UNL     1       7.978  22.606  54.048  1.00  0.00    -0.008 A 
HETATM   24  C   UNL     1       8.396  22.025  55.248  1.00  0.00     0.128 A 
HETATM   25  N   UNL     1       8.791  20.737  55.396  1.00  0.00    -0.272 NA
HETATM   26  C   UNL     1       8.764  19.965  54.292  1.00  0.00     0.116 A 
HETATM   27  C   UNL     1       8.364  20.425  53.050  1.00  0.00     0.020 A 
HETATM   28  C   UNL     1       7.971  21.758  52.931  1.00  0.00     0.015 A 
ENDBRANCH  20  23
ENDBRANCH  16  17
ENDBRANCH   1  16
TORSDOF 6
ENDMDL
MODEL 7
REMARK VINA RESULT:      -8.7      3.388      5.560
REMARK  6 active torsions:
REMARK  status: ('A' for Active; 'I' for Inactive)
REMARK    1  A    between atoms: C_4  and  C_5 
REMARK    2  A    between atoms: C_5  and  N_6 
REMARK    3  A    between atoms: C_5  and  C_22 
REMARK    4  A    between atoms: N_6  and  C_9 
REMARK    5  A    between atoms: C_9  and  C_10 
REMARK    6  A    between atoms: C_13  and  C_14 
REMARK       I    between atoms: C_22  and  N_23 
ROOT
HETATM    1  N   UNL     1       6.929  26.733  54.803  1.00  0.00    -0.054 N 
HETATM    2  H   UNL     1       6.652  26.364  53.887  1.00  0.00     0.278 HD
HETATM    3  H   UNL     1       6.063  26.973  55.303  1.00  0.00     0.278 HD
ENDROOT
BRANCH   1   4
HETATM    4  C   UNL     1       7.597  25.652  55.623  1.00  0.00     0.310 C 
BRANCH   4   5
HETATM    5  C   UNL     1       7.739  24.391  54.797  1.00  0.00    -0.019 A 
HETATM    6  C   UNL     1       7.607  24.445  53.400  1.00  0.00     0.010 A 
HETATM    7  C   UNL     1       7.727  23.283  52.634  1.00  0.00     0.001 A 
HETATM    8  C   UNL     1       7.970  22.058  53.252  1.00  0.00     0.000 A 
HETATM    9  C   UNL     1       8.094  21.989  54.636  1.00  0.00     0.001 A 
HETATM   10  C   UNL     1       7.977  23.146  55.408  1.00  0.00     0.010 A 
ENDBRANCH   4   5
BRANCH   4  11
HETATM   11  C   UNL     1       6.793  25.392  56.921  1.00  0.00     0.251 C 
HETATM   12  N   UNL     1       7.452  25.487  58.109  1.00  0.00    -0.368 N 
HETATM   13  H   UNL     1       8.459  25.398  58.192  1.00  0.00     0.159 HD
HETATM   14  H   UNL     1       6.925  25.251  58.946  1.00  0.00     0.159 HD
HETATM   15  O   UNL     1       5.587  25.152  56.871  1.00  0.00    -0.271 OA
ENDBRANCH   4  11
ENDBRANCH   1   4
BRANCH   1  16
HETATM   16  C   UNL     1       7.719  27.984  54.639  1.00  0.00     0.272 C 
BRANCH  16  17
HETATM   17  C   UNL     1       7.815  28.768  55.919  1.00  0.00    -0.033 A 
HETATM   18  C   UNL     1       6.667  29.245  56.566  1.00  0.00     0.010 A 
HETATM   19  C   UNL     1       6.768  29.945  57.774  1.00  0.00     0.013 A 
HETATM   20  C   UNL     1       8.010  30.171  58.390  1.00  0.00    -0.025 A 
HETATM   21  C   UNL     1       9.152  29.682  57.736  1.00  0.00     0.013 A 
HETATM   22  C   UNL     1       9.060  28.993  56.520  1.00  0.00     0.010 A 
BRANCH  20  23
HETATM   23  C   UNL     1       8.108  30.871  59.685  1.00  0.00    -0.008 A 
HETATM   24  C   UNL     1       7.166  31.823  60.085  1.00  0.00     0.128 A 
HETATM   25  N   UNL     1       7.193  32.503  61.257  1.00  0.00    -0.272 NA
HETATM   26  C   UNL     1       8.209  32.223  62.096  1.00  0.00     0.116 A 
HETATM   27  C   UNL     1       9.198  31.298  61.814  1.00  0.00     0.020 A 
HETATM   28  C   UNL     1       9.145  30.620  60.595  1.00  0.00     0.015 A 
ENDBRANCH  20  23
ENDBRANCH  16  17
ENDBRANCH   1  16
TORSDOF 6
ENDMDL
MODEL 8
REMARK VINA RESULT:      -8.7      4.051      6.865
REMARK  6 active torsions:
REMARK  status: ('A' for Active; 'I' for Inactive)
REMARK    1  A    between atoms: C_4  and  C_5 
REMARK    2  A    between atoms: C_5  and  N_6 
REMARK    3  A    between atoms: C_5  and  C_22 
REMARK    4  A    between atoms: N_6  and  C_9 
REMARK    5  A    between atoms: C_9  and  C_10 
REMARK    6  A    between atoms: C_13  and  C_14 
REMARK       I    between atoms: C_22  and  N_23 
ROOT
HETATM    1  N   UNL     1       6.662  24.912  55.392  1.00  0.00    -0.054 N 
HETATM    2  H   UNL     1       6.457  24.286  56.178  1.00  0.00     0.278 HD
HETATM    3  H   UNL     1       7.650  25.185  55.478  1.00  0.00     0.278 HD
ENDROOT
BRANCH   1   4
HETATM    4  C   UNL     1       6.549  24.166  54.082  1.00  0.00     0.310 C 
BRANCH   4   5
HETATM    5  C   UNL     1       7.297  22.852  54.170  1.00  0.00    -0.019 A 
HETATM    6  C   UNL     1       7.676  22.177  52.997  1.00  0.00     0.010 A 
HETATM    7  C   UNL     1       8.357  20.960  53.072  1.00  0.00     0.001 A 
HETATM    8  C   UNL     1       8.658  20.400  54.311  1.00  0.00     0.000 A 
HETATM    9  C   UNL     1       8.280  21.053  55.481  1.00  0.00     0.001 A 
HETATM   10  C   UNL     1       7.601  22.270  55.414  1.00  0.00     0.010 A 
ENDBRANCH   4   5
BRANCH   4  11
HETATM   11  C   UNL     1       7.076  25.042  52.920  1.00  0.00     0.251 C 
HETATM   12  N   UNL     1       6.217  25.341  51.906  1.00  0.00    -0.368 N 
HETATM   13  H   UNL     1       5.393  24.788  51.698  1.00  0.00     0.159 HD
HETATM   14  H   UNL     1       6.599  25.862  51.121  1.00  0.00     0.159 HD
HETATM   15  O   UNL     1       8.223  25.487  52.943  1.00  0.00    -0.271 OA
ENDBRANCH   4  11
ENDBRANCH   1   4
BRANCH   1  16
HETATM   16  C   UNL     1       5.841  26.150  55.491  1.00  0.00     0.272 C 
BRANCH  16  17
HETATM   17  C   UNL     1       6.535  27.232  56.270  1.00  0.00    -0.033 A 
HETATM   18  C   UNL     1       5.841  28.364  56.718  1.00  0.00     0.010 A 
HETATM   19  C   UNL     1       6.491  29.349  57.472  1.00  0.00     0.013 A 
HETATM   20  C   UNL     1       7.845  29.228  57.824  1.00  0.00    -0.025 A 
HETATM   21  C   UNL     1       8.529  28.087  57.376  1.00  0.00     0.013 A 
HETATM   22  C   UNL     1       7.888  27.104  56.610  1.00  0.00     0.010 A 
BRANCH  20  23
HETATM   23  C   UNL     1       8.516  30.247  58.654  1.00  0.00    -0.008 A 
HETATM   24  C   UNL     1       9.419  31.166  58.112  1.00  0.00     0.128 A 
HETATM   25  N   UNL     1      10.070  32.126  58.813  1.00  0.00    -0.272 NA
HETATM   26  C   UNL     1       9.809  32.195  60.133  1.00  0.00     0.116 A 
HETATM   27  C   UNL     1       8.930  31.345  60.781  1.00  0.00     0.020 A 
HETATM   28  C   UNL     1       8.282  30.363  60.032  1.00  0.00     0.015 A 
ENDBRANCH  20  23
ENDBRANCH  16  17
ENDBRANCH   1  16
TORSDOF 6
ENDMDL
MODEL 9
REMARK VINA RESULT:      -8.6     10.067     12.072
REMARK  6 active torsions:
REMARK  status: ('A' for Active; 'I' for Inactive)
REMARK    1  A    between atoms: C_4  and  C_5 
REMARK    2  A    between atoms: C_5  and  N_6 
REMARK    3  A    between atoms: C_5  and  C_22 
REMARK    4  A    between atoms: N_6  and  C_9 
REMARK    5  A    between atoms: C_9  and  C_10 
REMARK    6  A    between atoms: C_13  and  C_14 
REMARK       I    between atoms: C_22  and  N_23 
ROOT
HETATM    1  N   UNL     1       4.790  26.659  50.807  1.00  0.00    -0.054 N 
HETATM    2  H   UNL     1       4.077  26.046  51.217  1.00  0.00     0.278 HD
HETATM    3  H   UNL     1       5.203  26.148  50.016  1.00  0.00     0.278 HD
ENDROOT
BRANCH   1   4
HETATM    4  C   UNL     1       4.147  27.892  50.217  1.00  0.00     0.310 C 
BRANCH   4   5
HETATM    5  C   UNL     1       3.237  27.502  49.070  1.00  0.00    -0.019 A 
HETATM    6  C   UNL     1       3.466  26.311  48.363  1.00  0.00     0.010 A 
HETATM    7  C   UNL     1       2.637  25.951  47.298  1.00  0.00     0.001 A 
HETATM    8  C   UNL     1       1.579  26.777  46.923  1.00  0.00     0.000 A 
HETATM    9  C   UNL     1       1.347  27.965  47.609  1.00  0.00     0.001 A 
HETATM   10  C   UNL     1       2.170  28.330  48.675  1.00  0.00     0.010 A 
ENDBRANCH   4   5
BRANCH   4  11
HETATM   11  C   UNL     1       5.234  28.896  49.761  1.00  0.00     0.251 C 
HETATM   12  N   UNL     1       5.424  30.015  50.514  1.00  0.00    -0.368 N 
HETATM   13  H   UNL     1       4.718  30.388  51.139  1.00  0.00     0.159 HD
HETATM   14  H   UNL     1       6.096  30.694  50.165  1.00  0.00     0.159 HD
HETATM   15  O   UNL     1       5.929  28.659  48.773  1.00  0.00    -0.271 OA
ENDBRANCH   4  11
ENDBRANCH   1   4
BRANCH   1  16
HETATM   16  C   UNL     1       5.875  26.918  51.793  1.00  0.00     0.272 C 
BRANCH  16  17
HETATM   17  C   UNL     1       6.357  25.655  52.454  1.00  0.00    -0.033 A 
HETATM   18  C   UNL     1       7.404  24.903  51.905  1.00  0.00     0.010 A 
HETATM   19  C   UNL     1       7.866  23.747  52.547  1.00  0.00     0.013 A 
HETATM   20  C   UNL     1       7.318  23.317  53.766  1.00  0.00    -0.025 A 
HETATM   21  C   UNL     1       6.274  24.083  54.310  1.00  0.00     0.013 A 
HETATM   22  C   UNL     1       5.798  25.232  53.666  1.00  0.00     0.010 A 
BRANCH  20  23
HETATM   23  C   UNL     1       7.836  22.123  54.462  1.00  0.00    -0.008 A 
HETATM   24  C   UNL     1       8.312  21.009  53.764  1.00  0.00     0.128 A 
HETATM   25  N   UNL     1       8.801  19.882  54.335  1.00  0.00    -0.272 NA
HETATM   26  C   UNL     1       8.833  19.850  55.681  1.00  0.00     0.116 A 
HETATM   27  C   UNL     1       8.397  20.892  56.480  1.00  0.00     0.020 A 
HETATM   28  C   UNL     1       7.892  22.036  55.860  1.00  0.00     0.015 A 
ENDBRANCH  20  23
ENDBRANCH  16  17
ENDBRANCH   1  16
TORSDOF 6
ENDMDL
MODEL 10
REMARK VINA RESULT:      -8.6      4.954     10.327
REMARK  6 active torsions:
REMARK  status: ('A' for Active; 'I' for Inactive)
REMARK    1  A    between atoms: C_4  and  C_5 
REMARK    2  A    between atoms: C_5  and  N_6 
REMARK    3  A    between atoms: C_5  and  C_22 
REMARK    4  A    between atoms: N_6  and  C_9 
REMARK    5  A    between atoms: C_9  and  C_10 
REMARK    6  A    between atoms: C_13  and  C_14 
REMARK       I    between atoms: C_22  and  N_23 
ROOT
HETATM    1  N   UNL     1       5.159  28.231  56.409  1.00  0.00    -0.054 N 
HETATM    2  H   UNL     1       5.768  27.619  56.963  1.00  0.00     0.278 HD
HETATM    3  H   UNL     1       4.257  28.279  56.899  1.00  0.00     0.278 HD
ENDROOT
BRANCH   1   4
HETATM    4  C   UNL     1       5.703  29.642  56.398  1.00  0.00     0.310 C 
BRANCH   4   5
HETATM    5  C   UNL     1       7.165  29.635  56.794  1.00  0.00    -0.019 A 
HETATM    6  C   UNL     1       7.544  30.009  58.094  1.00  0.00     0.010 A 
HETATM    7  C   UNL     1       8.891  30.015  58.462  1.00  0.00     0.001 A 
HETATM    8  C   UNL     1       9.872  29.659  57.538  1.00  0.00     0.000 A 
HETATM    9  C   UNL     1       9.510  29.297  56.244  1.00  0.00     0.001 A 
HETATM   10  C   UNL     1       8.166  29.286  55.870  1.00  0.00     0.010 A 
ENDBRANCH   4   5
BRANCH   4  11
HETATM   11  C   UNL     1       4.865  30.544  57.336  1.00  0.00     0.251 C 
HETATM   12  N   UNL     1       4.079  29.938  58.269  1.00  0.00    -0.368 N 
HETATM   13  H   UNL     1       3.762  28.978  58.187  1.00  0.00     0.159 HD
HETATM   14  H   UNL     1       3.488  30.543  58.834  1.00  0.00     0.159 HD
HETATM   15  O   UNL     1       4.947  31.770  57.263  1.00  0.00    -0.271 OA
ENDBRANCH   4  11
ENDBRANCH   1   4
BRANCH   1  16
HETATM   16  C   UNL     1       4.912  27.635  55.067  1.00  0.00     0.272 C 
BRANCH  16  17
HETATM   17  C   UNL     1       5.636  26.329  54.883  1.00  0.00    -0.033 A 
HETATM   18  C   UNL     1       6.410  25.777  55.913  1.00  0.00     0.010 A 
HETATM   19  C   UNL     1       7.052  24.545  55.742  1.00  0.00     0.013 A 
HETATM   20  C   UNL     1       6.925  23.811  54.551  1.00  0.00    -0.025 A 
HETATM   21  C   UNL     1       6.141  24.371  53.529  1.00  0.00     0.013 A 
HETATM   22  C   UNL     1       5.507  25.610  53.688  1.00  0.00     0.010 A 
BRANCH  20  23
HETATM   23  C   UNL     1       7.568  22.493  54.390  1.00  0.00    -0.008 A 
HETATM   24  C   UNL     1       7.957  21.720  55.488  1.00  0.00     0.128 A 
HETATM   25  N   UNL     1       8.550  20.504  55.415  1.00  0.00    -0.272 NA
HETATM   26  C   UNL     1       8.768  20.009  54.181  1.00  0.00     0.116 A 
HETATM   27  C   UNL     1       8.421  20.677  53.020  1.00  0.00     0.020 A 
HETATM   28  C   UNL     1       7.819  21.931  53.130  1.00  0.00     0.015 A 
ENDBRANCH  20  23
ENDBRANCH  16  17
ENDBRANCH   1  16
TORSDOF 6
ENDMDL
