MODEL 1
REMARK VINA RESULT:      -9.4      0.000      0.000
REMARK  4 active torsions:
REMARK  status: ('A' for Active; 'I' for Inactive)
REMARK    1  A    between atoms: O_2  and  C_3 
REMARK    2  A    between atoms: C_5  and  O_6 
REMARK    3  A    between atoms: C_8  and  C_9 
REMARK    4  A    between atoms: C_20  and  N_21 
ROOT
HETATM    1  C   UNL     1       7.084  26.953  54.998  1.00  0.00    -0.022 A 
HETATM    2  C   UNL     1       8.066  27.700  55.664  1.00  0.00     0.031 A 
HETATM    3  C   UNL     1       7.773  28.937  56.272  1.00  0.00     0.059 A 
HETATM    4  C   UNL     1       6.463  29.439  56.231  1.00  0.00     0.050 A 
HETATM    5  N   UNL     1       5.977  30.580  56.903  1.00  0.00    -0.324 N 
HETATM    6  C   UNL     1       6.407  31.104  58.087  1.00  0.00     0.247 C 
HETATM    7  O   UNL     1       5.691  31.900  58.700  1.00  0.00    -0.271 OA
HETATM    8  C   UNL     1       7.634  30.516  58.756  1.00  0.00     0.210 C 
HETATM    9  N   UNL     1       8.776  30.522  57.870  1.00  0.00    -0.332 N 
HETATM   10  C   UNL     1       8.943  29.691  56.789  1.00  0.00     0.256 C 
HETATM   11  O   UNL     1      10.035  29.557  56.245  1.00  0.00    -0.267 OA
HETATM   12  C   UNL     1       8.071  31.398  59.946  1.00  0.00     0.217 C 
HETATM   13  C   UNL     1       9.596  31.363  59.892  1.00  0.00     0.055 C 
HETATM   14  C   UNL     1       9.870  31.319  58.397  1.00  0.00     0.129 C 
HETATM   15  C   UNL     1       5.505  28.744  55.481  1.00  0.00     0.031 A 
HETATM   16  C   UNL     1       5.810  27.519  54.882  1.00  0.00     0.014 A 
HETATM   17  H   UNL     1       5.058  30.920  56.632  1.00  0.00     0.169 HD
ENDROOT
BRANCH   1  18
HETATM   18  C   UNL     1       7.382  25.620  54.434  1.00  0.00     0.008 A 
HETATM   19  C   UNL     1       7.510  24.469  55.247  1.00  0.00     0.082 A 
HETATM   20  C   UNL     1       7.798  23.229  54.663  1.00  0.00     0.074 A 
HETATM   21  C   UNL     1       7.944  23.099  53.279  1.00  0.00     0.070 A 
HETATM   22  C   UNL     1       7.825  24.225  52.471  1.00  0.00     0.038 A 
HETATM   23  C   UNL     1       7.548  25.470  53.044  1.00  0.00     0.018 A 
BRANCH  19  24
HETATM   24  O   UNL     1       7.381  24.654  56.603  1.00  0.00    -0.355 OA
HETATM   25  C   UNL     1       8.539  24.426  57.398  1.00  0.00     0.210 C 
ENDBRANCH  19  24
BRANCH  21  26
HETATM   26  O   UNL     1       8.212  21.827  52.853  1.00  0.00    -0.356 OA
HETATM   27  C   UNL     1       7.854  20.767  53.732  1.00  0.00     0.210 C 
ENDBRANCH  21  26
ENDBRANCH   1  18
BRANCH  12  28
HETATM   28  N   UNL     1       7.598  30.871  61.258  1.00  0.00    -0.072 N 
HETATM   29  H   UNL     1       6.867  31.485  61.651  1.00  0.00     0.274 HD
HETATM   30  H   UNL     1       7.214  29.918  61.199  1.00  0.00     0.274 HD
HETATM   31  H   UNL     1       8.362  30.851  61.949  1.00  0.00     0.274 HD
ENDBRANCH  12  28
TORSDOF 4
ENDMDL
MODEL 2
REMARK VINA RESULT:      -9.3      1.071      1.833
REMARK  4 active torsions:
REMARK  status: ('A' for Active; 'I' for Inactive)
REMARK    1  A    between atoms: O_2  and  C_3 
REMARK    2  A    between atoms: C_5  and  O_6 
REMARK    3  A    between atoms: C_8  and  C_9 
REMARK    4  A    between atoms: C_20  and  N_21 
ROOT
HETATM    1  C   UNL     1       7.232  26.344  55.688  1.00  0.00    -0.022 A 
HETATM    2  C   UNL     1       8.173  27.172  56.315  1.00  0.00     0.031 A 
HETATM    3  C   UNL     1       7.859  28.487  56.712  1.00  0.00     0.059 A 
HETATM    4  C   UNL     1       6.567  28.989  56.492  1.00  0.00     0.050 A 
HETATM    5  N   UNL     1       6.053  30.221  56.950  1.00  0.00    -0.324 N 
HETATM    6  C   UNL     1       6.399  30.908  58.076  1.00  0.00     0.247 C 
HETATM    7  O   UNL     1       5.653  31.792  58.508  1.00  0.00    -0.271 OA
HETATM    8  C   UNL     1       7.557  30.413  58.921  1.00  0.00     0.210 C 
HETATM    9  N   UNL     1       8.765  30.280  58.140  1.00  0.00    -0.332 N 
HETATM   10  C   UNL     1       8.999  29.298  57.207  1.00  0.00     0.256 C 
HETATM   11  O   UNL     1      10.129  29.077  56.779  1.00  0.00    -0.267 OA
HETATM   12  C   UNL     1       7.916  31.456  60.002  1.00  0.00     0.217 C 
HETATM   13  C   UNL     1       9.439  31.400  60.077  1.00  0.00     0.055 C 
HETATM   14  C   UNL     1       9.830  31.136  58.632  1.00  0.00     0.129 C 
HETATM   15  C   UNL     1       5.657  28.201  55.776  1.00  0.00     0.031 A 
HETATM   16  C   UNL     1       5.983  26.898  55.387  1.00  0.00     0.014 A 
HETATM   17  H   UNL     1       5.165  30.526  56.559  1.00  0.00     0.169 HD
ENDROOT
BRANCH   1  18
HETATM   18  C   UNL     1       7.546  24.940  55.349  1.00  0.00     0.008 A 
HETATM   19  C   UNL     1       7.894  24.541  54.037  1.00  0.00     0.082 A 
HETATM   20  C   UNL     1       8.179  23.197  53.767  1.00  0.00     0.074 A 
HETATM   21  C   UNL     1       8.147  22.235  54.780  1.00  0.00     0.070 A 
HETATM   22  C   UNL     1       7.801  22.615  56.072  1.00  0.00     0.038 A 
HETATM   23  C   UNL     1       7.504  23.953  56.351  1.00  0.00     0.018 A 
BRANCH  19  24
HETATM   24  O   UNL     1       7.890  25.521  53.072  1.00  0.00    -0.355 OA
HETATM   25  C   UNL     1       7.040  25.316  51.949  1.00  0.00     0.210 C 
ENDBRANCH  19  24
BRANCH  21  26
HETATM   26  O   UNL     1       8.458  20.967  54.370  1.00  0.00    -0.356 OA
HETATM   27  C   UNL     1       8.245  20.667  52.996  1.00  0.00     0.210 C 
ENDBRANCH  21  26
ENDBRANCH   1  18
BRANCH  12  28
HETATM   28  N   UNL     1       7.331  31.131  61.334  1.00  0.00    -0.072 N 
HETATM   29  H   UNL     1       7.492  30.138  61.566  1.00  0.00     0.274 HD
HETATM   30  H   UNL     1       7.717  31.702  62.098  1.00  0.00     0.274 HD
HETATM   31  H   UNL     1       6.310  31.266  61.336  1.00  0.00     0.274 HD
ENDBRANCH  12  28
TORSDOF 4
ENDMDL
MODEL 3
REMARK VINA RESULT:      -9.0      4.004     10.047
REMARK  4 active torsions:
REMARK  status: ('A' for Active; 'I' for Inactive)
REMARK    1  A    between atoms: O_2  and  C_3 
REMARK    2  A    between atoms: C_5  and  O_6 
REMARK    3  A    between atoms: C_8  and  C_9 
REMARK    4  A    between atoms: C_20  and  N_21 
ROOT
HETATM    1  C   UNL     1       7.325  32.089  62.197  1.00  0.00    -0.022 A 
HETATM    2  C   UNL     1       6.644  32.177  60.975  1.00  0.00     0.031 A 
HETATM    3  C   UNL     1       7.100  31.509  59.820  1.00  0.00     0.059 A 
HETATM    4  C   UNL     1       8.258  30.718  59.887  1.00  0.00     0.050 A 
HETATM    5  N   UNL     1       8.764  29.881  58.870  1.00  0.00    -0.324 N 
HETATM    6  C   UNL     1       8.067  29.222  57.901  1.00  0.00     0.247 C 
HETATM    7  O   UNL     1       8.599  28.289  57.292  1.00  0.00    -0.271 OA
HETATM    8  C   UNL     1       6.579  29.472  57.757  1.00  0.00     0.210 C 
HETATM    9  N   UNL     1       6.291  30.877  57.580  1.00  0.00    -0.332 N 
HETATM   10  C   UNL     1       6.377  31.831  58.564  1.00  0.00     0.256 C 
HETATM   11  O   UNL     1       5.867  32.940  58.429  1.00  0.00    -0.267 OA
HETATM   12  C   UNL     1       6.046  28.809  56.468  1.00  0.00     0.217 C 
HETATM   13  C   UNL     1       5.018  29.805  55.938  1.00  0.00     0.055 C 
HETATM   14  C   UNL     1       5.634  31.143  56.312  1.00  0.00     0.129 C 
HETATM   15  C   UNL     1       8.993  30.709  61.079  1.00  0.00     0.031 A 
HETATM   16  C   UNL     1       8.530  31.378  62.215  1.00  0.00     0.014 A 
HETATM   17  H   UNL     1       9.704  29.514  58.999  1.00  0.00     0.169 HD
ENDROOT
BRANCH   1  18
HETATM   18  C   UNL     1       6.795  32.726  63.421  1.00  0.00     0.008 A 
HETATM   19  C   UNL     1       5.412  32.747  63.721  1.00  0.00     0.082 A 
HETATM   20  C   UNL     1       4.960  33.368  64.892  1.00  0.00     0.074 A 
HETATM   21  C   UNL     1       5.856  33.956  65.789  1.00  0.00     0.070 A 
HETATM   22  C   UNL     1       7.217  33.946  65.501  1.00  0.00     0.038 A 
HETATM   23  C   UNL     1       7.678  33.337  64.329  1.00  0.00     0.018 A 
BRANCH  19  24
HETATM   24  O   UNL     1       4.571  32.175  62.796  1.00  0.00    -0.355 OA
HETATM   25  C   UNL     1       3.490  32.974  62.326  1.00  0.00     0.210 C 
ENDBRANCH  19  24
BRANCH  21  26
HETATM   26  O   UNL     1       5.272  34.514  66.893  1.00  0.00    -0.356 OA
HETATM   27  C   UNL     1       6.027  34.493  68.098  1.00  0.00     0.210 C 
ENDBRANCH  21  26
ENDBRANCH   1  18
BRANCH  12  28
HETATM   28  N   UNL     1       5.391  27.493  56.724  1.00  0.00    -0.072 N 
HETATM   29  H   UNL     1       4.424  27.631  57.056  1.00  0.00     0.274 HD
HETATM   30  H   UNL     1       5.359  26.887  55.893  1.00  0.00     0.274 HD
HETATM   31  H   UNL     1       5.881  26.972  57.465  1.00  0.00     0.274 HD
ENDBRANCH  12  28
TORSDOF 4
ENDMDL
MODEL 4
REMARK VINA RESULT:      -8.2      4.810      8.189
REMARK  4 active torsions:
REMARK  status: ('A' for Active; 'I' for Inactive)
REMARK    1  A    between atoms: O_2  and  C_3 
REMARK    2  A    between atoms: C_5  and  O_6 
REMARK    3  A    between atoms: C_8  and  C_9 
REMARK    4  A    between atoms: C_20  and  N_21 
ROOT
HETATM    1  C   UNL     1       6.785  27.542  53.729  1.00  0.00    -0.022 A 
HETATM    2  C   UNL     1       6.242  28.435  52.795  1.00  0.00     0.031 A 
HETATM    3  C   UNL     1       5.804  28.008  51.525  1.00  0.00     0.059 A 
HETATM    4  C   UNL     1       5.893  26.651  51.180  1.00  0.00     0.050 A 
HETATM    5  N   UNL     1       5.375  26.043  50.017  1.00  0.00    -0.324 N 
HETATM    6  C   UNL     1       4.281  26.413  49.292  1.00  0.00     0.247 C 
HETATM    7  O   UNL     1       3.770  25.613  48.502  1.00  0.00    -0.271 OA
HETATM    8  C   UNL     1       3.556  27.698  49.646  1.00  0.00     0.210 C 
HETATM    9  N   UNL     1       4.452  28.832  49.636  1.00  0.00    -0.332 N 
HETATM   10  C   UNL     1       5.413  29.088  50.585  1.00  0.00     0.256 C 
HETATM   11  O   UNL     1       5.950  30.189  50.672  1.00  0.00    -0.267 OA
HETATM   12  C   UNL     1       2.505  28.035  48.566  1.00  0.00     0.217 C 
HETATM   13  C   UNL     1       2.577  29.554  48.441  1.00  0.00     0.055 C 
HETATM   14  C   UNL     1       4.056  29.831  48.660  1.00  0.00     0.129 C 
HETATM   15  C   UNL     1       6.526  25.775  52.071  1.00  0.00     0.031 A 
HETATM   16  C   UNL     1       6.957  26.212  53.326  1.00  0.00     0.014 A 
HETATM   17  H   UNL     1       5.676  25.092  49.819  1.00  0.00     0.169 HD
ENDROOT
BRANCH   1  18
HETATM   18  C   UNL     1       7.166  27.985  55.086  1.00  0.00     0.008 A 
HETATM   19  C   UNL     1       6.434  27.605  56.236  1.00  0.00     0.082 A 
HETATM   20  C   UNL     1       6.835  28.056  57.500  1.00  0.00     0.074 A 
HETATM   21  C   UNL     1       7.965  28.864  57.653  1.00  0.00     0.070 A 
HETATM   22  C   UNL     1       8.689  29.247  56.529  1.00  0.00     0.038 A 
HETATM   23  C   UNL     1       8.292  28.811  55.261  1.00  0.00     0.018 A 
BRANCH  19  24
HETATM   24  O   UNL     1       5.318  26.830  56.029  1.00  0.00    -0.355 OA
HETATM   25  C   UNL     1       5.206  25.641  56.804  1.00  0.00     0.210 C 
ENDBRANCH  19  24
BRANCH  21  26
HETATM   26  O   UNL     1       8.241  29.216  58.946  1.00  0.00    -0.356 OA
HETATM   27  C   UNL     1       8.486  30.595  59.197  1.00  0.00     0.210 C 
ENDBRANCH  21  26
ENDBRANCH   1  18
BRANCH  12  28
HETATM   28  N   UNL     1       1.125  27.623  48.957  1.00  0.00    -0.072 N 
HETATM   29  H   UNL     1       1.159  26.922  49.714  1.00  0.00     0.274 HD
HETATM   30  H   UNL     1       0.543  28.409  49.277  1.00  0.00     0.274 HD
HETATM   31  H   UNL     1       0.633  27.177  48.170  1.00  0.00     0.274 HD
ENDBRANCH  12  28
TORSDOF 4
ENDMDL
MODEL 5
REMARK VINA RESULT:      -8.2      2.874      7.867
REMARK  4 active torsions:
REMARK  status: ('A' for Active; 'I' for Inactive)
REMARK    1  A    between atoms: O_2  and  C_3 
REMARK    2  A    between atoms: C_5  and  O_6 
REMARK    3  A    between atoms: C_8  and  C_9 
REMARK    4  A    between atoms: C_20  and  N_21 
ROOT
HETATM    1  C   UNL     1       6.603  28.884  57.091  1.00  0.00    -0.022 A 
HETATM    2  C   UNL     1       7.031  27.550  57.052  1.00  0.00     0.031 A 
HETATM    3  C   UNL     1       6.431  26.602  56.198  1.00  0.00     0.059 A 
HETATM    4  C   UNL     1       5.386  26.994  55.348  1.00  0.00     0.050 A 
HETATM    5  N   UNL     1       4.779  26.211  54.344  1.00  0.00    -0.324 N 
HETATM    6  C   UNL     1       5.341  25.213  53.603  1.00  0.00     0.247 C 
HETATM    7  O   UNL     1       4.794  24.843  52.560  1.00  0.00    -0.271 OA
HETATM    8  C   UNL     1       6.746  24.747  53.930  1.00  0.00     0.210 C 
HETATM    9  N   UNL     1       6.864  24.342  55.313  1.00  0.00    -0.332 N 
HETATM   10  C   UNL     1       6.874  25.197  56.388  1.00  0.00     0.256 C 
HETATM   11  O   UNL     1       7.244  24.825  57.499  1.00  0.00    -0.267 OA
HETATM   12  C   UNL     1       7.088  23.472  53.130  1.00  0.00     0.217 C 
HETATM   13  C   UNL     1       7.901  22.629  54.108  1.00  0.00     0.055 C 
HETATM   14  C   UNL     1       7.243  22.946  55.441  1.00  0.00     0.129 C 
HETATM   15  C   UNL     1       4.891  28.300  55.458  1.00  0.00     0.031 A 
HETATM   16  C   UNL     1       5.494  29.229  56.310  1.00  0.00     0.014 A 
HETATM   17  H   UNL     1       3.918  26.567  53.937  1.00  0.00     0.169 HD
ENDROOT
BRANCH   1  18
HETATM   18  C   UNL     1       7.290  29.889  57.928  1.00  0.00     0.008 A 
HETATM   19  C   UNL     1       8.700  29.955  58.021  1.00  0.00     0.082 A 
HETATM   20  C   UNL     1       9.303  30.924  58.833  1.00  0.00     0.074 A 
HETATM   21  C   UNL     1       8.534  31.848  59.545  1.00  0.00     0.070 A 
HETATM   22  C   UNL     1       7.147  31.789  59.466  1.00  0.00     0.038 A 
HETATM   23  C   UNL     1       6.534  30.819  58.666  1.00  0.00     0.018 A 
BRANCH  19  24
HETATM   24  O   UNL     1       9.410  29.009  57.319  1.00  0.00    -0.355 OA
HETATM   25  C   UNL     1      10.556  29.460  56.606  1.00  0.00     0.210 C 
ENDBRANCH  19  24
BRANCH  21  26
HETATM   26  O   UNL     1       9.261  32.741  60.285  1.00  0.00    -0.356 OA
HETATM   27  C   UNL     1       9.770  32.277  61.530  1.00  0.00     0.210 C 
ENDBRANCH  21  26
ENDBRANCH   1  18
BRANCH  12  28
HETATM   28  N   UNL     1       7.899  23.756  51.911  1.00  0.00    -0.072 N 
HETATM   29  H   UNL     1       7.303  23.729  51.068  1.00  0.00     0.274 HD
HETATM   30  H   UNL     1       8.368  24.671  51.939  1.00  0.00     0.274 HD
HETATM   31  H   UNL     1       8.628  23.042  51.774  1.00  0.00     0.274 HD
ENDBRANCH  12  28
TORSDOF 4
ENDMDL
MODEL 6
REMARK VINA RESULT:      -8.0      2.116      3.820
REMARK  4 active torsions:
REMARK  status: ('A' for Active; 'I' for Inactive)
REMARK    1  A    between atoms: O_2  and  C_3 
REMARK    2  A    between atoms: C_5  and  O_6 
REMARK    3  A    between atoms: C_8  and  C_9 
REMARK    4  A    between atoms: C_20  and  N_21 
ROOT
HETATM    1  C   UNL     1       7.226  26.479  56.047  1.00  0.00    -0.022 A 
HETATM    2  C   UNL     1       6.039  27.212  55.903  1.00  0.00     0.031 A 
HETATM    3  C   UNL     1       5.805  28.398  56.628  1.00  0.00     0.059 A 
HETATM    4  C   UNL     1       6.785  28.878  57.510  1.00  0.00     0.050 A 
HETATM    5  N   UNL     1       6.768  30.110  58.198  1.00  0.00    -0.324 N 
HETATM    6  C   UNL     1       6.189  31.282  57.807  1.00  0.00     0.247 C 
HETATM    7  O   UNL     1       6.524  32.340  58.347  1.00  0.00    -0.271 OA
HETATM    8  C   UNL     1       5.336  31.306  56.554  1.00  0.00     0.210 C 
HETATM    9  N   UNL     1       4.273  30.329  56.615  1.00  0.00    -0.332 N 
HETATM   10  C   UNL     1       4.441  28.970  56.500  1.00  0.00     0.256 C 
HETATM   11  O   UNL     1       3.490  28.222  56.290  1.00  0.00    -0.267 OA
HETATM   12  C   UNL     1       4.602  32.659  56.431  1.00  0.00     0.217 C 
HETATM   13  C   UNL     1       3.230  32.286  55.877  1.00  0.00     0.055 C 
HETATM   14  C   UNL     1       2.961  30.946  56.543  1.00  0.00     0.129 C 
HETATM   15  C   UNL     1       7.927  28.096  57.730  1.00  0.00     0.031 A 
HETATM   16  C   UNL     1       8.145  26.921  57.006  1.00  0.00     0.014 A 
HETATM   17  H   UNL     1       7.455  30.237  58.937  1.00  0.00     0.169 HD
ENDROOT
BRANCH   1  18
HETATM   18  C   UNL     1       7.496  25.282  55.224  1.00  0.00     0.008 A 
HETATM   19  C   UNL     1       7.565  25.339  53.812  1.00  0.00     0.082 A 
HETATM   20  C   UNL     1       7.819  24.174  53.077  1.00  0.00     0.074 A 
HETATM   21  C   UNL     1       8.028  22.949  53.716  1.00  0.00     0.070 A 
HETATM   22  C   UNL     1       7.957  22.881  55.103  1.00  0.00     0.038 A 
HETATM   23  C   UNL     1       7.693  24.036  55.847  1.00  0.00     0.018 A 
BRANCH  19  24
HETATM   24  O   UNL     1       7.329  26.563  53.231  1.00  0.00    -0.355 OA
HETATM   25  C   UNL     1       6.334  26.614  52.215  1.00  0.00     0.210 C 
ENDBRANCH  19  24
BRANCH  21  26
HETATM   26  O   UNL     1       8.276  21.902  52.870  1.00  0.00    -0.356 OA
HETATM   27  C   UNL     1       7.883  20.610  53.317  1.00  0.00     0.210 C 
ENDBRANCH  21  26
ENDBRANCH   1  18
BRANCH  12  28
HETATM   28  N   UNL     1       5.285  33.603  55.499  1.00  0.00    -0.072 N 
HETATM   29  H   UNL     1       5.683  34.399  56.021  1.00  0.00     0.274 HD
HETATM   30  H   UNL     1       6.044  33.164  54.961  1.00  0.00     0.274 HD
HETATM   31  H   UNL     1       4.621  34.003  54.822  1.00  0.00     0.274 HD
ENDBRANCH  12  28
TORSDOF 4
ENDMDL
MODEL 7
REMARK VINA RESULT:      -7.9      3.536      4.349
REMARK  4 active torsions:
REMARK  status: ('A' for Active; 'I' for Inactive)
REMARK    1  A    between atoms: O_2  and  C_3 
REMARK    2  A    between atoms: C_5  and  O_6 
REMARK    3  A    between atoms: C_8  and  C_9 
REMARK    4  A    between atoms: C_20  and  N_21 
ROOT
HETATM    1  C   UNL     1       5.912  25.902  55.091  1.00  0.00    -0.022 A 
HETATM    2  C   UNL     1       5.407  26.824  54.163  1.00  0.00     0.031 A 
HETATM    3  C   UNL     1       4.635  27.933  54.562  1.00  0.00     0.059 A 
HETATM    4  C   UNL     1       4.370  28.142  55.924  1.00  0.00     0.050 A 
HETATM    5  N   UNL     1       3.740  29.267  56.497  1.00  0.00    -0.324 N 
HETATM    6  C   UNL     1       3.748  30.554  56.045  1.00  0.00     0.247 C 
HETATM    7  O   UNL     1       3.430  31.472  56.806  1.00  0.00    -0.271 OA
HETATM    8  C   UNL     1       4.384  30.866  54.704  1.00  0.00     0.210 C 
HETATM    9  N   UNL     1       3.809  30.067  53.645  1.00  0.00    -0.332 N 
HETATM   10  C   UNL     1       4.029  28.723  53.461  1.00  0.00     0.256 C 
HETATM   11  O   UNL     1       3.739  28.165  52.406  1.00  0.00    -0.267 OA
HETATM   12  C   UNL     1       4.077  32.322  54.290  1.00  0.00     0.217 C 
HETATM   13  C   UNL     1       3.855  32.239  52.783  1.00  0.00     0.055 C 
HETATM   14  C   UNL     1       3.180  30.886  52.624  1.00  0.00     0.129 C 
HETATM   15  C   UNL     1       4.788  27.170  56.842  1.00  0.00     0.031 A 
HETATM   16  C   UNL     1       5.552  26.073  56.432  1.00  0.00     0.014 A 
HETATM   17  H   UNL     1       3.457  29.193  57.470  1.00  0.00     0.169 HD
ENDROOT
BRANCH   1  18
HETATM   18  C   UNL     1       6.787  24.788  54.671  1.00  0.00     0.008 A 
HETATM   19  C   UNL     1       7.905  24.378  55.435  1.00  0.00     0.082 A 
HETATM   20  C   UNL     1       8.706  23.319  54.990  1.00  0.00     0.074 A 
HETATM   21  C   UNL     1       8.410  22.638  53.806  1.00  0.00     0.070 A 
HETATM   22  C   UNL     1       7.317  23.036  53.044  1.00  0.00     0.038 A 
HETATM   23  C   UNL     1       6.516  24.100  53.473  1.00  0.00     0.018 A 
BRANCH  19  24
HETATM   24  O   UNL     1       8.166  25.094  56.579  1.00  0.00    -0.355 OA
HETATM   25  C   UNL     1       8.911  24.435  57.597  1.00  0.00     0.210 C 
ENDBRANCH  19  24
BRANCH  21  26
HETATM   26  O   UNL     1       9.273  21.620  53.505  1.00  0.00    -0.356 OA
HETATM   27  C   UNL     1       8.693  20.385  53.103  1.00  0.00     0.210 C 
ENDBRANCH  21  26
ENDBRANCH   1  18
BRANCH  12  28
HETATM   28  N   UNL     1       5.202  33.254  54.587  1.00  0.00    -0.072 N 
HETATM   29  H   UNL     1       5.693  33.515  53.716  1.00  0.00     0.274 HD
HETATM   30  H   UNL     1       4.900  34.120  55.053  1.00  0.00     0.274 HD
HETATM   31  H   UNL     1       5.905  32.809  55.193  1.00  0.00     0.274 HD
ENDBRANCH  12  28
TORSDOF 4
ENDMDL
MODEL 8
REMARK VINA RESULT:      -7.9      4.283      6.264
REMARK  4 active torsions:
REMARK  status: ('A' for Active; 'I' for Inactive)
REMARK    1  A    between atoms: O_2  and  C_3 
REMARK    2  A    between atoms: C_5  and  O_6 
REMARK    3  A    between atoms: C_8  and  C_9 
REMARK    4  A    between atoms: C_20  and  N_21 
ROOT
HETATM    1  C   UNL     1       6.265  25.483  53.683  1.00  0.00    -0.022 A 
HETATM    2  C   UNL     1       5.991  25.832  52.353  1.00  0.00     0.031 A 
HETATM    3  C   UNL     1       5.239  26.978  52.025  1.00  0.00     0.059 A 
HETATM    4  C   UNL     1       4.758  27.810  53.048  1.00  0.00     0.050 A 
HETATM    5  N   UNL     1       4.116  29.056  52.888  1.00  0.00    -0.324 N 
HETATM    6  C   UNL     1       4.289  29.967  51.888  1.00  0.00     0.247 C 
HETATM    7  O   UNL     1       3.906  31.130  52.046  1.00  0.00    -0.271 OA
HETATM    8  C   UNL     1       5.166  29.610  50.703  1.00  0.00     0.210 C 
HETATM    9  N   UNL     1       4.730  28.387  50.068  1.00  0.00    -0.332 N 
HETATM   10  C   UNL     1       4.887  27.126  50.590  1.00  0.00     0.256 C 
HETATM   11  O   UNL     1       4.746  26.123  49.897  1.00  0.00    -0.267 OA
HETATM   12  C   UNL     1       5.034  30.680  49.597  1.00  0.00     0.217 C 
HETATM   13  C   UNL     1       5.071  29.878  48.300  1.00  0.00     0.055 C 
HETATM   14  C   UNL     1       4.344  28.599  48.684  1.00  0.00     0.129 C 
HETATM   15  C   UNL     1       4.944  27.409  54.378  1.00  0.00     0.031 A 
HETATM   16  C   UNL     1       5.691  26.269  54.688  1.00  0.00     0.014 A 
HETATM   17  H   UNL     1       3.664  29.452  53.708  1.00  0.00     0.169 HD
ENDROOT
BRANCH   1  18
HETATM   18  C   UNL     1       7.123  24.326  54.013  1.00  0.00     0.008 A 
HETATM   19  C   UNL     1       7.844  24.245  55.228  1.00  0.00     0.082 A 
HETATM   20  C   UNL     1       8.647  23.128  55.491  1.00  0.00     0.074 A 
HETATM   21  C   UNL     1       8.735  22.072  54.581  1.00  0.00     0.070 A 
HETATM   22  C   UNL     1       8.034  22.143  53.381  1.00  0.00     0.038 A 
HETATM   23  C   UNL     1       7.238  23.259  53.103  1.00  0.00     0.018 A 
BRANCH  19  24
HETATM   24  O   UNL     1       7.741  25.320  56.079  1.00  0.00    -0.355 OA
HETATM   25  C   UNL     1       8.480  25.253  57.294  1.00  0.00     0.210 C 
ENDBRANCH  19  24
BRANCH  21  26
HETATM   26  O   UNL     1       9.547  21.045  54.978  1.00  0.00    -0.356 OA
HETATM   27  C   UNL     1       9.207  20.394  56.196  1.00  0.00     0.210 C 
ENDBRANCH  21  26
ENDBRANCH   1  18
BRANCH  12  28
HETATM   28  N   UNL     1       6.152  31.668  49.614  1.00  0.00    -0.072 N 
HETATM   29  H   UNL     1       5.785  32.625  49.731  1.00  0.00     0.274 HD
HETATM   30  H   UNL     1       6.834  31.496  50.365  1.00  0.00     0.274 HD
HETATM   31  H   UNL     1       6.668  31.661  48.724  1.00  0.00     0.274 HD
ENDBRANCH  12  28
TORSDOF 4
ENDMDL
MODEL 9
REMARK VINA RESULT:      -7.8      5.544      7.489
REMARK  4 active torsions:
REMARK  status: ('A' for Active; 'I' for Inactive)
REMARK    1  A    between atoms: O_2  and  C_3 
REMARK    2  A    between atoms: C_5  and  O_6 
REMARK    3  A    between atoms: C_8  and  C_9 
REMARK    4  A    between atoms: C_20  and  N_21 
ROOT
HETATM    1  C   UNL     1       4.649  27.554  50.471  1.00  0.00    -0.022 A 
HETATM    2  C   UNL     1       5.342  26.480  51.048  1.00  0.00     0.031 A 
HETATM    3  C   UNL     1       6.199  26.658  52.153  1.00  0.00     0.059 A 
HETATM    4  C   UNL     1       6.360  27.936  52.710  1.00  0.00     0.050 A 
HETATM    5  N   UNL     1       7.063  28.258  53.890  1.00  0.00    -0.324 N 
HETATM    6  C   UNL     1       7.249  27.479  54.995  1.00  0.00     0.247 C 
HETATM    7  O   UNL     1       7.602  27.999  56.058  1.00  0.00    -0.271 OA
HETATM    8  C   UNL     1       6.781  26.037  54.974  1.00  0.00     0.210 C 
HETATM    9  N   UNL     1       7.352  25.309  53.864  1.00  0.00    -0.332 N 
HETATM   10  C   UNL     1       6.993  25.467  52.547  1.00  0.00     0.256 C 
HETATM   11  O   UNL     1       7.311  24.644  51.693  1.00  0.00    -0.267 OA
HETATM   12  C   UNL     1       7.294  25.289  56.223  1.00  0.00     0.217 C 
HETATM   13  C   UNL     1       7.642  23.897  55.704  1.00  0.00     0.055 C 
HETATM   14  C   UNL     1       8.165  24.190  54.306  1.00  0.00     0.129 C 
HETATM   15  C   UNL     1       5.748  29.024  52.074  1.00  0.00     0.031 A 
HETATM   16  C   UNL     1       4.902  28.833  50.978  1.00  0.00     0.014 A 
HETATM   17  H   UNL     1       7.245  29.242  54.066  1.00  0.00     0.169 HD
ENDROOT
BRANCH   1  18
HETATM   18  C   UNL     1       3.691  27.345  49.366  1.00  0.00     0.008 A 
HETATM   19  C   UNL     1       2.453  28.029  49.301  1.00  0.00     0.082 A 
HETATM   20  C   UNL     1       1.578  27.792  48.234  1.00  0.00     0.074 A 
HETATM   21  C   UNL     1       1.913  26.901  47.210  1.00  0.00     0.070 A 
HETATM   22  C   UNL     1       3.124  26.219  47.266  1.00  0.00     0.038 A 
HETATM   23  C   UNL     1       4.001  26.440  48.333  1.00  0.00     0.018 A 
BRANCH  19  24
HETATM   24  O   UNL     1       2.162  28.876  50.344  1.00  0.00    -0.355 OA
HETATM   25  C   UNL     1       1.397  30.037  50.037  1.00  0.00     0.210 C 
ENDBRANCH  19  24
BRANCH  21  26
HETATM   26  O   UNL     1       0.966  26.780  46.230  1.00  0.00    -0.356 OA
HETATM   27  C   UNL     1      -0.131  27.684  46.283  1.00  0.00     0.210 C 
ENDBRANCH  21  26
ENDBRANCH   1  18
BRANCH  12  28
HETATM   28  N   UNL     1       6.264  25.185  57.297  1.00  0.00    -0.072 N 
HETATM   29  H   UNL     1       5.372  24.840  56.908  1.00  0.00     0.274 HD
HETATM   30  H   UNL     1       6.539  24.559  58.065  1.00  0.00     0.274 HD
HETATM   31  H   UNL     1       6.063  26.107  57.710  1.00  0.00     0.274 HD
ENDBRANCH  12  28
TORSDOF 4
ENDMDL
MODEL 10
REMARK VINA RESULT:      -7.3      6.104      7.980
REMARK  4 active torsions:
REMARK  status: ('A' for Active; 'I' for Inactive)
REMARK    1  A    between atoms: O_2  and  C_3 
REMARK    2  A    between atoms: C_5  and  O_6 
REMARK    3  A    between atoms: C_8  and  C_9 
REMARK    4  A    between atoms: C_20  and  N_21 
ROOT
HETATM    1  C   UNL     1       3.875  28.127  49.826  1.00  0.00    -0.022 A 
HETATM    2  C   UNL     1       4.134  27.082  50.724  1.00  0.00     0.031 A 
HETATM    3  C   UNL     1       5.037  27.230  51.796  1.00  0.00     0.059 A 
HETATM    4  C   UNL     1       5.690  28.457  51.990  1.00  0.00     0.050 A 
HETATM    5  N   UNL     1       6.508  28.811  53.084  1.00  0.00    -0.324 N 
HETATM    6  C   UNL     1       6.429  28.365  54.370  1.00  0.00     0.247 C 
HETATM    7  O   UNL     1       6.994  28.992  55.272  1.00  0.00    -0.271 OA
HETATM    8  C   UNL     1       5.451  27.258  54.713  1.00  0.00     0.210 C 
HETATM    9  N   UNL     1       5.661  26.089  53.890  1.00  0.00    -0.332 N 
HETATM   10  C   UNL     1       5.337  25.992  52.558  1.00  0.00     0.256 C 
HETATM   11  O   UNL     1       5.286  24.905  51.989  1.00  0.00    -0.267 OA
HETATM   12  C   UNL     1       5.691  26.757  56.154  1.00  0.00     0.217 C 
HETATM   13  C   UNL     1       5.467  25.250  56.063  1.00  0.00     0.055 C 
HETATM   14  C   UNL     1       6.006  24.921  54.680  1.00  0.00     0.129 C 
HETATM   15  C   UNL     1       5.510  29.468  51.037  1.00  0.00     0.031 A 
HETATM   16  C   UNL     1       4.612  29.307  49.978  1.00  0.00     0.014 A 
HETATM   17  H   UNL     1       7.055  29.663  52.995  1.00  0.00     0.169 HD
ENDROOT
BRANCH   1  18
HETATM   18  C   UNL     1       2.866  27.989  48.755  1.00  0.00     0.008 A 
HETATM   19  C   UNL     1       2.661  26.770  48.065  1.00  0.00     0.082 A 
HETATM   20  C   UNL     1       1.696  26.693  47.054  1.00  0.00     0.074 A 
HETATM   21  C   UNL     1       0.908  27.798  46.722  1.00  0.00     0.070 A 
HETATM   22  C   UNL     1       1.105  29.002  47.390  1.00  0.00     0.038 A 
HETATM   23  C   UNL     1       2.073  29.094  48.394  1.00  0.00     0.018 A 
BRANCH  19  24
HETATM   24  O   UNL     1       3.477  25.719  48.414  1.00  0.00    -0.355 OA
HETATM   25  C   UNL     1       3.030  24.413  48.068  1.00  0.00     0.210 C 
ENDBRANCH  19  24
BRANCH  21  26
HETATM   26  O   UNL     1       0.000  27.570  45.724  1.00  0.00    -0.356 OA
HETATM   27  C   UNL     1      -0.838  28.659  45.358  1.00  0.00     0.210 C 
ENDBRANCH  21  26
ENDBRANCH   1  18
BRANCH  12  28
HETATM   28  N   UNL     1       4.741  27.352  57.138  1.00  0.00    -0.072 N 
HETATM   29  H   UNL     1       4.585  26.703  57.925  1.00  0.00     0.274 HD
HETATM   30  H   UNL     1       5.066  28.248  57.525  1.00  0.00     0.274 HD
HETATM   31  H   UNL     1       3.819  27.519  56.711  1.00  0.00     0.274 HD
ENDBRANCH  12  28
TORSDOF 4
ENDMDL
