MODEL 1
REMARK VINA RESULT:     -10.0      0.000      0.000
REMARK  4 active torsions:
REMARK  status: ('A' for Active; 'I' for Inactive)
REMARK    1  A    between atoms: C_9  and  N_10 
REMARK       I    between atoms: N_10  and  C_11 
REMARK    2  A    between atoms: C_11  and  C_12 
REMARK    3  A    between atoms: C_14  and  C_15 
REMARK    4  A    between atoms: C_22  and  C_23 
ROOT
HETATM    1  N   UNL     1       8.191  27.719  56.101  1.00  0.00    -0.322 N 
HETATM    2  C   UNL     1       6.901  27.453  55.676  1.00  0.00     0.277 C 
HETATM    3  O   UNL     1       5.921  28.161  55.882  1.00  0.00    -0.266 OA
HETATM    4  H   UNL     1       8.873  27.022  55.805  1.00  0.00     0.169 HD
ENDROOT
BRANCH   2   5
HETATM    5  C   UNL     1       6.826  26.189  54.947  1.00  0.00     0.157 A 
HETATM    6  N   UNL     1       7.555  25.065  55.335  1.00  0.00    -0.216 NA
HETATM    7  C   UNL     1       7.194  24.135  54.468  1.00  0.00     0.180 A 
HETATM    8  O   UNL     1       6.291  24.565  53.536  1.00  0.00    -0.293 OA
HETATM    9  C   UNL     1       6.058  25.877  53.842  1.00  0.00     0.094 A 
BRANCH   7  10
HETATM   10  C   UNL     1       7.603  22.735  54.378  1.00  0.00     0.017 A 
HETATM   11  C   UNL     1       7.908  22.174  53.129  1.00  0.00     0.016 A 
HETATM   12  C   UNL     1       8.310  20.840  53.022  1.00  0.00     0.001 A 
HETATM   13  C   UNL     1       8.413  20.049  54.164  1.00  0.00     0.000 A 
HETATM   14  C   UNL     1       8.115  20.590  55.412  1.00  0.00     0.001 A 
HETATM   15  C   UNL     1       7.711  21.923  55.518  1.00  0.00     0.016 A 
ENDBRANCH   7  10
BRANCH   9  16
HETATM   16  C   UNL     1       5.101  26.767  53.070  1.00  0.00     0.046 A 
HETATM   17  C   UNL     1       5.684  27.950  52.323  1.00  0.00     0.012 A 
HETATM   18  C   UNL     1       5.202  26.765  51.558  1.00  0.00     0.012 A 
ENDBRANCH   9  16
ENDBRANCH   2   5
BRANCH   1  19
HETATM   19  C   UNL     1       8.631  28.781  56.911  1.00  0.00     0.035 A 
HETATM   20  C   UNL     1       7.958  29.197  58.064  1.00  0.00     0.039 A 
HETATM   21  C   UNL     1       8.500  30.223  58.825  1.00  0.00    -0.022 A 
HETATM   22  C   UNL     1       7.982  30.772  60.108  1.00  0.00     0.274 C 
HETATM   23  C   UNL     1       9.693  30.846  58.460  1.00  0.00    -0.025 A 
HETATM   24  N   UNL     1       8.876  31.971  60.408  1.00  0.00    -0.067 N 
HETATM   25  C   UNL     1       9.222  32.125  61.846  1.00  0.00     0.270 C 
HETATM   26  H   UNL     1       8.350  32.798  60.104  1.00  0.00     0.280 HD
HETATM   27  C   UNL     1      10.079  31.866  59.476  1.00  0.00     0.273 C 
HETATM   28  C   UNL     1      10.368  30.460  57.316  1.00  0.00     0.012 A 
HETATM   29  C   UNL     1       9.829  29.424  56.542  1.00  0.00     0.030 A 
ENDBRANCH   1  19
TORSDOF 4
ENDMDL
MODEL 2
REMARK VINA RESULT:      -9.8      1.654      2.186
REMARK  4 active torsions:
REMARK  status: ('A' for Active; 'I' for Inactive)
REMARK    1  A    between atoms: C_9  and  N_10 
REMARK       I    between atoms: N_10  and  C_11 
REMARK    2  A    between atoms: C_11  and  C_12 
REMARK    3  A    between atoms: C_14  and  C_15 
REMARK    4  A    between atoms: C_22  and  C_23 
ROOT
HETATM    1  N   UNL     1       6.803  27.650  56.260  1.00  0.00    -0.322 N 
HETATM    2  C   UNL     1       5.838  26.657  56.257  1.00  0.00     0.277 C 
HETATM    3  O   UNL     1       4.824  26.647  56.947  1.00  0.00    -0.266 OA
HETATM    4  H   UNL     1       7.558  27.490  55.594  1.00  0.00     0.169 HD
ENDROOT
BRANCH   2   5
HETATM    5  C   UNL     1       6.176  25.582  55.327  1.00  0.00     0.157 A 
HETATM    6  N   UNL     1       6.903  24.460  55.725  1.00  0.00    -0.216 NA
HETATM    7  C   UNL     1       6.966  23.718  54.633  1.00  0.00     0.180 A 
HETATM    8  O   UNL     1       6.344  24.270  53.549  1.00  0.00    -0.293 OA
HETATM    9  C   UNL     1       5.841  25.461  53.993  1.00  0.00     0.094 A 
BRANCH   7  10
HETATM   10  C   UNL     1       7.581  22.407  54.432  1.00  0.00     0.017 A 
HETATM   11  C   UNL     1       7.894  21.604  55.539  1.00  0.00     0.016 A 
HETATM   12  C   UNL     1       8.473  20.344  55.368  1.00  0.00     0.001 A 
HETATM   13  C   UNL     1       8.746  19.870  54.086  1.00  0.00     0.000 A 
HETATM   14  C   UNL     1       8.442  20.654  52.977  1.00  0.00     0.001 A 
HETATM   15  C   UNL     1       7.865  21.914  53.148  1.00  0.00     0.016 A 
ENDBRANCH   7  10
BRANCH   9  16
HETATM   16  C   UNL     1       5.051  26.422  53.123  1.00  0.00     0.046 A 
HETATM   17  C   UNL     1       5.726  27.712  52.704  1.00  0.00     0.012 A 
HETATM   18  C   UNL     1       5.524  26.631  51.698  1.00  0.00     0.012 A 
ENDBRANCH   9  16
ENDBRANCH   2   5
BRANCH   1  19
HETATM   19  C   UNL     1       6.875  28.783  57.089  1.00  0.00     0.035 A 
HETATM   20  C   UNL     1       5.892  29.777  57.117  1.00  0.00     0.039 A 
HETATM   21  C   UNL     1       6.028  30.832  58.007  1.00  0.00    -0.022 A 
HETATM   22  C   UNL     1       5.077  31.954  58.239  1.00  0.00     0.274 C 
HETATM   23  C   UNL     1       7.123  30.921  58.867  1.00  0.00    -0.025 A 
HETATM   24  N   UNL     1       5.802  32.887  59.203  1.00  0.00    -0.067 N 
HETATM   25  C   UNL     1       4.924  33.489  60.241  1.00  0.00     0.270 C 
HETATM   26  H   UNL     1       6.193  33.640  58.624  1.00  0.00     0.280 HD
HETATM   27  C   UNL     1       6.994  32.111  59.754  1.00  0.00     0.273 C 
HETATM   28  C   UNL     1       8.115  29.955  58.847  1.00  0.00     0.012 A 
HETATM   29  C   UNL     1       7.984  28.885  57.952  1.00  0.00     0.030 A 
ENDBRANCH   1  19
TORSDOF 4
ENDMDL
MODEL 3
REMARK VINA RESULT:      -9.8      2.033      8.733
REMARK  4 active torsions:
REMARK  status: ('A' for Active; 'I' for Inactive)
REMARK    1  A    between atoms: C_9  and  N_10 
REMARK       I    between atoms: N_10  and  C_11 
REMARK    2  A    between atoms: C_11  and  C_12 
REMARK    3  A    between atoms: C_14  and  C_15 
REMARK    4  A    between atoms: C_22  and  C_23 
ROOT
HETATM    1  N   UNL     1       7.092  26.946  56.010  1.00  0.00    -0.322 N 
HETATM    2  C   UNL     1       7.582  28.212  55.737  1.00  0.00     0.277 C 
HETATM    3  O   UNL     1       8.225  28.527  54.741  1.00  0.00    -0.266 OA
HETATM    4  H   UNL     1       6.557  26.892  56.876  1.00  0.00     0.169 HD
ENDROOT
BRANCH   2   5
HETATM    5  C   UNL     1       7.256  29.156  56.802  1.00  0.00     0.157 A 
HETATM    6  N   UNL     1       8.100  29.363  57.893  1.00  0.00    -0.216 NA
HETATM    7  C   UNL     1       7.487  30.298  58.598  1.00  0.00     0.180 A 
HETATM    8  O   UNL     1       6.303  30.715  58.058  1.00  0.00    -0.293 OA
HETATM    9  C   UNL     1       6.155  29.983  56.912  1.00  0.00     0.094 A 
BRANCH   7  10
HETATM   10  C   UNL     1       7.899  30.950  59.839  1.00  0.00     0.017 A 
HETATM   11  C   UNL     1       7.109  31.972  60.389  1.00  0.00     0.016 A 
HETATM   12  C   UNL     1       7.480  32.601  61.580  1.00  0.00     0.001 A 
HETATM   13  C   UNL     1       8.646  32.217  62.238  1.00  0.00     0.000 A 
HETATM   14  C   UNL     1       9.442  31.205  61.707  1.00  0.00     0.001 A 
HETATM   15  C   UNL     1       9.072  30.577  60.515  1.00  0.00     0.016 A 
ENDBRANCH   7  10
BRANCH   9  16
HETATM   16  C   UNL     1       4.974  30.119  55.969  1.00  0.00     0.046 A 
HETATM   17  C   UNL     1       4.059  28.923  55.804  1.00  0.00     0.012 A 
HETATM   18  C   UNL     1       3.585  30.107  56.575  1.00  0.00     0.012 A 
ENDBRANCH   9  16
ENDBRANCH   2   5
BRANCH   1  19
HETATM   19  C   UNL     1       7.291  25.765  55.274  1.00  0.00     0.035 A 
HETATM   20  C   UNL     1       8.157  24.744  55.680  1.00  0.00     0.039 A 
HETATM   21  C   UNL     1       8.247  23.594  54.910  1.00  0.00    -0.022 A 
HETATM   22  C   UNL     1       9.054  22.374  55.191  1.00  0.00     0.274 C 
HETATM   23  C   UNL     1       7.499  23.440  53.743  1.00  0.00    -0.025 A 
HETATM   24  N   UNL     1       8.893  21.506  53.947  1.00  0.00    -0.067 N 
HETATM   25  C   UNL     1       8.766  20.053  54.234  1.00  0.00     0.270 C 
HETATM   26  H   UNL     1       9.739  21.660  53.386  1.00  0.00     0.280 HD
HETATM   27  C   UNL     1       7.738  22.096  53.145  1.00  0.00     0.273 C 
HETATM   28  C   UNL     1       6.646  24.443  53.315  1.00  0.00     0.012 A 
HETATM   29  C   UNL     1       6.547  25.607  54.088  1.00  0.00     0.030 A 
ENDBRANCH   1  19
TORSDOF 4
ENDMDL
MODEL 4
REMARK VINA RESULT:      -9.7      3.781      8.256
REMARK  4 active torsions:
REMARK  status: ('A' for Active; 'I' for Inactive)
REMARK    1  A    between atoms: C_9  and  N_10 
REMARK       I    between atoms: N_10  and  C_11 
REMARK    2  A    between atoms: C_11  and  C_12 
REMARK    3  A    between atoms: C_14  and  C_15 
REMARK    4  A    between atoms: C_22  and  C_23 
ROOT
HETATM    1  N   UNL     1       5.466  26.387  50.810  1.00  0.00    -0.322 N 
HETATM    2  C   UNL     1       5.208  26.432  52.169  1.00  0.00     0.277 C 
HETATM    3  O   UNL     1       4.297  27.057  52.702  1.00  0.00    -0.266 OA
HETATM    4  H   UNL     1       6.252  25.788  50.561  1.00  0.00     0.169 HD
ENDROOT
BRANCH   2   5
HETATM    5  C   UNL     1       6.177  25.643  52.926  1.00  0.00     0.157 A 
HETATM    6  N   UNL     1       6.165  24.248  52.918  1.00  0.00    -0.216 NA
HETATM    7  C   UNL     1       7.197  23.916  53.673  1.00  0.00     0.180 A 
HETATM    8  O   UNL     1       7.880  24.985  54.183  1.00  0.00    -0.293 OA
HETATM    9  C   UNL     1       7.227  26.087  53.706  1.00  0.00     0.094 A 
BRANCH   7  10
HETATM   10  C   UNL     1       7.712  22.592  54.019  1.00  0.00     0.017 A 
HETATM   11  C   UNL     1       7.830  22.218  55.366  1.00  0.00     0.016 A 
HETATM   12  C   UNL     1       8.311  20.953  55.718  1.00  0.00     0.001 A 
HETATM   13  C   UNL     1       8.679  20.046  54.726  1.00  0.00     0.000 A 
HETATM   14  C   UNL     1       8.568  20.402  53.384  1.00  0.00     0.001 A 
HETATM   15  C   UNL     1       8.089  21.666  53.033  1.00  0.00     0.016 A 
ENDBRANCH   7  10
BRANCH   9  16
HETATM   16  C   UNL     1       7.645  27.514  54.009  1.00  0.00     0.046 A 
HETATM   17  C   UNL     1       6.683  28.381  54.796  1.00  0.00     0.012 A 
HETATM   18  C   UNL     1       7.920  27.875  55.455  1.00  0.00     0.012 A 
ENDBRANCH   9  16
ENDBRANCH   2   5
BRANCH   1  19
HETATM   19  C   UNL     1       4.816  27.095  49.784  1.00  0.00     0.035 A 
HETATM   20  C   UNL     1       3.665  26.631  49.140  1.00  0.00     0.039 A 
HETATM   21  C   UNL     1       3.067  27.426  48.174  1.00  0.00    -0.022 A 
HETATM   22  C   UNL     1       1.814  27.151  47.418  1.00  0.00     0.274 C 
HETATM   23  C   UNL     1       3.594  28.672  47.831  1.00  0.00    -0.025 A 
HETATM   24  N   UNL     1       1.721  28.278  46.394  1.00  0.00    -0.067 N 
HETATM   25  C   UNL     1       0.342  28.790  46.179  1.00  0.00     0.270 C 
HETATM   26  H   UNL     1       2.070  27.885  45.512  1.00  0.00     0.280 HD
HETATM   27  C   UNL     1       2.732  29.340  46.816  1.00  0.00     0.273 C 
HETATM   28  C   UNL     1       4.741  29.145  48.444  1.00  0.00     0.012 A 
HETATM   29  C   UNL     1       5.350  28.348  49.423  1.00  0.00     0.030 A 
ENDBRANCH   1  19
TORSDOF 4
ENDMDL
MODEL 5
REMARK VINA RESULT:      -9.6      2.916      6.129
REMARK  4 active torsions:
REMARK  status: ('A' for Active; 'I' for Inactive)
REMARK    1  A    between atoms: C_9  and  N_10 
REMARK       I    between atoms: N_10  and  C_11 
REMARK    2  A    between atoms: C_11  and  C_12 
REMARK    3  A    between atoms: C_14  and  C_15 
REMARK    4  A    between atoms: C_22  and  C_23 
ROOT
HETATM    1  N   UNL     1       7.477  30.857  60.301  1.00  0.00    -0.322 N 
HETATM    2  C   UNL     1       7.176  31.205  58.995  1.00  0.00     0.277 C 
HETATM    3  O   UNL     1       6.766  32.300  58.625  1.00  0.00    -0.266 OA
HETATM    4  H   UNL     1       7.833  29.908  60.401  1.00  0.00     0.169 HD
ENDROOT
BRANCH   2   5
HETATM    5  C   UNL     1       7.392  30.088  58.079  1.00  0.00     0.157 A 
HETATM    6  N   UNL     1       6.339  29.470  57.404  1.00  0.00    -0.216 NA
HETATM    7  C   UNL     1       6.933  28.553  56.659  1.00  0.00     0.180 A 
HETATM    8  O   UNL     1       8.292  28.517  56.800  1.00  0.00    -0.293 OA
HETATM    9  C   UNL     1       8.584  29.497  57.708  1.00  0.00     0.094 A 
BRANCH   7  10
HETATM   10  C   UNL     1       6.353  27.603  55.712  1.00  0.00     0.017 A 
HETATM   11  C   UNL     1       6.713  26.248  55.771  1.00  0.00     0.016 A 
HETATM   12  C   UNL     1       6.163  25.322  54.881  1.00  0.00     0.001 A 
HETATM   13  C   UNL     1       5.245  25.739  53.919  1.00  0.00     0.000 A 
HETATM   14  C   UNL     1       4.877  27.080  53.846  1.00  0.00     0.001 A 
HETATM   15  C   UNL     1       5.428  28.006  54.735  1.00  0.00     0.016 A 
ENDBRANCH   7  10
BRANCH   9  16
HETATM   16  C   UNL     1       9.991  29.830  58.169  1.00  0.00     0.046 A 
HETATM   17  C   UNL     1      11.101  29.784  57.139  1.00  0.00     0.012 A 
HETATM   18  C   UNL     1      10.621  31.103  57.640  1.00  0.00     0.012 A 
ENDBRANCH   9  16
ENDBRANCH   2   5
BRANCH   1  19
HETATM   19  C   UNL     1       7.300  31.630  61.463  1.00  0.00     0.035 A 
HETATM   20  C   UNL     1       6.050  32.065  61.913  1.00  0.00     0.039 A 
HETATM   21  C   UNL     1       5.973  32.780  63.099  1.00  0.00    -0.022 A 
HETATM   22  C   UNL     1       4.748  33.279  63.781  1.00  0.00     0.274 C 
HETATM   23  C   UNL     1       7.115  33.075  63.844  1.00  0.00    -0.025 A 
HETATM   24  N   UNL     1       5.265  34.118  64.946  1.00  0.00    -0.067 N 
HETATM   25  C   UNL     1       4.473  33.973  66.196  1.00  0.00     0.270 C 
HETATM   26  H   UNL     1       5.214  35.094  64.633  1.00  0.00     0.280 HD
HETATM   27  C   UNL     1       6.748  33.796  65.095  1.00  0.00     0.273 C 
HETATM   28  C   UNL     1       8.365  32.667  63.411  1.00  0.00     0.012 A 
HETATM   29  C   UNL     1       8.450  31.943  62.214  1.00  0.00     0.030 A 
ENDBRANCH   1  19
TORSDOF 4
ENDMDL
MODEL 6
REMARK VINA RESULT:      -9.6      3.607      7.454
REMARK  4 active torsions:
REMARK  status: ('A' for Active; 'I' for Inactive)
REMARK    1  A    between atoms: C_9  and  N_10 
REMARK       I    between atoms: N_10  and  C_11 
REMARK    2  A    between atoms: C_11  and  C_12 
REMARK    3  A    between atoms: C_14  and  C_15 
REMARK    4  A    between atoms: C_22  and  C_23 
ROOT
HETATM    1  N   UNL     1       5.626  26.655  51.313  1.00  0.00    -0.322 N 
HETATM    2  C   UNL     1       5.153  26.596  52.613  1.00  0.00     0.277 C 
HETATM    3  O   UNL     1       4.196  27.224  53.053  1.00  0.00    -0.266 OA
HETATM    4  H   UNL     1       6.414  26.035  51.134  1.00  0.00     0.169 HD
ENDROOT
BRANCH   2   5
HETATM    5  C   UNL     1       5.950  25.687  53.433  1.00  0.00     0.157 A 
HETATM    6  N   UNL     1       6.180  24.363  53.063  1.00  0.00    -0.216 NA
HETATM    7  C   UNL     1       6.960  23.894  54.022  1.00  0.00     0.180 A 
HETATM    8  O   UNL     1       7.251  24.807  54.997  1.00  0.00    -0.293 OA
HETATM    9  C   UNL     1       6.605  25.951  54.621  1.00  0.00     0.094 A 
BRANCH   7  10
HETATM   10  C   UNL     1       7.556  22.569  54.174  1.00  0.00     0.017 A 
HETATM   11  C   UNL     1       7.698  22.008  55.453  1.00  0.00     0.016 A 
HETATM   12  C   UNL     1       8.257  20.738  55.620  1.00  0.00     0.001 A 
HETATM   13  C   UNL     1       8.681  20.011  54.510  1.00  0.00     0.000 A 
HETATM   14  C   UNL     1       8.547  20.552  53.234  1.00  0.00     0.001 A 
HETATM   15  C   UNL     1       7.990  21.822  53.067  1.00  0.00     0.016 A 
ENDBRANCH   7  10
BRANCH   9  16
HETATM   16  C   UNL     1       6.655  27.248  55.408  1.00  0.00     0.046 A 
HETATM   17  C   UNL     1       7.809  27.447  56.369  1.00  0.00     0.012 A 
HETATM   18  C   UNL     1       7.776  28.218  55.095  1.00  0.00     0.012 A 
ENDBRANCH   9  16
ENDBRANCH   2   5
BRANCH   1  19
HETATM   19  C   UNL     1       5.183  27.488  50.270  1.00  0.00     0.035 A 
HETATM   20  C   UNL     1       5.405  28.868  50.242  1.00  0.00     0.039 A 
HETATM   21  C   UNL     1       4.973  29.597  49.144  1.00  0.00    -0.022 A 
HETATM   22  C   UNL     1       5.160  31.051  48.888  1.00  0.00     0.274 C 
HETATM   23  C   UNL     1       4.319  28.982  48.076  1.00  0.00    -0.025 A 
HETATM   24  N   UNL     1       4.356  31.331  47.622  1.00  0.00    -0.067 N 
HETATM   25  C   UNL     1       5.009  32.286  46.688  1.00  0.00     0.270 C 
HETATM   26  H   UNL     1       3.466  31.733  47.938  1.00  0.00     0.280 HD
HETATM   27  C   UNL     1       4.017  29.976  47.008  1.00  0.00     0.273 C 
HETATM   28  C   UNL     1       4.075  27.620  48.088  1.00  0.00     0.012 A 
HETATM   29  C   UNL     1       4.511  26.876  49.193  1.00  0.00     0.030 A 
ENDBRANCH   1  19
TORSDOF 4
ENDMDL
MODEL 7
REMARK VINA RESULT:      -9.2      1.891      2.496
REMARK  4 active torsions:
REMARK  status: ('A' for Active; 'I' for Inactive)
REMARK    1  A    between atoms: C_9  and  N_10 
REMARK       I    between atoms: N_10  and  C_11 
REMARK    2  A    between atoms: C_11  and  C_12 
REMARK    3  A    between atoms: C_14  and  C_15 
REMARK    4  A    between atoms: C_22  and  C_23 
ROOT
HETATM    1  N   UNL     1       6.997  28.471  56.956  1.00  0.00    -0.322 N 
HETATM    2  C   UNL     1       7.752  28.316  55.806  1.00  0.00     0.277 C 
HETATM    3  O   UNL     1       8.615  29.092  55.409  1.00  0.00    -0.266 OA
HETATM    4  H   UNL     1       6.351  27.703  57.130  1.00  0.00     0.169 HD
ENDROOT
BRANCH   2   5
HETATM    5  C   UNL     1       7.388  27.098  55.085  1.00  0.00     0.157 A 
HETATM    6  N   UNL     1       7.996  25.871  55.348  1.00  0.00    -0.216 NA
HETATM    7  C   UNL     1       7.379  25.029  54.538  1.00  0.00     0.180 A 
HETATM    8  O   UNL     1       6.420  25.611  53.757  1.00  0.00    -0.293 OA
HETATM    9  C   UNL     1       6.427  26.933  54.106  1.00  0.00     0.094 A 
BRANCH   7  10
HETATM   10  C   UNL     1       7.564  23.589  54.375  1.00  0.00     0.017 A 
HETATM   11  C   UNL     1       7.587  22.754  55.503  1.00  0.00     0.016 A 
HETATM   12  C   UNL     1       7.752  21.373  55.368  1.00  0.00     0.001 A 
HETATM   13  C   UNL     1       7.896  20.808  54.103  1.00  0.00     0.000 A 
HETATM   14  C   UNL     1       7.876  21.621  52.973  1.00  0.00     0.001 A 
HETATM   15  C   UNL     1       7.712  23.002  53.108  1.00  0.00     0.016 A 
ENDBRANCH   7  10
BRANCH   9  16
HETATM   16  C   UNL     1       5.506  27.973  53.497  1.00  0.00     0.046 A 
HETATM   17  C   UNL     1       4.134  27.521  53.040  1.00  0.00     0.012 A 
HETATM   18  C   UNL     1       4.259  28.349  54.273  1.00  0.00     0.012 A 
ENDBRANCH   9  16
ENDBRANCH   2   5
BRANCH   1  19
HETATM   19  C   UNL     1       6.993  29.561  57.845  1.00  0.00     0.035 A 
HETATM   20  C   UNL     1       5.944  30.482  57.925  1.00  0.00     0.039 A 
HETATM   21  C   UNL     1       6.010  31.495  58.870  1.00  0.00    -0.022 A 
HETATM   22  C   UNL     1       4.984  32.534  59.160  1.00  0.00     0.274 C 
HETATM   23  C   UNL     1       7.098  31.613  59.735  1.00  0.00    -0.025 A 
HETATM   24  N   UNL     1       5.646  33.463  60.174  1.00  0.00    -0.067 N 
HETATM   25  C   UNL     1       4.731  33.946  61.241  1.00  0.00     0.270 C 
HETATM   26  H   UNL     1       5.983  34.270  59.636  1.00  0.00     0.280 HD
HETATM   27  C   UNL     1       6.889  32.742  60.684  1.00  0.00     0.273 C 
HETATM   28  C   UNL     1       8.153  30.720  59.665  1.00  0.00     0.012 A 
HETATM   29  C   UNL     1       8.095  29.693  58.713  1.00  0.00     0.030 A 
ENDBRANCH   1  19
TORSDOF 4
ENDMDL
MODEL 8
REMARK VINA RESULT:      -9.2      2.754      9.330
REMARK  4 active torsions:
REMARK  status: ('A' for Active; 'I' for Inactive)
REMARK    1  A    between atoms: C_9  and  N_10 
REMARK       I    between atoms: N_10  and  C_11 
REMARK    2  A    between atoms: C_11  and  C_12 
REMARK    3  A    between atoms: C_14  and  C_15 
REMARK    4  A    between atoms: C_22  and  C_23 
ROOT
HETATM    1  N   UNL     1       7.080  28.598  57.632  1.00  0.00    -0.322 N 
HETATM    2  C   UNL     1       7.878  29.725  57.742  1.00  0.00     0.277 C 
HETATM    3  O   UNL     1       8.955  29.893  57.181  1.00  0.00    -0.266 OA
HETATM    4  H   UNL     1       6.207  28.661  58.153  1.00  0.00     0.169 HD
ENDROOT
BRANCH   2   5
HETATM    5  C   UNL     1       7.286  30.716  58.637  1.00  0.00     0.157 A 
HETATM    6  N   UNL     1       7.759  30.918  59.934  1.00  0.00    -0.216 NA
HETATM    7  C   UNL     1       7.007  31.902  60.397  1.00  0.00     0.180 A 
HETATM    8  O   UNL     1       6.073  32.354  59.507  1.00  0.00    -0.293 OA
HETATM    9  C   UNL     1       6.251  31.595  58.384  1.00  0.00     0.094 A 
BRANCH   7  10
HETATM   10  C   UNL     1       7.046  32.573  61.695  1.00  0.00     0.017 A 
HETATM   11  C   UNL     1       6.166  33.633  61.961  1.00  0.00     0.016 A 
HETATM   12  C   UNL     1       6.180  34.281  63.199  1.00  0.00     0.001 A 
HETATM   13  C   UNL     1       7.075  33.878  64.187  1.00  0.00     0.000 A 
HETATM   14  C   UNL     1       7.956  32.828  63.940  1.00  0.00     0.001 A 
HETATM   15  C   UNL     1       7.942  32.181  62.702  1.00  0.00     0.016 A 
ENDBRANCH   7  10
BRANCH   9  16
HETATM   16  C   UNL     1       5.431  31.755  57.118  1.00  0.00     0.046 A 
HETATM   17  C   UNL     1       4.376  30.709  56.822  1.00  0.00     0.012 A 
HETATM   18  C   UNL     1       3.956  32.067  57.269  1.00  0.00     0.012 A 
ENDBRANCH   9  16
ENDBRANCH   2   5
BRANCH   1  19
HETATM   19  C   UNL     1       7.364  27.403  56.947  1.00  0.00     0.035 A 
HETATM   20  C   UNL     1       7.915  26.276  57.565  1.00  0.00     0.039 A 
HETATM   21  C   UNL     1       8.111  25.126  56.814  1.00  0.00    -0.022 A 
HETATM   22  C   UNL     1       8.624  23.810  57.285  1.00  0.00     0.274 C 
HETATM   23  C   UNL     1       7.775  25.076  55.461  1.00  0.00    -0.025 A 
HETATM   24  N   UNL     1       8.775  22.975  56.018  1.00  0.00    -0.067 N 
HETATM   25  C   UNL     1       8.382  21.550  56.180  1.00  0.00     0.270 C 
HETATM   26  H   UNL     1       9.770  23.018  55.771  1.00  0.00     0.280 HD
HETATM   27  C   UNL     1       8.030  23.715  54.912  1.00  0.00     0.273 C 
HETATM   28  C   UNL     1       7.241  26.183  54.826  1.00  0.00     0.012 A 
HETATM   29  C   UNL     1       7.038  27.349  55.578  1.00  0.00     0.030 A 
ENDBRANCH   1  19
TORSDOF 4
ENDMDL
MODEL 9
REMARK VINA RESULT:      -9.1      3.397      5.682
REMARK  4 active torsions:
REMARK  status: ('A' for Active; 'I' for Inactive)
REMARK    1  A    between atoms: C_9  and  N_10 
REMARK       I    between atoms: N_10  and  C_11 
REMARK    2  A    between atoms: C_11  and  C_12 
REMARK    3  A    between atoms: C_14  and  C_15 
REMARK    4  A    between atoms: C_22  and  C_23 
ROOT
HETATM    1  N   UNL     1       6.929  31.067  60.161  1.00  0.00    -0.322 N 
HETATM    2  C   UNL     1       6.710  31.569  58.890  1.00  0.00     0.277 C 
HETATM    3  O   UNL     1       6.592  32.756  58.602  1.00  0.00    -0.266 OA
HETATM    4  H   UNL     1       7.028  30.053  60.190  1.00  0.00     0.169 HD
ENDROOT
BRANCH   2   5
HETATM    5  C   UNL     1       6.616  30.500  57.898  1.00  0.00     0.157 A 
HETATM    6  N   UNL     1       7.311  29.299  58.037  1.00  0.00    -0.216 NA
HETATM    7  C   UNL     1       6.941  28.593  56.982  1.00  0.00     0.180 A 
HETATM    8  O   UNL     1       6.064  29.242  56.159  1.00  0.00    -0.293 OA
HETATM    9  C   UNL     1       5.858  30.461  56.744  1.00  0.00     0.094 A 
BRANCH   7  10
HETATM   10  C   UNL     1       7.317  27.236  56.590  1.00  0.00     0.017 A 
HETATM   11  C   UNL     1       7.941  26.388  57.517  1.00  0.00     0.016 A 
HETATM   12  C   UNL     1       8.300  25.084  57.165  1.00  0.00     0.001 A 
HETATM   13  C   UNL     1       8.038  24.611  55.881  1.00  0.00     0.000 A 
HETATM   14  C   UNL     1       7.419  25.439  54.948  1.00  0.00     0.001 A 
HETATM   15  C   UNL     1       7.062  26.743  55.300  1.00  0.00     0.016 A 
ENDBRANCH   7  10
BRANCH   9  16
HETATM   16  C   UNL     1       4.937  31.525  56.179  1.00  0.00     0.046 A 
HETATM   17  C   UNL     1       3.873  31.088  55.193  1.00  0.00     0.012 A 
HETATM   18  C   UNL     1       3.475  31.474  56.576  1.00  0.00     0.012 A 
ENDBRANCH   9  16
ENDBRANCH   2   5
BRANCH   1  19
HETATM   19  C   UNL     1       6.975  31.777  61.374  1.00  0.00     0.035 A 
HETATM   20  C   UNL     1       5.837  32.284  62.010  1.00  0.00     0.039 A 
HETATM   21  C   UNL     1       5.980  32.927  63.230  1.00  0.00    -0.022 A 
HETATM   22  C   UNL     1       4.903  33.482  64.096  1.00  0.00     0.274 C 
HETATM   23  C   UNL     1       7.231  33.081  63.829  1.00  0.00    -0.025 A 
HETATM   24  N   UNL     1       5.640  34.201  65.222  1.00  0.00    -0.067 N 
HETATM   25  C   UNL     1       5.007  34.043  66.558  1.00  0.00     0.270 C 
HETATM   26  H   UNL     1       5.636  35.195  64.970  1.00  0.00     0.280 HD
HETATM   27  C   UNL     1       7.095  33.750  65.154  1.00  0.00     0.273 C 
HETATM   28  C   UNL     1       8.371  32.600  63.211  1.00  0.00     0.012 A 
HETATM   29  C   UNL     1       8.236  31.947  61.978  1.00  0.00     0.030 A 
ENDBRANCH   1  19
TORSDOF 4
ENDMDL
MODEL 10
REMARK VINA RESULT:      -9.1      3.288      7.295
REMARK  4 active torsions:
REMARK  status: ('A' for Active; 'I' for Inactive)
REMARK    1  A    between atoms: C_9  and  N_10 
REMARK       I    between atoms: N_10  and  C_11 
REMARK    2  A    between atoms: C_11  and  C_12 
REMARK    3  A    between atoms: C_14  and  C_15 
REMARK    4  A    between atoms: C_22  and  C_23 
ROOT
HETATM    1  N   UNL     1       5.141  26.964  52.604  1.00  0.00    -0.322 N 
HETATM    2  C   UNL     1       6.333  27.146  53.284  1.00  0.00     0.277 C 
HETATM    3  O   UNL     1       7.008  28.170  53.279  1.00  0.00    -0.266 OA
HETATM    4  H   UNL     1       4.717  26.051  52.758  1.00  0.00     0.169 HD
ENDROOT
BRANCH   2   5
HETATM    5  C   UNL     1       6.721  25.944  54.019  1.00  0.00     0.157 A 
HETATM    6  N   UNL     1       7.018  24.744  53.373  1.00  0.00    -0.216 NA
HETATM    7  C   UNL     1       7.355  23.928  54.356  1.00  0.00     0.180 A 
HETATM    8  O   UNL     1       7.294  24.497  55.597  1.00  0.00    -0.293 OA
HETATM    9  C   UNL     1       6.887  25.784  55.381  1.00  0.00     0.094 A 
BRANCH   7  10
HETATM   10  C   UNL     1       7.792  22.534  54.301  1.00  0.00     0.017 A 
HETATM   11  C   UNL     1       7.997  21.913  53.059  1.00  0.00     0.016 A 
HETATM   12  C   UNL     1       8.425  20.585  52.985  1.00  0.00     0.001 A 
HETATM   13  C   UNL     1       8.653  19.859  54.152  1.00  0.00     0.000 A 
HETATM   14  C   UNL     1       8.455  20.460  55.393  1.00  0.00     0.001 A 
HETATM   15  C   UNL     1       8.026  21.787  55.466  1.00  0.00     0.016 A 
ENDBRANCH   7  10
BRANCH   9  16
HETATM   16  C   UNL     1       6.689  26.804  56.486  1.00  0.00     0.046 A 
HETATM   17  C   UNL     1       7.527  26.659  57.741  1.00  0.00     0.012 A 
HETATM   18  C   UNL     1       7.833  27.755  56.779  1.00  0.00     0.012 A 
ENDBRANCH   9  16
ENDBRANCH   2   5
BRANCH   1  19
HETATM   19  C   UNL     1       4.509  27.853  51.717  1.00  0.00     0.035 A 
HETATM   20  C   UNL     1       4.802  27.913  50.351  1.00  0.00     0.039 A 
HETATM   21  C   UNL     1       4.087  28.790  49.548  1.00  0.00    -0.022 A 
HETATM   22  C   UNL     1       4.197  28.966  48.074  1.00  0.00     0.274 C 
HETATM   23  C   UNL     1       3.092  29.612  50.077  1.00  0.00    -0.025 A 
HETATM   24  N   UNL     1       3.298  30.156  47.755  1.00  0.00    -0.067 N 
HETATM   25  C   UNL     1       2.525  30.013  46.494  1.00  0.00     0.270 C 
HETATM   26  H   UNL     1       3.923  30.966  47.670  1.00  0.00     0.280 HD
HETATM   27  C   UNL     1       2.445  30.407  48.995  1.00  0.00     0.273 C 
HETATM   28  C   UNL     1       2.795  29.580  51.428  1.00  0.00     0.012 A 
HETATM   29  C   UNL     1       3.511  28.695  52.246  1.00  0.00     0.030 A 
ENDBRANCH   1  19
TORSDOF 4
ENDMDL
