MODEL 1
REMARK VINA RESULT:     -10.2      0.000      0.000
REMARK  6 active torsions:
REMARK  status: ('A' for Active; 'I' for Inactive)
REMARK    1  A    between atoms: O_2  and  C_3 
REMARK    2  A    between atoms: C_6  and  C_7 
REMARK       I    between atoms: C_7  and  N_8 
REMARK    3  A    between atoms: N_8  and  C_9 
REMARK    4  A    between atoms: C_11  and  C_12 
REMARK    5  A    between atoms: C_12  and  C_13 
REMARK    6  A    between atoms: C_13  and  C_14 
ROOT
HETATM    1  C   UNL     1       8.407  29.991  59.094  1.00  0.00     0.725 A 
HETATM    2  N   UNL     1       7.814  29.012  58.461  1.00  0.00    -0.046 NA
HETATM    3  C   UNL     1       8.630  28.753  57.394  1.00  0.00     0.166 A 
HETATM    4  N   UNL     1       9.725  29.523  57.333  1.00  0.00    -0.144 NA
HETATM    5  N   UNL     1       9.561  30.295  58.423  1.00  0.00    -0.106 N 
HETATM    6  H   UNL     1      10.258  30.995  58.638  1.00  0.00     0.208 HD
ENDROOT
BRANCH   1   7
HETATM    7  N   UNL     1       8.027  30.635  60.247  1.00  0.00    -0.152 N 
HETATM    8  C   UNL     1       8.279  31.983  60.427  1.00  0.00     0.270 C 
HETATM    9  O   UNL     1       8.941  32.721  59.709  1.00  0.00    -0.267 OA
HETATM   10  H   UNL     1       7.612  30.104  60.997  1.00  0.00     0.187 HD
BRANCH   8  11
HETATM   11  C   UNL     1       7.712  32.557  61.676  1.00  0.00     0.033 A 
HETATM   12  C   UNL     1       6.541  33.320  61.590  1.00  0.00     0.020 A 
HETATM   13  C   UNL     1       5.961  33.857  62.743  1.00  0.00     0.038 A 
HETATM   14  C   UNL     1       6.541  33.623  63.990  1.00  0.00     0.068 A 
HETATM   15  C   UNL     1       7.706  32.854  64.073  1.00  0.00     0.038 A 
HETATM   16  C   UNL     1       8.291  32.315  62.925  1.00  0.00     0.020 A 
BRANCH  14  17
HETATM   17  O   UNL     1       6.072  34.078  65.192  1.00  0.00    -0.356 OA
HETATM   18  C   UNL     1       4.736  33.726  65.534  1.00  0.00     0.210 C 
ENDBRANCH  14  17
ENDBRANCH   8  11
ENDBRANCH   1   7
BRANCH   3  19
HETATM   19  C   UNL     1       8.339  27.659  56.436  1.00  0.00     0.087 C 
BRANCH  19  20
HETATM   20  C   UNL     1       7.552  26.517  57.086  1.00  0.00     0.048 C 
BRANCH  20  21
HETATM   21  C   UNL     1       7.985  25.175  56.581  1.00  0.00    -0.030 A 
HETATM   22  C   UNL     1       7.753  24.655  55.267  1.00  0.00    -0.002 A 
HETATM   23  C   UNL     1       8.314  23.379  55.217  1.00  0.00     0.042 A 
HETATM   24  C   UNL     1       7.113  25.156  54.115  1.00  0.00     0.014 A 
HETATM   25  C   UNL     1       8.264  22.575  54.071  1.00  0.00     0.030 A 
HETATM   26  N   UNL     1       8.873  23.136  56.450  1.00  0.00    -0.365 N 
HETATM   27  C   UNL     1       7.621  23.094  52.943  1.00  0.00     0.002 A 
HETATM   28  C   UNL     1       7.053  24.366  52.961  1.00  0.00     0.001 A 
HETATM   29  H   UNL     1       9.355  22.285  56.700  1.00  0.00     0.165 HD
HETATM   30  C   UNL     1       8.679  24.209  57.280  1.00  0.00     0.096 A 
ENDBRANCH  20  21
ENDBRANCH  19  20
ENDBRANCH   3  19
TORSDOF 6
ENDMDL
MODEL 2
REMARK VINA RESULT:      -9.9      1.779      2.670
REMARK  6 active torsions:
REMARK  status: ('A' for Active; 'I' for Inactive)
REMARK    1  A    between atoms: O_2  and  C_3 
REMARK    2  A    between atoms: C_6  and  C_7 
REMARK       I    between atoms: C_7  and  N_8 
REMARK    3  A    between atoms: N_8  and  C_9 
REMARK    4  A    between atoms: C_11  and  C_12 
REMARK    5  A    between atoms: C_12  and  C_13 
REMARK    6  A    between atoms: C_13  and  C_14 
ROOT
HETATM    1  C   UNL     1       6.833  28.903  57.100  1.00  0.00     0.725 A 
HETATM    2  N   UNL     1       6.465  27.672  56.855  1.00  0.00    -0.046 NA
HETATM    3  C   UNL     1       6.470  27.582  55.490  1.00  0.00     0.166 A 
HETATM    4  N   UNL     1       6.837  28.707  54.860  1.00  0.00    -0.144 NA
HETATM    5  N   UNL     1       7.065  29.526  55.903  1.00  0.00    -0.106 N 
HETATM    6  H   UNL     1       7.365  30.475  55.726  1.00  0.00     0.208 HD
ENDROOT
BRANCH   1   7
HETATM    7  N   UNL     1       7.010  29.531  58.310  1.00  0.00    -0.152 N 
HETATM    8  C   UNL     1       8.239  30.053  58.670  1.00  0.00     0.270 C 
HETATM    9  O   UNL     1       9.304  29.932  58.078  1.00  0.00    -0.267 OA
HETATM   10  H   UNL     1       6.248  29.559  58.969  1.00  0.00     0.187 HD
BRANCH   8  11
HETATM   11  C   UNL     1       8.243  30.795  59.959  1.00  0.00     0.033 A 
HETATM   12  C   UNL     1       7.223  31.723  60.200  1.00  0.00     0.020 A 
HETATM   13  C   UNL     1       7.176  32.424  61.408  1.00  0.00     0.038 A 
HETATM   14  C   UNL     1       8.141  32.190  62.389  1.00  0.00     0.068 A 
HETATM   15  C   UNL     1       9.154  31.257  62.148  1.00  0.00     0.038 A 
HETATM   16  C   UNL     1       9.208  30.555  60.942  1.00  0.00     0.020 A 
BRANCH  14  17
HETATM   17  O   UNL     1       8.204  32.797  63.613  1.00  0.00    -0.356 OA
HETATM   18  C   UNL     1       6.966  33.164  64.211  1.00  0.00     0.210 C 
ENDBRANCH  14  17
ENDBRANCH   8  11
ENDBRANCH   1   7
BRANCH   3  19
HETATM   19  C   UNL     1       6.154  26.313  54.790  1.00  0.00     0.087 C 
BRANCH  19  20
HETATM   20  C   UNL     1       7.412  25.611  54.273  1.00  0.00     0.048 C 
BRANCH  20  21
HETATM   21  C   UNL     1       7.729  24.373  55.054  1.00  0.00    -0.030 A 
HETATM   22  C   UNL     1       7.880  23.054  54.516  1.00  0.00    -0.002 A 
HETATM   23  C   UNL     1       8.166  22.198  55.580  1.00  0.00     0.042 A 
HETATM   24  C   UNL     1       7.796  22.511  53.217  1.00  0.00     0.014 A 
HETATM   25  C   UNL     1       8.370  20.823  55.410  1.00  0.00     0.030 A 
HETATM   26  N   UNL     1       8.196  22.968  56.719  1.00  0.00    -0.365 N 
HETATM   27  C   UNL     1       8.278  20.309  54.113  1.00  0.00     0.002 A 
HETATM   28  C   UNL     1       7.996  21.138  53.030  1.00  0.00     0.001 A 
HETATM   29  H   UNL     1       8.386  22.611  57.644  1.00  0.00     0.165 HD
HETATM   30  C   UNL     1       7.932  24.277  56.416  1.00  0.00     0.096 A 
ENDBRANCH  20  21
ENDBRANCH  19  20
ENDBRANCH   3  19
TORSDOF 6
ENDMDL
MODEL 3
REMARK VINA RESULT:      -9.9      1.114      1.630
REMARK  6 active torsions:
REMARK  status: ('A' for Active; 'I' for Inactive)
REMARK    1  A    between atoms: O_2  and  C_3 
REMARK    2  A    between atoms: C_6  and  C_7 
REMARK       I    between atoms: C_7  and  N_8 
REMARK    3  A    between atoms: N_8  and  C_9 
REMARK    4  A    between atoms: C_11  and  C_12 
REMARK    5  A    between atoms: C_12  and  C_13 
REMARK    6  A    between atoms: C_13  and  C_14 
ROOT
HETATM    1  C   UNL     1       8.202  29.771  58.760  1.00  0.00     0.725 A 
HETATM    2  N   UNL     1       7.427  29.040  58.001  1.00  0.00    -0.046 NA
HETATM    3  C   UNL     1       8.240  28.631  56.980  1.00  0.00     0.166 A 
HETATM    4  N   UNL     1       9.505  29.067  57.069  1.00  0.00    -0.144 NA
HETATM    5  N   UNL     1       9.454  29.782  58.206  1.00  0.00    -0.106 N 
HETATM    6  H   UNL     1      10.292  30.244  58.534  1.00  0.00     0.208 HD
ENDROOT
BRANCH   1   7
HETATM    7  N   UNL     1       7.903  30.421  59.934  1.00  0.00    -0.152 N 
HETATM    8  C   UNL     1       8.229  31.753  60.114  1.00  0.00     0.270 C 
HETATM    9  O   UNL     1       8.896  32.466  59.375  1.00  0.00    -0.267 OA
HETATM   10  H   UNL     1       7.495  29.903  60.696  1.00  0.00     0.187 HD
BRANCH   8  11
HETATM   11  C   UNL     1       7.744  32.342  61.392  1.00  0.00     0.033 A 
HETATM   12  C   UNL     1       6.557  33.083  61.378  1.00  0.00     0.020 A 
HETATM   13  C   UNL     1       6.053  33.632  62.561  1.00  0.00     0.038 A 
HETATM   14  C   UNL     1       6.726  33.431  63.766  1.00  0.00     0.068 A 
HETATM   15  C   UNL     1       7.908  32.683  63.777  1.00  0.00     0.038 A 
HETATM   16  C   UNL     1       8.418  32.133  62.599  1.00  0.00     0.020 A 
BRANCH  14  17
HETATM   17  O   UNL     1       6.338  33.901  64.991  1.00  0.00    -0.356 OA
HETATM   18  C   UNL     1       5.143  34.672  65.032  1.00  0.00     0.210 C 
ENDBRANCH  14  17
ENDBRANCH   8  11
ENDBRANCH   1   7
BRANCH   3  19
HETATM   19  C   UNL     1       7.755  27.726  55.910  1.00  0.00     0.087 C 
BRANCH  19  20
HETATM   20  C   UNL     1       7.331  26.361  56.458  1.00  0.00     0.048 C 
BRANCH  20  21
HETATM   21  C   UNL     1       7.000  25.392  55.365  1.00  0.00    -0.030 A 
HETATM   22  C   UNL     1       7.725  24.198  55.051  1.00  0.00    -0.002 A 
HETATM   23  C   UNL     1       7.087  23.593  53.968  1.00  0.00     0.042 A 
HETATM   24  C   UNL     1       8.871  23.578  55.591  1.00  0.00     0.014 A 
HETATM   25  C   UNL     1       7.539  22.398  53.395  1.00  0.00     0.030 A 
HETATM   26  N   UNL     1       6.010  24.384  53.642  1.00  0.00    -0.365 N 
HETATM   27  C   UNL     1       8.679  21.805  53.946  1.00  0.00     0.002 A 
HETATM   28  C   UNL     1       9.338  22.383  55.029  1.00  0.00     0.001 A 
HETATM   29  H   UNL     1       5.362  24.185  52.894  1.00  0.00     0.165 HD
HETATM   30  C   UNL     1       5.949  25.471  54.474  1.00  0.00     0.096 A 
ENDBRANCH  20  21
ENDBRANCH  19  20
ENDBRANCH   3  19
TORSDOF 6
ENDMDL
MODEL 4
REMARK VINA RESULT:      -9.8      3.204      5.479
REMARK  6 active torsions:
REMARK  status: ('A' for Active; 'I' for Inactive)
REMARK    1  A    between atoms: O_2  and  C_3 
REMARK    2  A    between atoms: C_6  and  C_7 
REMARK       I    between atoms: C_7  and  N_8 
REMARK    3  A    between atoms: N_8  and  C_9 
REMARK    4  A    between atoms: C_11  and  C_12 
REMARK    5  A    between atoms: C_12  and  C_13 
REMARK    6  A    between atoms: C_13  and  C_14 
ROOT
HETATM    1  C   UNL     1       6.480  26.842  54.814  1.00  0.00     0.725 A 
HETATM    2  N   UNL     1       7.159  26.160  53.929  1.00  0.00    -0.046 NA
HETATM    3  C   UNL     1       6.256  25.264  53.426  1.00  0.00     0.166 A 
HETATM    4  N   UNL     1       5.027  25.361  53.951  1.00  0.00    -0.144 NA
HETATM    5  N   UNL     1       5.196  26.370  54.824  1.00  0.00    -0.106 N 
HETATM    6  H   UNL     1       4.409  26.673  55.383  1.00  0.00     0.208 HD
ENDROOT
BRANCH   1   7
HETATM    7  N   UNL     1       6.895  27.883  55.612  1.00  0.00    -0.152 N 
HETATM    8  C   UNL     1       7.839  27.688  56.603  1.00  0.00     0.270 C 
HETATM    9  O   UNL     1       8.315  26.626  56.984  1.00  0.00    -0.267 OA
HETATM   10  H   UNL     1       6.461  28.787  55.511  1.00  0.00     0.187 HD
BRANCH   8  11
HETATM   11  C   UNL     1       8.263  28.929  57.307  1.00  0.00     0.033 A 
HETATM   12  C   UNL     1       7.321  29.610  58.086  1.00  0.00     0.020 A 
HETATM   13  C   UNL     1       7.684  30.766  58.784  1.00  0.00     0.038 A 
HETATM   14  C   UNL     1       8.995  31.238  58.717  1.00  0.00     0.068 A 
HETATM   15  C   UNL     1       9.935  30.550  57.944  1.00  0.00     0.038 A 
HETATM   16  C   UNL     1       9.579  29.396  57.243  1.00  0.00     0.020 A 
BRANCH  14  17
HETATM   17  O   UNL     1       9.483  32.345  59.356  1.00  0.00    -0.356 OA
HETATM   18  C   UNL     1       9.452  32.330  60.778  1.00  0.00     0.210 C 
ENDBRANCH  14  17
ENDBRANCH   8  11
ENDBRANCH   1   7
BRANCH   3  19
HETATM   19  C   UNL     1       6.616  24.319  52.341  1.00  0.00     0.087 C 
BRANCH  19  20
HETATM   20  C   UNL     1       8.026  23.750  52.516  1.00  0.00     0.048 C 
BRANCH  20  21
HETATM   21  C   UNL     1       8.025  22.466  53.286  1.00  0.00    -0.030 A 
HETATM   22  C   UNL     1       8.137  22.337  54.708  1.00  0.00    -0.002 A 
HETATM   23  C   UNL     1       8.097  20.976  55.010  1.00  0.00     0.042 A 
HETATM   24  C   UNL     1       8.271  23.259  55.767  1.00  0.00     0.014 A 
HETATM   25  C   UNL     1       8.187  20.489  56.320  1.00  0.00     0.030 A 
HETATM   26  N   UNL     1       7.957  20.303  53.818  1.00  0.00    -0.365 N 
HETATM   27  C   UNL     1       8.323  21.423  57.351  1.00  0.00     0.002 A 
HETATM   28  C   UNL     1       8.364  22.789  57.082  1.00  0.00     0.001 A 
HETATM   29  H   UNL     1       7.895  19.299  53.734  1.00  0.00     0.165 HD
HETATM   30  C   UNL     1       7.915  21.189  52.774  1.00  0.00     0.096 A 
ENDBRANCH  20  21
ENDBRANCH  19  20
ENDBRANCH   3  19
TORSDOF 6
ENDMDL
MODEL 5
REMARK VINA RESULT:      -9.7      1.719      2.106
REMARK  6 active torsions:
REMARK  status: ('A' for Active; 'I' for Inactive)
REMARK    1  A    between atoms: O_2  and  C_3 
REMARK    2  A    between atoms: C_6  and  C_7 
REMARK       I    between atoms: C_7  and  N_8 
REMARK    3  A    between atoms: N_8  and  C_9 
REMARK    4  A    between atoms: C_11  and  C_12 
REMARK    5  A    between atoms: C_12  and  C_13 
REMARK    6  A    between atoms: C_13  and  C_14 
ROOT
HETATM    1  C   UNL     1       8.227  30.394  59.458  1.00  0.00     0.725 A 
HETATM    2  N   UNL     1       7.836  29.369  58.746  1.00  0.00    -0.046 NA
HETATM    3  C   UNL     1       8.867  29.148  57.874  1.00  0.00     0.166 A 
HETATM    4  N   UNL     1       9.902  29.987  58.015  1.00  0.00    -0.144 NA
HETATM    5  N   UNL     1       9.473  30.763  59.026  1.00  0.00    -0.106 N 
HETATM    6  H   UNL     1      10.067  31.510  59.359  1.00  0.00     0.208 HD
ENDROOT
BRANCH   1   7
HETATM    7  N   UNL     1       7.581  31.029  60.492  1.00  0.00    -0.152 N 
HETATM    8  C   UNL     1       8.136  31.076  61.758  1.00  0.00     0.270 C 
HETATM    9  O   UNL     1       9.138  30.496  62.156  1.00  0.00    -0.267 OA
HETATM   10  H   UNL     1       6.662  31.415  60.339  1.00  0.00     0.187 HD
BRANCH   8  11
HETATM   11  C   UNL     1       7.371  31.890  62.740  1.00  0.00     0.033 A 
HETATM   12  C   UNL     1       5.973  31.826  62.716  1.00  0.00     0.020 A 
HETATM   13  C   UNL     1       5.217  32.556  63.638  1.00  0.00     0.038 A 
HETATM   14  C   UNL     1       5.855  33.343  64.597  1.00  0.00     0.068 A 
HETATM   15  C   UNL     1       7.251  33.398  64.623  1.00  0.00     0.038 A 
HETATM   16  C   UNL     1       8.013  32.673  63.704  1.00  0.00     0.020 A 
BRANCH  14  17
HETATM   17  O   UNL     1       5.237  34.094  65.559  1.00  0.00    -0.356 OA
HETATM   18  C   UNL     1       5.941  34.274  66.782  1.00  0.00     0.210 C 
ENDBRANCH  14  17
ENDBRANCH   8  11
ENDBRANCH   1   7
BRANCH   3  19
HETATM   19  C   UNL     1       8.844  28.023  56.908  1.00  0.00     0.087 C 
BRANCH  19  20
HETATM   20  C   UNL     1       7.922  26.890  57.363  1.00  0.00     0.048 C 
BRANCH  20  21
HETATM   21  C   UNL     1       6.824  26.625  56.380  1.00  0.00    -0.030 A 
HETATM   22  C   UNL     1       6.882  25.713  55.278  1.00  0.00    -0.002 A 
HETATM   23  C   UNL     1       5.656  25.774  54.617  1.00  0.00     0.042 A 
HETATM   24  C   UNL     1       7.873  24.840  54.782  1.00  0.00     0.014 A 
HETATM   25  C   UNL     1       5.370  25.008  53.480  1.00  0.00     0.030 A 
HETATM   26  N   UNL     1       4.878  26.683  55.296  1.00  0.00    -0.365 N 
HETATM   27  C   UNL     1       6.369  24.153  53.007  1.00  0.00     0.002 A 
HETATM   28  C   UNL     1       7.604  24.067  53.646  1.00  0.00     0.001 A 
HETATM   29  H   UNL     1       3.932  26.927  55.042  1.00  0.00     0.165 HD
HETATM   30  C   UNL     1       5.571  27.204  56.357  1.00  0.00     0.096 A 
ENDBRANCH  20  21
ENDBRANCH  19  20
ENDBRANCH   3  19
TORSDOF 6
ENDMDL
MODEL 6
REMARK VINA RESULT:      -9.5      3.320     10.887
REMARK  6 active torsions:
REMARK  status: ('A' for Active; 'I' for Inactive)
REMARK    1  A    between atoms: O_2  and  C_3 
REMARK    2  A    between atoms: C_6  and  C_7 
REMARK       I    between atoms: C_7  and  N_8 
REMARK    3  A    between atoms: N_8  and  C_9 
REMARK    4  A    between atoms: C_11  and  C_12 
REMARK    5  A    between atoms: C_12  and  C_13 
REMARK    6  A    between atoms: C_13  and  C_14 
ROOT
HETATM    1  C   UNL     1       7.411  27.782  57.114  1.00  0.00     0.725 A 
HETATM    2  N   UNL     1       8.157  28.197  58.105  1.00  0.00    -0.046 NA
HETATM    3  C   UNL     1       7.690  29.454  58.378  1.00  0.00     0.166 A 
HETATM    4  N   UNL     1       6.668  29.847  57.606  1.00  0.00    -0.144 NA
HETATM    5  N   UNL     1       6.509  28.769  56.817  1.00  0.00    -0.106 N 
HETATM    6  H   UNL     1       5.785  28.779  56.111  1.00  0.00     0.208 HD
ENDROOT
BRANCH   1   7
HETATM    7  N   UNL     1       7.438  26.577  56.453  1.00  0.00    -0.152 N 
HETATM    8  C   UNL     1       7.382  26.521  55.072  1.00  0.00     0.270 C 
HETATM    9  O   UNL     1       7.182  27.445  54.294  1.00  0.00    -0.267 OA
HETATM   10  H   UNL     1       7.439  25.721  56.984  1.00  0.00     0.187 HD
BRANCH   8  11
HETATM   11  C   UNL     1       7.531  25.155  54.502  1.00  0.00     0.033 A 
HETATM   12  C   UNL     1       7.429  24.056  55.363  1.00  0.00     0.020 A 
HETATM   13  C   UNL     1       7.538  22.755  54.864  1.00  0.00     0.038 A 
HETATM   14  C   UNL     1       7.735  22.545  53.499  1.00  0.00     0.068 A 
HETATM   15  C   UNL     1       7.829  23.644  52.641  1.00  0.00     0.038 A 
HETATM   16  C   UNL     1       7.723  24.947  53.133  1.00  0.00     0.020 A 
BRANCH  14  17
HETATM   17  O   UNL     1       7.847  21.329  52.882  1.00  0.00    -0.356 OA
HETATM   18  C   UNL     1       8.640  20.347  53.539  1.00  0.00     0.210 C 
ENDBRANCH  14  17
ENDBRANCH   8  11
ENDBRANCH   1   7
BRANCH   3  19
HETATM   19  C   UNL     1       8.243  30.267  59.489  1.00  0.00     0.087 C 
BRANCH  19  20
HETATM   20  C   UNL     1       7.921  31.755  59.330  1.00  0.00     0.048 C 
BRANCH  20  21
HETATM   21  C   UNL     1       6.855  32.206  60.280  1.00  0.00    -0.030 A 
HETATM   22  C   UNL     1       7.034  32.494  61.671  1.00  0.00    -0.002 A 
HETATM   23  C   UNL     1       5.794  32.875  62.183  1.00  0.00     0.042 A 
HETATM   24  C   UNL     1       8.142  32.461  62.543  1.00  0.00     0.014 A 
HETATM   25  C   UNL     1       5.605  33.224  63.526  1.00  0.00     0.030 A 
HETATM   26  N   UNL     1       4.897  32.830  61.141  1.00  0.00    -0.365 N 
HETATM   27  C   UNL     1       6.719  33.180  64.370  1.00  0.00     0.002 A 
HETATM   28  C   UNL     1       7.971  32.805  63.889  1.00  0.00     0.001 A 
HETATM   29  H   UNL     1       3.918  33.062  61.221  1.00  0.00     0.165 HD
HETATM   30  C   UNL     1       5.523  32.426  59.992  1.00  0.00     0.096 A 
ENDBRANCH  20  21
ENDBRANCH  19  20
ENDBRANCH   3  19
TORSDOF 6
ENDMDL
MODEL 7
REMARK VINA RESULT:      -9.4      1.962      3.012
REMARK  6 active torsions:
REMARK  status: ('A' for Active; 'I' for Inactive)
REMARK    1  A    between atoms: O_2  and  C_3 
REMARK    2  A    between atoms: C_6  and  C_7 
REMARK       I    between atoms: C_7  and  N_8 
REMARK    3  A    between atoms: N_8  and  C_9 
REMARK    4  A    between atoms: C_11  and  C_12 
REMARK    5  A    between atoms: C_12  and  C_13 
REMARK    6  A    between atoms: C_13  and  C_14 
ROOT
HETATM    1  C   UNL     1       6.935  28.994  57.096  1.00  0.00     0.725 A 
HETATM    2  N   UNL     1       6.975  27.722  56.791  1.00  0.00    -0.046 NA
HETATM    3  C   UNL     1       6.744  27.689  55.443  1.00  0.00     0.166 A 
HETATM    4  N   UNL     1       6.571  28.893  54.880  1.00  0.00    -0.144 NA
HETATM    5  N   UNL     1       6.701  29.701  55.947  1.00  0.00    -0.106 N 
HETATM    6  H   UNL     1       6.615  30.701  55.821  1.00  0.00     0.208 HD
ENDROOT
BRANCH   1   7
HETATM    7  N   UNL     1       7.117  29.599  58.317  1.00  0.00    -0.152 N 
HETATM    8  C   UNL     1       8.289  30.270  58.613  1.00  0.00     0.270 C 
HETATM    9  O   UNL     1       9.314  30.314  57.944  1.00  0.00    -0.267 OA
HETATM   10  H   UNL     1       6.409  29.501  59.028  1.00  0.00     0.187 HD
BRANCH   8  11
HETATM   11  C   UNL     1       8.291  30.963  59.929  1.00  0.00     0.033 A 
HETATM   12  C   UNL     1       7.376  32.001  60.139  1.00  0.00     0.020 A 
HETATM   13  C   UNL     1       7.327  32.662  61.371  1.00  0.00     0.038 A 
HETATM   14  C   UNL     1       8.183  32.278  62.403  1.00  0.00     0.068 A 
HETATM   15  C   UNL     1       9.090  31.235  62.192  1.00  0.00     0.038 A 
HETATM   16  C   UNL     1       9.146  30.572  60.964  1.00  0.00     0.020 A 
BRANCH  14  17
HETATM   17  O   UNL     1       8.231  32.831  63.653  1.00  0.00    -0.356 OA
HETATM   18  C   UNL     1       6.984  33.087  64.289  1.00  0.00     0.210 C 
ENDBRANCH  14  17
ENDBRANCH   8  11
ENDBRANCH   1   7
BRANCH   3  19
HETATM   19  C   UNL     1       6.756  26.418  54.680  1.00  0.00     0.087 C 
BRANCH  19  20
HETATM   20  C   UNL     1       7.500  25.306  55.424  1.00  0.00     0.048 C 
BRANCH  20  21
HETATM   21  C   UNL     1       7.651  24.072  54.589  1.00  0.00    -0.030 A 
HETATM   22  C   UNL     1       7.950  22.758  55.075  1.00  0.00    -0.002 A 
HETATM   23  C   UNL     1       8.005  21.906  53.972  1.00  0.00     0.042 A 
HETATM   24  C   UNL     1       8.182  22.218  56.357  1.00  0.00     0.014 A 
HETATM   25  C   UNL     1       8.284  20.538  54.087  1.00  0.00     0.030 A 
HETATM   26  N   UNL     1       7.741  22.670  52.859  1.00  0.00    -0.365 N 
HETATM   27  C   UNL     1       8.512  20.028  55.368  1.00  0.00     0.002 A 
HETATM   28  C   UNL     1       8.463  20.853  56.489  1.00  0.00     0.001 A 
HETATM   29  H   UNL     1       7.710  22.312  51.916  1.00  0.00     0.165 HD
HETATM   30  C   UNL     1       7.529  23.975  53.218  1.00  0.00     0.096 A 
ENDBRANCH  20  21
ENDBRANCH  19  20
ENDBRANCH   3  19
TORSDOF 6
ENDMDL
MODEL 8
REMARK VINA RESULT:      -9.2      8.009     11.118
REMARK  6 active torsions:
REMARK  status: ('A' for Active; 'I' for Inactive)
REMARK    1  A    between atoms: O_2  and  C_3 
REMARK    2  A    between atoms: C_6  and  C_7 
REMARK       I    between atoms: C_7  and  N_8 
REMARK    3  A    between atoms: N_8  and  C_9 
REMARK    4  A    between atoms: C_11  and  C_12 
REMARK    5  A    between atoms: C_12  and  C_13 
REMARK    6  A    between atoms: C_13  and  C_14 
ROOT
HETATM    1  C   UNL     1       5.046  26.345  51.569  1.00  0.00     0.725 A 
HETATM    2  N   UNL     1       4.878  26.173  52.855  1.00  0.00    -0.046 NA
HETATM    3  C   UNL     1       6.109  25.783  53.308  1.00  0.00     0.166 A 
HETATM    4  N   UNL     1       7.053  25.712  52.359  1.00  0.00    -0.144 NA
HETATM    5  N   UNL     1       6.354  26.076  51.269  1.00  0.00    -0.106 N 
HETATM    6  H   UNL     1       6.824  26.113  50.374  1.00  0.00     0.208 HD
ENDROOT
BRANCH   1   7
HETATM    7  N   UNL     1       4.135  26.750  50.622  1.00  0.00    -0.152 N 
HETATM    8  C   UNL     1       4.463  27.709  49.681  1.00  0.00     0.270 C 
HETATM    9  O   UNL     1       5.482  28.386  49.629  1.00  0.00    -0.267 OA
HETATM   10  H   UNL     1       3.195  26.386  50.651  1.00  0.00     0.187 HD
BRANCH   8  11
HETATM   11  C   UNL     1       3.411  27.960  48.660  1.00  0.00     0.033 A 
HETATM   12  C   UNL     1       2.371  27.032  48.529  1.00  0.00     0.020 A 
HETATM   13  C   UNL     1       1.349  27.244  47.599  1.00  0.00     0.038 A 
HETATM   14  C   UNL     1       1.353  28.391  46.805  1.00  0.00     0.068 A 
HETATM   15  C   UNL     1       2.389  29.319  46.944  1.00  0.00     0.038 A 
HETATM   16  C   UNL     1       3.415  29.114  47.870  1.00  0.00     0.020 A 
BRANCH  14  17
HETATM   17  O   UNL     1       0.413  28.723  45.869  1.00  0.00    -0.356 OA
HETATM   18  C   UNL     1      -0.416  27.670  45.392  1.00  0.00     0.210 C 
ENDBRANCH  14  17
ENDBRANCH   8  11
ENDBRANCH   1   7
BRANCH   3  19
HETATM   19  C   UNL     1       6.366  25.531  54.746  1.00  0.00     0.087 C 
BRANCH  19  20
HETATM   20  C   UNL     1       7.847  25.266  55.029  1.00  0.00     0.048 C 
BRANCH  20  21
HETATM   21  C   UNL     1       8.082  23.888  55.568  1.00  0.00    -0.030 A 
HETATM   22  C   UNL     1       8.187  22.688  54.793  1.00  0.00    -0.002 A 
HETATM   23  C   UNL     1       8.400  21.634  55.680  1.00  0.00     0.042 A 
HETATM   24  C   UNL     1       8.118  22.406  53.413  1.00  0.00     0.014 A 
HETATM   25  C   UNL     1       8.545  20.307  55.257  1.00  0.00     0.030 A 
HETATM   26  N   UNL     1       8.432  22.172  56.945  1.00  0.00    -0.365 N 
HETATM   27  C   UNL     1       8.469  20.052  53.884  1.00  0.00     0.002 A 
HETATM   28  C   UNL     1       8.259  21.084  52.972  1.00  0.00     0.001 A 
HETATM   29  H   UNL     1       8.576  21.638  57.789  1.00  0.00     0.165 HD
HETATM   30  C   UNL     1       8.238  23.528  56.891  1.00  0.00     0.096 A 
ENDBRANCH  20  21
ENDBRANCH  19  20
ENDBRANCH   3  19
TORSDOF 6
ENDMDL
MODEL 9
REMARK VINA RESULT:      -9.0      3.546     10.440
REMARK  6 active torsions:
REMARK  status: ('A' for Active; 'I' for Inactive)
REMARK    1  A    between atoms: O_2  and  C_3 
REMARK    2  A    between atoms: C_6  and  C_7 
REMARK       I    between atoms: C_7  and  N_8 
REMARK    3  A    between atoms: N_8  and  C_9 
REMARK    4  A    between atoms: C_11  and  C_12 
REMARK    5  A    between atoms: C_12  and  C_13 
REMARK    6  A    between atoms: C_13  and  C_14 
ROOT
HETATM    1  C   UNL     1       6.014  28.202  55.986  1.00  0.00     0.725 A 
HETATM    2  N   UNL     1       5.691  28.702  57.151  1.00  0.00    -0.046 NA
HETATM    3  C   UNL     1       5.519  30.038  56.912  1.00  0.00     0.166 A 
HETATM    4  N   UNL     1       5.711  30.402  55.637  1.00  0.00    -0.144 NA
HETATM    5  N   UNL     1       6.019  29.221  55.072  1.00  0.00    -0.106 N 
HETATM    6  H   UNL     1       6.221  29.188  54.082  1.00  0.00     0.208 HD
ENDROOT
BRANCH   1   7
HETATM    7  N   UNL     1       6.286  26.898  55.646  1.00  0.00    -0.152 N 
HETATM    8  C   UNL     1       7.232  26.594  54.685  1.00  0.00     0.270 C 
HETATM    9  O   UNL     1       7.829  27.373  53.952  1.00  0.00    -0.267 OA
HETATM   10  H   UNL     1       5.746  26.156  56.062  1.00  0.00     0.187 HD
BRANCH   8  11
HETATM   11  C   UNL     1       7.489  25.140  54.507  1.00  0.00     0.033 A 
HETATM   12  C   UNL     1       7.638  24.641  53.207  1.00  0.00     0.020 A 
HETATM   13  C   UNL     1       7.906  23.285  52.997  1.00  0.00     0.038 A 
HETATM   14  C   UNL     1       8.041  22.423  54.086  1.00  0.00     0.068 A 
HETATM   15  C   UNL     1       7.900  22.927  55.383  1.00  0.00     0.038 A 
HETATM   16  C   UNL     1       7.631  24.280  55.600  1.00  0.00     0.020 A 
BRANCH  14  17
HETATM   17  O   UNL     1       8.313  21.084  54.021  1.00  0.00    -0.356 OA
HETATM   18  C   UNL     1       8.223  20.474  52.739  1.00  0.00     0.210 C 
ENDBRANCH  14  17
ENDBRANCH   8  11
ENDBRANCH   1   7
BRANCH   3  19
HETATM   19  C   UNL     1       5.091  30.973  57.981  1.00  0.00     0.087 C 
BRANCH  19  20
HETATM   20  C   UNL     1       6.174  32.002  58.315  1.00  0.00     0.048 C 
BRANCH  20  21
HETATM   21  C   UNL     1       7.072  31.538  59.420  1.00  0.00    -0.030 A 
HETATM   22  C   UNL     1       7.144  32.096  60.737  1.00  0.00    -0.002 A 
HETATM   23  C   UNL     1       8.105  31.375  61.446  1.00  0.00     0.042 A 
HETATM   24  C   UNL     1       6.476  33.153  61.389  1.00  0.00     0.014 A 
HETATM   25  C   UNL     1       8.435  31.661  62.776  1.00  0.00     0.030 A 
HETATM   26  N   UNL     1       8.593  30.410  60.595  1.00  0.00    -0.365 N 
HETATM   27  C   UNL     1       7.762  32.716  63.399  1.00  0.00     0.002 A 
HETATM   28  C   UNL     1       6.796  33.453  62.719  1.00  0.00     0.001 A 
HETATM   29  H   UNL     1       9.302  29.736  60.844  1.00  0.00     0.165 HD
HETATM   30  C   UNL     1       7.981  30.500  59.373  1.00  0.00     0.096 A 
ENDBRANCH  20  21
ENDBRANCH  19  20
ENDBRANCH   3  19
TORSDOF 6
ENDMDL
MODEL 10
REMARK VINA RESULT:      -8.9      8.392     12.020
REMARK  6 active torsions:
REMARK  status: ('A' for Active; 'I' for Inactive)
REMARK    1  A    between atoms: O_2  and  C_3 
REMARK    2  A    between atoms: C_6  and  C_7 
REMARK       I    between atoms: C_7  and  N_8 
REMARK    3  A    between atoms: N_8  and  C_9 
REMARK    4  A    between atoms: C_11  and  C_12 
REMARK    5  A    between atoms: C_12  and  C_13 
REMARK    6  A    between atoms: C_13  and  C_14 
ROOT
HETATM    1  C   UNL     1       4.455  27.198  50.213  1.00  0.00     0.725 A 
HETATM    2  N   UNL     1       4.953  25.995  50.333  1.00  0.00    -0.046 NA
HETATM    3  C   UNL     1       5.944  26.129  51.267  1.00  0.00     0.166 A 
HETATM    4  N   UNL     1       6.086  27.371  51.751  1.00  0.00    -0.144 NA
HETATM    5  N   UNL     1       5.129  28.026  51.070  1.00  0.00    -0.106 N 
HETATM    6  H   UNL     1       4.999  29.016  51.235  1.00  0.00     0.208 HD
ENDROOT
BRANCH   1   7
HETATM    7  N   UNL     1       3.422  27.635  49.417  1.00  0.00    -0.152 N 
HETATM    8  C   UNL     1       3.478  27.505  48.042  1.00  0.00     0.270 C 
HETATM    9  O   UNL     1       4.429  27.135  47.364  1.00  0.00    -0.267 OA
HETATM   10  H   UNL     1       2.640  28.110  49.839  1.00  0.00     0.187 HD
BRANCH   8  11
HETATM   11  C   UNL     1       2.241  27.923  47.330  1.00  0.00     0.033 A 
HETATM   12  C   UNL     1       2.076  29.277  47.015  1.00  0.00     0.020 A 
HETATM   13  C   UNL     1       0.940  29.708  46.324  1.00  0.00     0.038 A 
HETATM   14  C   UNL     1      -0.031  28.786  45.932  1.00  0.00     0.068 A 
HETATM   15  C   UNL     1       0.141  27.433  46.241  1.00  0.00     0.038 A 
HETATM   16  C   UNL     1       1.273  26.996  46.932  1.00  0.00     0.020 A 
BRANCH  14  17
HETATM   17  O   UNL     1      -1.179  29.072  45.244  1.00  0.00    -0.356 OA
HETATM   18  C   UNL     1      -2.311  29.452  46.017  1.00  0.00     0.210 C 
ENDBRANCH  14  17
ENDBRANCH   8  11
ENDBRANCH   1   7
BRANCH   3  19
HETATM   19  C   UNL     1       6.737  24.967  51.735  1.00  0.00     0.087 C 
BRANCH  19  20
HETATM   20  C   UNL     1       7.717  25.348  52.848  1.00  0.00     0.048 C 
BRANCH  20  21
HETATM   21  C   UNL     1       7.616  24.430  54.027  1.00  0.00    -0.030 A 
HETATM   22  C   UNL     1       7.814  23.012  54.010  1.00  0.00    -0.002 A 
HETATM   23  C   UNL     1       7.623  22.545  55.310  1.00  0.00     0.042 A 
HETATM   24  C   UNL     1       8.137  22.081  53.000  1.00  0.00     0.014 A 
HETATM   25  C   UNL     1       7.736  21.192  55.653  1.00  0.00     0.030 A 
HETATM   26  N   UNL     1       7.329  23.639  56.091  1.00  0.00    -0.365 N 
HETATM   27  C   UNL     1       8.054  20.290  54.633  1.00  0.00     0.002 A 
HETATM   28  C   UNL     1       8.253  20.725  53.325  1.00  0.00     0.001 A 
HETATM   29  H   UNL     1       7.147  23.600  57.083  1.00  0.00     0.165 HD
HETATM   30  C   UNL     1       7.319  24.778  55.330  1.00  0.00     0.096 A 
ENDBRANCH  20  21
ENDBRANCH  19  20
ENDBRANCH   3  19
TORSDOF 6
ENDMDL
