MODEL 1
REMARK VINA RESULT:      -8.8      0.000      0.000
REMARK  7 active torsions:
REMARK  status: ('A' for Active; 'I' for Inactive)
REMARK    1  A    between atoms: C_6  and  N_7 
REMARK       I    between atoms: N_7  and  C_8 
REMARK       I    between atoms: C_8  and  N_9 
REMARK    2  A    between atoms: N_9  and  C_10 
REMARK    3  A    between atoms: C_10  and  C_11 
REMARK    4  A    between atoms: C_11  and  O_12 
REMARK    5  A    between atoms: C_11  and  C_13 
REMARK    6  A    between atoms: C_13  and  N_14 
REMARK       I    between atoms: N_14  and  C_15 
REMARK       I    between atoms: C_15  and  N_16 
REMARK    7  A    between atoms: N_16  and  C_17 
ROOT
HETATM    1  C   UNL     1       8.308  29.067  57.897  1.00  0.00     0.153 C 
ENDROOT
BRANCH   1   2
HETATM    2  C   UNL     1       6.954  28.707  57.260  1.00  0.00     0.157 C 
BRANCH   2   3
HETATM    3  N   UNL     1       6.780  27.271  57.105  1.00  0.00    -0.340 N 
HETATM    4  C   UNL     1       7.197  26.613  55.971  1.00  0.00     0.320 C 
HETATM    5  N   UNL     1       7.152  25.248  56.147  1.00  0.00    -0.306 N 
HETATM    6  O   UNL     1       7.590  27.208  54.977  1.00  0.00    -0.247 OA
HETATM    7  H   UNL     1       7.247  24.960  57.108  1.00  0.00     0.171 HD
HETATM    8  H   UNL     1       6.811  26.763  57.977  1.00  0.00     0.164 HD
BRANCH   5   9
HETATM    9  C   UNL     1       7.494  24.282  55.171  1.00  0.00     0.077 A 
HETATM   10  C   UNL     1       6.872  24.060  53.936  1.00  0.00     0.152 A 
HETATM   11  N   UNL     1       7.274  23.114  53.046  1.00  0.00    -0.247 NA
HETATM   12 CL   UNL     1       5.365  24.748  53.464  1.00  0.00    -0.060 Cl
HETATM   13  C   UNL     1       8.326  22.348  53.391  1.00  0.00     0.118 A 
HETATM   14  C   UNL     1       8.983  22.453  54.603  1.00  0.00     0.022 A 
HETATM   15  C   UNL     1       8.553  23.425  55.503  1.00  0.00     0.034 A 
ENDBRANCH   5   9
ENDBRANCH   2   3
ENDBRANCH   1   2
BRANCH   1  16
HETATM   16  O   UNL     1       9.317  28.978  56.877  1.00  0.00    -0.392 OA
HETATM   17  H   UNL     1      10.056  28.434  57.229  1.00  0.00     0.210 HD
ENDBRANCH   1  16
BRANCH   1  18
HETATM   18  C   UNL     1       8.287  30.446  58.584  1.00  0.00     0.157 C 
BRANCH  18  19
HETATM   19  N   UNL     1       8.007  30.356  60.015  1.00  0.00    -0.340 N 
HETATM   20  C   UNL     1       7.489  31.424  60.710  1.00  0.00     0.320 C 
HETATM   21  N   UNL     1       7.207  31.074  62.008  1.00  0.00    -0.306 N 
HETATM   22  O   UNL     1       7.278  32.503  60.174  1.00  0.00    -0.247 OA
HETATM   23  H   UNL     1       6.965  30.099  62.104  1.00  0.00     0.171 HD
HETATM   24  H   UNL     1       8.519  29.668  60.549  1.00  0.00     0.164 HD
BRANCH  21  25
HETATM   25  C   UNL     1       6.680  31.950  62.989  1.00  0.00     0.077 A 
HETATM   26  C   UNL     1       5.333  32.274  63.204  1.00  0.00     0.152 A 
HETATM   27 CL   UNL     1       4.052  31.881  62.121  1.00  0.00    -0.060 Cl
HETATM   28  N   UNL     1       4.902  33.109  64.186  1.00  0.00    -0.247 NA
HETATM   29  C   UNL     1       5.837  33.659  64.984  1.00  0.00     0.118 A 
HETATM   30  C   UNL     1       7.195  33.445  64.828  1.00  0.00     0.022 A 
HETATM   31  C   UNL     1       7.616  32.588  63.813  1.00  0.00     0.034 A 
ENDBRANCH  21  25
ENDBRANCH  18  19
ENDBRANCH   1  18
TORSDOF 7
ENDMDL
MODEL 2
REMARK VINA RESULT:      -8.8      1.716      1.866
REMARK  7 active torsions:
REMARK  status: ('A' for Active; 'I' for Inactive)
REMARK    1  A    between atoms: C_6  and  N_7 
REMARK       I    between atoms: N_7  and  C_8 
REMARK       I    between atoms: C_8  and  N_9 
REMARK    2  A    between atoms: N_9  and  C_10 
REMARK    3  A    between atoms: C_10  and  C_11 
REMARK    4  A    between atoms: C_11  and  O_12 
REMARK    5  A    between atoms: C_11  and  C_13 
REMARK    6  A    between atoms: C_13  and  N_14 
REMARK       I    between atoms: N_14  and  C_15 
REMARK       I    between atoms: C_15  and  N_16 
REMARK    7  A    between atoms: N_16  and  C_17 
ROOT
HETATM    1  C   UNL     1       8.266  28.896  56.556  1.00  0.00     0.153 C 
ENDROOT
BRANCH   1   2
HETATM    2  C   UNL     1       7.573  27.744  57.307  1.00  0.00     0.157 C 
BRANCH   2   3
HETATM    3  N   UNL     1       8.303  26.492  57.191  1.00  0.00    -0.340 N 
HETATM    4  C   UNL     1       7.737  25.379  56.613  1.00  0.00     0.320 C 
HETATM    5  N   UNL     1       8.681  24.400  56.398  1.00  0.00    -0.306 N 
HETATM    6  O   UNL     1       6.553  25.331  56.308  1.00  0.00    -0.247 OA
HETATM    7  H   UNL     1       9.616  24.758  56.283  1.00  0.00     0.171 HD
HETATM    8  H   UNL     1       9.301  26.611  57.094  1.00  0.00     0.164 HD
BRANCH   5   9
HETATM    9  C   UNL     1       8.430  23.124  55.839  1.00  0.00     0.077 A 
HETATM   10  C   UNL     1       8.245  22.807  54.488  1.00  0.00     0.152 A 
HETATM   11  N   UNL     1       8.020  21.546  54.030  1.00  0.00    -0.247 NA
HETATM   12 CL   UNL     1       8.008  23.967  53.235  1.00  0.00    -0.060 Cl
HETATM   13  C   UNL     1       7.966  20.558  54.943  1.00  0.00     0.118 A 
HETATM   14  C   UNL     1       8.090  20.768  56.304  1.00  0.00     0.022 A 
HETATM   15  C   UNL     1       8.314  22.067  56.753  1.00  0.00     0.034 A 
ENDBRANCH   5   9
ENDBRANCH   2   3
ENDBRANCH   1   2
BRANCH   1  16
HETATM   16  O   UNL     1       7.268  29.588  55.786  1.00  0.00    -0.392 OA
HETATM   17  H   UNL     1       7.063  29.042  54.995  1.00  0.00     0.210 HD
ENDBRANCH   1  16
BRANCH   1  18
HETATM   18  C   UNL     1       9.035  29.838  57.503  1.00  0.00     0.157 C 
BRANCH  18  19
HETATM   19  N   UNL     1       8.489  29.838  58.858  1.00  0.00    -0.340 N 
HETATM   20  C   UNL     1       8.269  31.013  59.538  1.00  0.00     0.320 C 
HETATM   21  N   UNL     1       7.653  30.774  60.743  1.00  0.00    -0.306 N 
HETATM   22  O   UNL     1       8.556  32.101  59.060  1.00  0.00    -0.247 OA
HETATM   23  H   UNL     1       7.067  29.952  60.723  1.00  0.00     0.171 HD
HETATM   24  H   UNL     1       8.618  29.005  59.413  1.00  0.00     0.164 HD
BRANCH  21  25
HETATM   25  C   UNL     1       7.305  31.770  61.689  1.00  0.00     0.077 A 
HETATM   26  C   UNL     1       6.239  32.677  61.616  1.00  0.00     0.152 A 
HETATM   27 CL   UNL     1       5.289  32.951  60.204  1.00  0.00    -0.060 Cl
HETATM   28  N   UNL     1       5.955  33.591  62.580  1.00  0.00    -0.247 NA
HETATM   29  C   UNL     1       6.762  33.623  63.658  1.00  0.00     0.118 A 
HETATM   30  C   UNL     1       7.868  32.807  63.808  1.00  0.00     0.022 A 
HETATM   31  C   UNL     1       8.145  31.878  62.806  1.00  0.00     0.034 A 
ENDBRANCH  21  25
ENDBRANCH  18  19
ENDBRANCH   1  18
TORSDOF 7
ENDMDL
MODEL 3
REMARK VINA RESULT:      -8.6      1.733      2.087
REMARK  7 active torsions:
REMARK  status: ('A' for Active; 'I' for Inactive)
REMARK    1  A    between atoms: C_6  and  N_7 
REMARK       I    between atoms: N_7  and  C_8 
REMARK       I    between atoms: C_8  and  N_9 
REMARK    2  A    between atoms: N_9  and  C_10 
REMARK    3  A    between atoms: C_10  and  C_11 
REMARK    4  A    between atoms: C_11  and  O_12 
REMARK    5  A    between atoms: C_11  and  C_13 
REMARK    6  A    between atoms: C_13  and  N_14 
REMARK       I    between atoms: N_14  and  C_15 
REMARK       I    between atoms: C_15  and  N_16 
REMARK    7  A    between atoms: N_16  and  C_17 
ROOT
HETATM    1  C   UNL     1       9.687  30.320  58.172  1.00  0.00     0.153 C 
ENDROOT
BRANCH   1   2
HETATM    2  C   UNL     1       9.808  29.408  56.937  1.00  0.00     0.157 C 
BRANCH   2   3
HETATM    3  N   UNL     1       8.761  28.399  56.891  1.00  0.00    -0.340 N 
HETATM    4  C   UNL     1       8.157  28.042  55.708  1.00  0.00     0.320 C 
HETATM    5  N   UNL     1       7.381  26.916  55.870  1.00  0.00    -0.306 N 
HETATM    6  O   UNL     1       8.350  28.651  54.665  1.00  0.00    -0.247 OA
HETATM    7  H   UNL     1       7.687  26.318  56.622  1.00  0.00     0.171 HD
HETATM    8  H   UNL     1       8.852  27.688  57.602  1.00  0.00     0.164 HD
BRANCH   5   9
HETATM    9  C   UNL     1       6.609  26.296  54.858  1.00  0.00     0.077 A 
HETATM   10  C   UNL     1       5.430  26.773  54.273  1.00  0.00     0.152 A 
HETATM   11  N   UNL     1       4.753  26.119  53.291  1.00  0.00    -0.247 NA
HETATM   12 CL   UNL     1       4.512  28.103  54.871  1.00  0.00    -0.060 Cl
HETATM   13  C   UNL     1       5.255  24.941  52.875  1.00  0.00     0.118 A 
HETATM   14  C   UNL     1       6.387  24.359  53.415  1.00  0.00     0.022 A 
HETATM   15  C   UNL     1       7.062  25.042  54.423  1.00  0.00     0.034 A 
ENDBRANCH   5   9
ENDBRANCH   2   3
ENDBRANCH   1   2
BRANCH   1  16
HETATM   16  O   UNL     1      10.431  31.522  57.911  1.00  0.00    -0.392 OA
HETATM   17  H   UNL     1       9.831  32.159  57.464  1.00  0.00     0.210 HD
ENDBRANCH   1  16
BRANCH   1  18
HETATM   18  C   UNL     1       8.221  30.607  58.550  1.00  0.00     0.157 C 
BRANCH  18  19
HETATM   19  N   UNL     1       7.978  30.485  59.985  1.00  0.00    -0.340 N 
HETATM   20  C   UNL     1       7.443  31.524  60.710  1.00  0.00     0.320 C 
HETATM   21  N   UNL     1       7.202  31.145  62.008  1.00  0.00    -0.306 N 
HETATM   22  O   UNL     1       7.187  32.605  60.198  1.00  0.00    -0.247 OA
HETATM   23  H   UNL     1       6.993  30.161  62.092  1.00  0.00     0.171 HD
HETATM   24  H   UNL     1       8.523  29.804  60.495  1.00  0.00     0.164 HD
BRANCH  21  25
HETATM   25  C   UNL     1       6.671  31.988  63.016  1.00  0.00     0.077 A 
HETATM   26  C   UNL     1       5.322  32.282  63.254  1.00  0.00     0.152 A 
HETATM   27 CL   UNL     1       4.035  31.892  62.176  1.00  0.00    -0.060 Cl
HETATM   28  N   UNL     1       4.888  33.086  64.260  1.00  0.00    -0.247 NA
HETATM   29  C   UNL     1       5.823  33.633  65.060  1.00  0.00     0.118 A 
HETATM   30  C   UNL     1       7.182  33.447  64.884  1.00  0.00     0.022 A 
HETATM   31  C   UNL     1       7.607  32.623  63.844  1.00  0.00     0.034 A 
ENDBRANCH  21  25
ENDBRANCH  18  19
ENDBRANCH   1  18
TORSDOF 7
ENDMDL
MODEL 4
REMARK VINA RESULT:      -8.6      0.802     10.628
REMARK  7 active torsions:
REMARK  status: ('A' for Active; 'I' for Inactive)
REMARK    1  A    between atoms: C_6  and  N_7 
REMARK       I    between atoms: N_7  and  C_8 
REMARK       I    between atoms: C_8  and  N_9 
REMARK    2  A    between atoms: N_9  and  C_10 
REMARK    3  A    between atoms: C_10  and  C_11 
REMARK    4  A    between atoms: C_11  and  O_12 
REMARK    5  A    between atoms: C_11  and  C_13 
REMARK    6  A    between atoms: C_13  and  N_14 
REMARK       I    between atoms: N_14  and  C_15 
REMARK       I    between atoms: C_15  and  N_16 
REMARK    7  A    between atoms: N_16  and  C_17 
ROOT
HETATM    1  C   UNL     1       6.773  30.104  57.795  1.00  0.00     0.153 C 
ENDROOT
BRANCH   1   2
HETATM    2  C   UNL     1       8.093  30.440  58.514  1.00  0.00     0.157 C 
BRANCH   2   3
HETATM    3  N   UNL     1       7.961  30.388  59.962  1.00  0.00    -0.340 N 
HETATM    4  C   UNL     1       7.454  31.448  60.677  1.00  0.00     0.320 C 
HETATM    5  N   UNL     1       7.201  31.088  61.982  1.00  0.00    -0.306 N 
HETATM    6  O   UNL     1       7.233  32.537  60.165  1.00  0.00    -0.247 OA
HETATM    7  H   UNL     1       7.013  30.105  62.101  1.00  0.00     0.171 HD
HETATM    8  H   UNL     1       7.793  29.460  60.321  1.00  0.00     0.164 HD
BRANCH   5   9
HETATM    9  C   UNL     1       6.696  31.945  62.989  1.00  0.00     0.077 A 
HETATM   10  C   UNL     1       5.358  32.279  63.231  1.00  0.00     0.152 A 
HETATM   11  N   UNL     1       4.953  33.104  64.234  1.00  0.00    -0.247 NA
HETATM   12 CL   UNL     1       4.053  31.925  62.162  1.00  0.00    -0.060 Cl
HETATM   13  C   UNL     1       5.909  33.629  65.024  1.00  0.00     0.118 A 
HETATM   14  C   UNL     1       7.260  33.401  64.845  1.00  0.00     0.022 A 
HETATM   15  C   UNL     1       7.654  32.557  63.809  1.00  0.00     0.034 A 
ENDBRANCH   5   9
ENDBRANCH   2   3
ENDBRANCH   1   2
BRANCH   1  16
HETATM   16  O   UNL     1       6.032  31.324  57.631  1.00  0.00    -0.392 OA
HETATM   17  H   UNL     1       5.118  31.089  57.358  1.00  0.00     0.210 HD
ENDBRANCH   1  16
BRANCH   1  18
HETATM   18  C   UNL     1       7.003  29.371  56.459  1.00  0.00     0.157 C 
BRANCH  18  19
HETATM   19  N   UNL     1       6.865  27.922  56.582  1.00  0.00    -0.340 N 
HETATM   20  C   UNL     1       7.224  27.081  55.555  1.00  0.00     0.320 C 
HETATM   21  N   UNL     1       7.112  25.765  55.936  1.00  0.00    -0.306 N 
HETATM   22  O   UNL     1       7.634  27.506  54.484  1.00  0.00    -0.247 OA
HETATM   23  H   UNL     1       7.265  25.634  56.926  1.00  0.00     0.171 HD
HETATM   24  H   UNL     1       6.189  27.572  57.245  1.00  0.00     0.164 HD
BRANCH  21  25
HETATM   25  C   UNL     1       7.389  24.652  55.105  1.00  0.00     0.077 A 
HETATM   26  C   UNL     1       6.706  24.268  53.943  1.00  0.00     0.152 A 
HETATM   27 CL   UNL     1       5.195  24.927  53.438  1.00  0.00    -0.060 Cl
HETATM   28  N   UNL     1       7.048  23.195  53.183  1.00  0.00    -0.247 NA
HETATM   29  C   UNL     1       8.100  22.460  53.590  1.00  0.00     0.118 A 
HETATM   30  C   UNL     1       8.812  22.721  54.746  1.00  0.00     0.022 A 
HETATM   31  C   UNL     1       8.443  23.825  55.514  1.00  0.00     0.034 A 
ENDBRANCH  21  25
ENDBRANCH  18  19
ENDBRANCH   1  18
TORSDOF 7
ENDMDL
MODEL 5
REMARK VINA RESULT:      -8.6      1.447     10.518
REMARK  7 active torsions:
REMARK  status: ('A' for Active; 'I' for Inactive)
REMARK    1  A    between atoms: C_6  and  N_7 
REMARK       I    between atoms: N_7  and  C_8 
REMARK       I    between atoms: C_8  and  N_9 
REMARK    2  A    between atoms: N_9  and  C_10 
REMARK    3  A    between atoms: C_10  and  C_11 
REMARK    4  A    between atoms: C_11  and  O_12 
REMARK    5  A    between atoms: C_11  and  C_13 
REMARK    6  A    between atoms: C_13  and  N_14 
REMARK       I    between atoms: N_14  and  C_15 
REMARK       I    between atoms: C_15  and  N_16 
REMARK    7  A    between atoms: N_16  and  C_17 
ROOT
HETATM    1  C   UNL     1       7.727  29.189  57.111  1.00  0.00     0.153 C 
ENDROOT
BRANCH   1   2
HETATM    2  C   UNL     1       8.769  29.888  58.003  1.00  0.00     0.157 C 
BRANCH   2   3
HETATM    3  N   UNL     1       8.365  29.926  59.399  1.00  0.00    -0.340 N 
HETATM    4  C   UNL     1       8.081  31.113  60.034  1.00  0.00     0.320 C 
HETATM    5  N   UNL     1       7.496  30.889  61.260  1.00  0.00    -0.306 N 
HETATM    6  O   UNL     1       8.298  32.200  59.517  1.00  0.00    -0.247 OA
HETATM    7  H   UNL     1       7.000  30.013  61.319  1.00  0.00     0.171 HD
HETATM    8  H   UNL     1       7.861  29.104  59.698  1.00  0.00     0.164 HD
BRANCH   5   9
HETATM    9  C   UNL     1       7.098  31.892  62.177  1.00  0.00     0.077 A 
HETATM   10  C   UNL     1       5.896  32.609  62.187  1.00  0.00     0.152 A 
HETATM   11  N   UNL     1       5.584  33.552  63.117  1.00  0.00    -0.247 NA
HETATM   12 CL   UNL     1       4.750  32.614  60.900  1.00  0.00    -0.060 Cl
HETATM   13  C   UNL     1       6.501  33.804  64.071  1.00  0.00     0.118 A 
HETATM   14  C   UNL     1       7.736  33.186  64.127  1.00  0.00     0.022 A 
HETATM   15  C   UNL     1       8.037  32.228  63.163  1.00  0.00     0.034 A 
ENDBRANCH   5   9
ENDBRANCH   2   3
ENDBRANCH   1   2
BRANCH   1  16
HETATM   16  O   UNL     1       8.300  29.021  55.804  1.00  0.00    -0.392 OA
HETATM   17  H   UNL     1       8.218  29.874  55.325  1.00  0.00     0.210 HD
ENDBRANCH   1  16
BRANCH   1  18
HETATM   18  C   UNL     1       7.236  27.858  57.713  1.00  0.00     0.157 C 
BRANCH  18  19
HETATM   19  N   UNL     1       8.077  26.726  57.331  1.00  0.00    -0.340 N 
HETATM   20  C   UNL     1       7.529  25.563  56.841  1.00  0.00     0.320 C 
HETATM   21  N   UNL     1       8.510  24.686  56.448  1.00  0.00    -0.306 N 
HETATM   22  O   UNL     1       6.320  25.410  56.742  1.00  0.00    -0.247 OA
HETATM   23  H   UNL     1       9.347  25.155  56.134  1.00  0.00     0.171 HD
HETATM   24  H   UNL     1       8.990  26.658  57.757  1.00  0.00     0.164 HD
BRANCH  21  25
HETATM   25  C   UNL     1       8.280  23.392  55.917  1.00  0.00     0.077 A 
HETATM   26  C   UNL     1       7.940  23.063  54.598  1.00  0.00     0.152 A 
HETATM   27 CL   UNL     1       7.455  24.207  53.403  1.00  0.00    -0.060 Cl
HETATM   28  N   UNL     1       7.757  21.791  54.158  1.00  0.00    -0.247 NA
HETATM   29  C   UNL     1       7.902  20.800  55.057  1.00  0.00     0.118 A 
HETATM   30  C   UNL     1       8.187  21.016  56.393  1.00  0.00     0.022 A 
HETATM   31  C   UNL     1       8.368  22.329  56.825  1.00  0.00     0.034 A 
ENDBRANCH  21  25
ENDBRANCH  18  19
ENDBRANCH   1  18
TORSDOF 7
ENDMDL
MODEL 6
REMARK VINA RESULT:      -8.5      5.287      8.967
REMARK  7 active torsions:
REMARK  status: ('A' for Active; 'I' for Inactive)
REMARK    1  A    between atoms: C_6  and  N_7 
REMARK       I    between atoms: N_7  and  C_8 
REMARK       I    between atoms: C_8  and  N_9 
REMARK    2  A    between atoms: N_9  and  C_10 
REMARK    3  A    between atoms: C_10  and  C_11 
REMARK    4  A    between atoms: C_11  and  O_12 
REMARK    5  A    between atoms: C_11  and  C_13 
REMARK    6  A    between atoms: C_13  and  N_14 
REMARK       I    between atoms: N_14  and  C_15 
REMARK       I    between atoms: C_15  and  N_16 
REMARK    7  A    between atoms: N_16  and  C_17 
ROOT
HETATM    1  C   UNL     1       7.675  28.344  57.424  1.00  0.00     0.153 C 
ENDROOT
BRANCH   1   2
HETATM    2  C   UNL     1       8.288  28.565  56.029  1.00  0.00     0.157 C 
BRANCH   2   3
HETATM    3  N   UNL     1       7.280  28.867  55.024  1.00  0.00    -0.340 N 
HETATM    4  C   UNL     1       7.163  28.119  53.875  1.00  0.00     0.320 C 
HETATM    5  N   UNL     1       6.005  28.432  53.199  1.00  0.00    -0.306 N 
HETATM    6  O   UNL     1       7.985  27.269  53.561  1.00  0.00    -0.247 OA
HETATM    7  H   UNL     1       5.272  28.785  53.793  1.00  0.00     0.171 HD
HETATM    8  H   UNL     1       6.438  29.274  55.404  1.00  0.00     0.164 HD
BRANCH   5   9
HETATM    9  C   UNL     1       5.591  27.862  51.971  1.00  0.00     0.077 A 
HETATM   10  C   UNL     1       5.182  26.544  51.738  1.00  0.00     0.152 A 
HETATM   11  N   UNL     1       4.784  26.078  50.523  1.00  0.00    -0.247 NA
HETATM   12 CL   UNL     1       5.365  25.251  52.862  1.00  0.00    -0.060 Cl
HETATM   13  C   UNL     1       4.799  26.946  49.494  1.00  0.00     0.118 A 
HETATM   14  C   UNL     1       5.227  28.256  49.605  1.00  0.00     0.022 A 
HETATM   15  C   UNL     1       5.635  28.712  50.856  1.00  0.00     0.034 A 
ENDBRANCH   5   9
ENDBRANCH   2   3
ENDBRANCH   1   2
BRANCH   1  16
HETATM   16  O   UNL     1       6.674  29.353  57.635  1.00  0.00    -0.392 OA
HETATM   17  H   UNL     1       5.901  29.136  57.069  1.00  0.00     0.210 HD
ENDBRANCH   1  16
BRANCH   1  18
HETATM   18  C   UNL     1       7.119  26.918  57.602  1.00  0.00     0.157 C 
BRANCH  18  19
HETATM   19  N   UNL     1       7.982  25.901  57.006  1.00  0.00    -0.340 N 
HETATM   20  C   UNL     1       7.455  24.822  56.336  1.00  0.00     0.320 C 
HETATM   21  N   UNL     1       8.450  24.062  55.769  1.00  0.00    -0.306 N 
HETATM   22  O   UNL     1       6.249  24.644  56.243  1.00  0.00    -0.247 OA
HETATM   23  H   UNL     1       9.261  24.609  55.520  1.00  0.00     0.171 HD
HETATM   24  H   UNL     1       8.910  25.793  57.389  1.00  0.00     0.164 HD
BRANCH  21  25
HETATM   25  C   UNL     1       8.243  22.873  55.027  1.00  0.00     0.077 A 
HETATM   26  C   UNL     1       8.092  21.573  55.529  1.00  0.00     0.152 A 
HETATM   27 CL   UNL     1       8.413  21.115  57.159  1.00  0.00    -0.060 Cl
HETATM   28  N   UNL     1       7.872  20.482  54.750  1.00  0.00    -0.247 NA
HETATM   29  C   UNL     1       7.809  20.675  53.419  1.00  0.00     0.118 A 
HETATM   30  C   UNL     1       7.992  21.907  52.817  1.00  0.00     0.022 A 
HETATM   31  C   UNL     1       8.221  23.013  53.633  1.00  0.00     0.034 A 
ENDBRANCH  21  25
ENDBRANCH  18  19
ENDBRANCH   1  18
TORSDOF 7
ENDMDL
MODEL 7
REMARK VINA RESULT:      -8.5      5.215      8.998
REMARK  7 active torsions:
REMARK  status: ('A' for Active; 'I' for Inactive)
REMARK    1  A    between atoms: C_6  and  N_7 
REMARK       I    between atoms: N_7  and  C_8 
REMARK       I    between atoms: C_8  and  N_9 
REMARK    2  A    between atoms: N_9  and  C_10 
REMARK    3  A    between atoms: C_10  and  C_11 
REMARK    4  A    between atoms: C_11  and  O_12 
REMARK    5  A    between atoms: C_11  and  C_13 
REMARK    6  A    between atoms: C_13  and  N_14 
REMARK       I    between atoms: N_14  and  C_15 
REMARK       I    between atoms: C_15  and  N_16 
REMARK    7  A    between atoms: N_16  and  C_17 
ROOT
HETATM    1  C   UNL     1       7.616  28.277  57.615  1.00  0.00     0.153 C 
ENDROOT
BRANCH   1   2
HETATM    2  C   UNL     1       8.318  28.741  56.326  1.00  0.00     0.157 C 
BRANCH   2   3
HETATM    3  N   UNL     1       7.375  29.050  55.263  1.00  0.00    -0.340 N 
HETATM    4  C   UNL     1       7.229  28.229  54.169  1.00  0.00     0.320 C 
HETATM    5  N   UNL     1       6.126  28.586  53.426  1.00  0.00    -0.306 N 
HETATM    6  O   UNL     1       7.982  27.290  53.951  1.00  0.00    -0.247 OA
HETATM    7  H   UNL     1       5.408  29.046  53.964  1.00  0.00     0.171 HD
HETATM    8  H   UNL     1       6.560  29.556  55.579  1.00  0.00     0.164 HD
BRANCH   5   9
HETATM    9  C   UNL     1       5.703  27.962  52.229  1.00  0.00     0.077 A 
HETATM   10  C   UNL     1       5.540  28.553  50.970  1.00  0.00     0.152 A 
HETATM   11  N   UNL     1       5.140  27.875  49.861  1.00  0.00    -0.247 NA
HETATM   12 CL   UNL     1       5.556  30.252  50.679  1.00  0.00    -0.060 Cl
HETATM   13  C   UNL     1       4.880  26.561  50.001  1.00  0.00     0.118 A 
HETATM   14  C   UNL     1       4.966  25.889  51.206  1.00  0.00     0.022 A 
HETATM   15  C   UNL     1       5.372  26.602  52.331  1.00  0.00     0.034 A 
ENDBRANCH   5   9
ENDBRANCH   2   3
ENDBRANCH   1   2
BRANCH   1  16
HETATM   16  O   UNL     1       6.689  29.302  58.010  1.00  0.00    -0.392 OA
HETATM   17  H   UNL     1       7.086  30.173  57.787  1.00  0.00     0.210 HD
ENDBRANCH   1  16
BRANCH   1  18
HETATM   18  C   UNL     1       6.939  26.903  57.454  1.00  0.00     0.157 C 
BRANCH  18  19
HETATM   19  N   UNL     1       7.850  25.887  56.933  1.00  0.00    -0.340 N 
HETATM   20  C   UNL     1       7.384  24.812  56.212  1.00  0.00     0.320 C 
HETATM   21  N   UNL     1       8.424  24.053  55.734  1.00  0.00    -0.306 N 
HETATM   22  O   UNL     1       6.190  24.638  56.010  1.00  0.00    -0.247 OA
HETATM   23  H   UNL     1       9.256  24.599  55.562  1.00  0.00     0.171 HD
HETATM   24  H   UNL     1       8.740  25.774  57.397  1.00  0.00     0.164 HD
BRANCH  21  25
HETATM   25  C   UNL     1       8.282  22.868  54.969  1.00  0.00     0.077 A 
HETATM   26  C   UNL     1       8.185  22.763  53.575  1.00  0.00     0.152 A 
HETATM   27 CL   UNL     1       7.936  24.097  52.512  1.00  0.00    -0.060 Cl
HETATM   28  N   UNL     1       8.074  21.583  52.911  1.00  0.00    -0.247 NA
HETATM   29  C   UNL     1       8.044  20.458  53.650  1.00  0.00     0.118 A 
HETATM   30  C   UNL     1       8.084  20.453  55.033  1.00  0.00     0.022 A 
HETATM   31  C   UNL     1       8.194  21.674  55.696  1.00  0.00     0.034 A 
ENDBRANCH  21  25
ENDBRANCH  18  19
ENDBRANCH   1  18
TORSDOF 7
ENDMDL
MODEL 8
REMARK VINA RESULT:      -8.3      1.305      1.522
REMARK  7 active torsions:
REMARK  status: ('A' for Active; 'I' for Inactive)
REMARK    1  A    between atoms: C_6  and  N_7 
REMARK       I    between atoms: N_7  and  C_8 
REMARK       I    between atoms: C_8  and  N_9 
REMARK    2  A    between atoms: N_9  and  C_10 
REMARK    3  A    between atoms: C_10  and  C_11 
REMARK    4  A    between atoms: C_11  and  O_12 
REMARK    5  A    between atoms: C_11  and  C_13 
REMARK    6  A    between atoms: C_13  and  N_14 
REMARK       I    between atoms: N_14  and  C_15 
REMARK       I    between atoms: C_15  and  N_16 
REMARK    7  A    between atoms: N_16  and  C_17 
ROOT
HETATM    1  C   UNL     1       7.497  29.544  57.514  1.00  0.00     0.153 C 
ENDROOT
BRANCH   1   2
HETATM    2  C   UNL     1       6.516  29.371  56.340  1.00  0.00     0.157 C 
BRANCH   2   3
HETATM    3  N   UNL     1       6.169  27.977  56.110  1.00  0.00    -0.340 N 
HETATM    4  C   UNL     1       6.996  27.137  55.401  1.00  0.00     0.320 C 
HETATM    5  N   UNL     1       6.586  25.828  55.517  1.00  0.00    -0.306 N 
HETATM    6  O   UNL     1       7.979  27.543  54.797  1.00  0.00    -0.247 OA
HETATM    7  H   UNL     1       6.079  25.636  56.367  1.00  0.00     0.171 HD
HETATM    8  H   UNL     1       5.614  27.571  56.849  1.00  0.00     0.164 HD
BRANCH   5   9
HETATM    9  C   UNL     1       7.202  24.715  54.896  1.00  0.00     0.077 A 
HETATM   10  C   UNL     1       8.190  23.879  55.430  1.00  0.00     0.152 A 
HETATM   11  N   UNL     1       8.722  22.817  54.768  1.00  0.00    -0.247 NA
HETATM   12 CL   UNL     1       9.070  24.206  56.876  1.00  0.00    -0.060 Cl
HETATM   13  C   UNL     1       8.269  22.575  53.523  1.00  0.00     0.118 A 
HETATM   14  C   UNL     1       7.330  23.363  52.885  1.00  0.00     0.022 A 
HETATM   15  C   UNL     1       6.801  24.449  53.578  1.00  0.00     0.034 A 
ENDBRANCH   5   9
ENDBRANCH   2   3
ENDBRANCH   1   2
BRANCH   1  16
HETATM   16  O   UNL     1       8.830  29.352  57.012  1.00  0.00    -0.392 OA
HETATM   17  H   UNL     1       8.823  28.562  56.428  1.00  0.00     0.210 HD
ENDBRANCH   1  16
BRANCH   1  18
HETATM   18  C   UNL     1       7.327  30.900  58.227  1.00  0.00     0.157 C 
BRANCH  18  19
HETATM   19  N   UNL     1       7.483  30.795  59.675  1.00  0.00    -0.340 N 
HETATM   20  C   UNL     1       6.914  31.716  60.523  1.00  0.00     0.320 C 
HETATM   21  N   UNL     1       7.099  31.356  61.836  1.00  0.00    -0.306 N 
HETATM   22  O   UNL     1       6.290  32.681  60.104  1.00  0.00    -0.247 OA
HETATM   23  H   UNL     1       7.157  30.355  61.959  1.00  0.00     0.171 HD
HETATM   24  H   UNL     1       8.283  30.286  60.024  1.00  0.00     0.164 HD
BRANCH  21  25
HETATM   25  C   UNL     1       6.650  32.100  62.955  1.00  0.00     0.077 A 
HETATM   26  C   UNL     1       5.328  32.266  63.391  1.00  0.00     0.152 A 
HETATM   27 CL   UNL     1       3.937  31.818  62.476  1.00  0.00    -0.060 Cl
HETATM   28  N   UNL     1       4.978  32.981  64.492  1.00  0.00    -0.247 NA
HETATM   29  C   UNL     1       5.970  33.568  65.188  1.00  0.00     0.118 A 
HETATM   30  C   UNL     1       7.301  33.508  64.819  1.00  0.00     0.022 A 
HETATM   31  C   UNL     1       7.639  32.773  63.684  1.00  0.00     0.034 A 
ENDBRANCH  21  25
ENDBRANCH  18  19
ENDBRANCH   1  18
TORSDOF 7
ENDMDL
MODEL 9
REMARK VINA RESULT:      -8.3      5.417      8.185
REMARK  7 active torsions:
REMARK  status: ('A' for Active; 'I' for Inactive)
REMARK    1  A    between atoms: C_6  and  N_7 
REMARK       I    between atoms: N_7  and  C_8 
REMARK       I    between atoms: C_8  and  N_9 
REMARK    2  A    between atoms: N_9  and  C_10 
REMARK    3  A    between atoms: C_10  and  C_11 
REMARK    4  A    between atoms: C_11  and  O_12 
REMARK    5  A    between atoms: C_11  and  C_13 
REMARK    6  A    between atoms: C_13  and  N_14 
REMARK       I    between atoms: N_14  and  C_15 
REMARK       I    between atoms: C_15  and  N_16 
REMARK    7  A    between atoms: N_16  and  C_17 
ROOT
HETATM    1  C   UNL     1       7.626  28.307  57.381  1.00  0.00     0.153 C 
ENDROOT
BRANCH   1   2
HETATM    2  C   UNL     1       7.085  26.886  57.623  1.00  0.00     0.157 C 
BRANCH   2   3
HETATM    3  N   UNL     1       7.955  25.861  57.069  1.00  0.00    -0.340 N 
HETATM    4  C   UNL     1       7.447  24.739  56.457  1.00  0.00     0.320 C 
HETATM    5  N   UNL     1       8.439  24.040  55.806  1.00  0.00    -0.306 N 
HETATM    6  O   UNL     1       6.256  24.464  56.480  1.00  0.00    -0.247 OA
HETATM    7  H   UNL     1       9.215  24.614  55.515  1.00  0.00     0.171 HD
HETATM    8  H   UNL     1       8.838  26.218  56.732  1.00  0.00     0.164 HD
BRANCH   5   9
HETATM    9  C   UNL     1       8.260  22.829  55.094  1.00  0.00     0.077 A 
HETATM   10  C   UNL     1       8.096  21.544  55.625  1.00  0.00     0.152 A 
HETATM   11  N   UNL     1       7.916  20.429  54.868  1.00  0.00    -0.247 NA
HETATM   12 CL   UNL     1       8.358  21.129  57.278  1.00  0.00    -0.060 Cl
HETATM   13  C   UNL     1       7.907  20.586  53.531  1.00  0.00     0.118 A 
HETATM   14  C   UNL     1       8.105  21.801  52.902  1.00  0.00     0.022 A 
HETATM   15  C   UNL     1       8.292  22.930  53.695  1.00  0.00     0.034 A 
ENDBRANCH   5   9
ENDBRANCH   2   3
ENDBRANCH   1   2
BRANCH   1  16
HETATM   16  O   UNL     1       8.909  28.191  56.742  1.00  0.00    -0.392 OA
HETATM   17  H   UNL     1       9.179  27.247  56.773  1.00  0.00     0.210 HD
ENDBRANCH   1  16
BRANCH   1  18
HETATM   18  C   UNL     1       6.646  29.181  56.574  1.00  0.00     0.157 C 
BRANCH  18  19
HETATM   19  N   UNL     1       6.887  29.112  55.136  1.00  0.00    -0.340 N 
HETATM   20  C   UNL     1       6.007  28.472  54.294  1.00  0.00     0.320 C 
HETATM   21  N   UNL     1       6.380  28.630  52.981  1.00  0.00    -0.306 N 
HETATM   22  O   UNL     1       5.012  27.899  54.714  1.00  0.00    -0.247 OA
HETATM   23  H   UNL     1       6.870  29.498  52.819  1.00  0.00     0.171 HD
HETATM   24  H   UNL     1       7.841  29.204  54.816  1.00  0.00     0.164 HD
BRANCH  21  25
HETATM   25  C   UNL     1       5.696  28.079  51.869  1.00  0.00     0.077 A 
HETATM   26  C   UNL     1       5.767  26.761  51.396  1.00  0.00     0.152 A 
HETATM   27 CL   UNL     1       6.933  25.601  51.913  1.00  0.00    -0.060 Cl
HETATM   28  N   UNL     1       5.059  26.300  50.332  1.00  0.00    -0.247 NA
HETATM   29  C   UNL     1       4.256  27.175  49.699  1.00  0.00     0.118 A 
HETATM   30  C   UNL     1       4.149  28.507  50.052  1.00  0.00     0.022 A 
HETATM   31  C   UNL     1       4.886  28.962  51.144  1.00  0.00     0.034 A 
ENDBRANCH  21  25
ENDBRANCH  18  19
ENDBRANCH   1  18
TORSDOF 7
ENDMDL
MODEL 10
REMARK VINA RESULT:      -8.1      2.431      3.068
REMARK  7 active torsions:
REMARK  status: ('A' for Active; 'I' for Inactive)
REMARK    1  A    between atoms: C_6  and  N_7 
REMARK       I    between atoms: N_7  and  C_8 
REMARK       I    between atoms: C_8  and  N_9 
REMARK    2  A    between atoms: N_9  and  C_10 
REMARK    3  A    between atoms: C_10  and  C_11 
REMARK    4  A    between atoms: C_11  and  O_12 
REMARK    5  A    between atoms: C_11  and  C_13 
REMARK    6  A    between atoms: C_13  and  N_14 
REMARK       I    between atoms: N_14  and  C_15 
REMARK       I    between atoms: C_15  and  N_16 
REMARK    7  A    between atoms: N_16  and  C_17 
ROOT
HETATM    1  C   UNL     1       7.894  28.653  55.699  1.00  0.00     0.153 C 
ENDROOT
BRANCH   1   2
HETATM    2  C   UNL     1       7.070  27.482  56.265  1.00  0.00     0.157 C 
BRANCH   2   3
HETATM    3  N   UNL     1       7.811  26.231  56.261  1.00  0.00    -0.340 N 
HETATM    4  C   UNL     1       7.350  25.123  55.590  1.00  0.00     0.320 C 
HETATM    5  N   UNL     1       8.318  24.146  55.525  1.00  0.00    -0.306 N 
HETATM    6  O   UNL     1       6.232  25.076  55.095  1.00  0.00    -0.247 OA
HETATM    7  H   UNL     1       9.259  24.505  55.567  1.00  0.00     0.171 HD
HETATM    8  H   UNL     1       8.811  26.352  56.330  1.00  0.00     0.164 HD
BRANCH   5   9
HETATM    9  C   UNL     1       8.165  22.874  54.922  1.00  0.00     0.077 A 
HETATM   10  C   UNL     1       8.035  21.637  55.564  1.00  0.00     0.152 A 
HETATM   11  N   UNL     1       7.876  20.456  54.908  1.00  0.00    -0.247 NA
HETATM   12 CL   UNL     1       8.316  21.374  57.244  1.00  0.00    -0.060 Cl
HETATM   13  C   UNL     1       7.856  20.496  53.562  1.00  0.00     0.118 A 
HETATM   14  C   UNL     1       8.020  21.657  52.829  1.00  0.00     0.022 A 
HETATM   15  C   UNL     1       8.186  22.854  53.520  1.00  0.00     0.034 A 
ENDBRANCH   5   9
ENDBRANCH   2   3
ENDBRANCH   1   2
BRANCH   1  16
HETATM   16  O   UNL     1       7.017  29.782  55.546  1.00  0.00    -0.392 OA
HETATM   17  H   UNL     1       6.263  29.505  54.979  1.00  0.00     0.210 HD
ENDBRANCH   1  16
BRANCH   1  18
HETATM   18  C   UNL     1       9.125  28.979  56.565  1.00  0.00     0.157 C 
BRANCH  18  19
HETATM   19  N   UNL     1       8.967  30.218  57.321  1.00  0.00    -0.340 N 
HETATM   20  C   UNL     1       8.428  30.219  58.587  1.00  0.00     0.320 C 
HETATM   21  N   UNL     1       8.479  31.475  59.142  1.00  0.00    -0.306 N 
HETATM   22  O   UNL     1       8.022  29.195  59.117  1.00  0.00    -0.247 OA
HETATM   23  H   UNL     1       9.260  32.018  58.802  1.00  0.00     0.171 HD
HETATM   24  H   UNL     1       8.907  31.081  56.798  1.00  0.00     0.164 HD
BRANCH  21  25
HETATM   25  C   UNL     1       7.989  31.817  60.427  1.00  0.00     0.077 A 
HETATM   26  C   UNL     1       8.533  31.456  61.667  1.00  0.00     0.152 A 
HETATM   27 CL   UNL     1       9.768  30.273  61.882  1.00  0.00    -0.060 Cl
HETATM   28  N   UNL     1       8.016  31.844  62.862  1.00  0.00    -0.247 NA
HETATM   29  C   UNL     1       6.909  32.610  62.837  1.00  0.00     0.118 A 
HETATM   30  C   UNL     1       6.266  32.982  61.671  1.00  0.00     0.022 A 
HETATM   31  C   UNL     1       6.809  32.571  60.456  1.00  0.00     0.034 A 
ENDBRANCH  21  25
ENDBRANCH  18  19
ENDBRANCH   1  18
TORSDOF 7
ENDMDL
