MODEL 1
REMARK VINA RESULT:     -10.7      0.000      0.000
REMARK  8 active torsions:
REMARK  status: ('A' for Active; 'I' for Inactive)
REMARK    1  A    between atoms: C_2  and  N_3 
REMARK    2  A    between atoms: C_2  and  C_26 
REMARK       I    between atoms: N_3  and  C_4 
REMARK    3  A    between atoms: C_4  and  C_5 
REMARK    4  A    between atoms: C_5  and  S_6 
REMARK    5  A    between atoms: S_6  and  C_7 
REMARK    6  A    between atoms: C_10  and  C_11 
REMARK    7  A    between atoms: C_11  and  O_12 
REMARK    8  A    between atoms: O_12  and  C_13 
ROOT
HETATM    1  C   UNL     1       7.218  29.481  57.677  1.00  0.00     0.191 A 
HETATM    2  N   UNL     1       6.872  30.713  58.159  1.00  0.00    -0.314 N 
HETATM    3  C   UNL     1       5.855  31.606  57.666  1.00  0.00     0.160 C 
HETATM    4  C   UNL     1       7.667  30.912  59.266  1.00  0.00     0.154 A 
HETATM    5  N   UNL     1       8.472  29.873  59.404  1.00  0.00    -0.132 NA
HETATM    6  N   UNL     1       8.182  28.974  58.411  1.00  0.00    -0.123 NA
ENDROOT
BRANCH   1   7
HETATM    7  S   UNL     1       6.443  28.714  56.338  1.00  0.00    -0.081 SA
BRANCH   7   8
HETATM    8  C   UNL     1       7.351  27.146  56.247  1.00  0.00     0.185 C 
BRANCH   8   9
HETATM    9  C   UNL     1       6.719  26.224  55.221  1.00  0.00     0.227 C 
HETATM   10  N   UNL     1       7.594  25.329  54.649  1.00  0.00    -0.352 N 
HETATM   11  H   UNL     1       8.587  25.548  54.714  1.00  0.00     0.163 HD
HETATM   12  O   UNL     1       5.524  26.275  54.940  1.00  0.00    -0.273 OA
BRANCH  10  13
HETATM   13  C   UNL     1       7.190  24.443  53.572  1.00  0.00     0.113 C 
HETATM   14  C   UNL     1       7.819  24.867  52.243  1.00  0.00     0.037 C 
BRANCH  13  15
HETATM   15  C   UNL     1       7.526  23.006  53.929  1.00  0.00    -0.036 A 
HETATM   16  C   UNL     1       7.490  22.595  55.272  1.00  0.00     0.009 A 
HETATM   17  C   UNL     1       7.802  21.280  55.624  1.00  0.00     0.001 A 
HETATM   18  C   UNL     1       8.156  20.360  54.641  1.00  0.00     0.000 A 
HETATM   19  C   UNL     1       8.203  20.753  53.305  1.00  0.00     0.001 A 
HETATM   20  C   UNL     1       7.892  22.068  52.950  1.00  0.00     0.009 A 
ENDBRANCH  13  15
ENDBRANCH  10  13
ENDBRANCH   8   9
ENDBRANCH   7   8
ENDBRANCH   1   7
BRANCH   4  21
HETATM   21  C   UNL     1       7.565  32.080  60.186  1.00  0.00     0.256 C 
BRANCH  21  22
HETATM   22  O   UNL     1       6.392  31.894  60.974  1.00  0.00    -0.344 OA
BRANCH  22  23
HETATM   23  C   UNL     1       6.412  32.396  62.246  1.00  0.00     0.069 A 
HETATM   24  C   UNL     1       5.306  32.823  62.983  1.00  0.00     0.044 A 
HETATM   25  C   UNL     1       5.462  33.334  64.285  1.00  0.00    -0.049 A 
HETATM   26  C   UNL     1       6.748  33.431  64.845  1.00  0.00    -0.052 A 
HETATM   27  C   UNL     1       4.244  33.830  65.028  1.00  0.00     0.039 C 
HETATM   28  C   UNL     1       6.963  33.939  66.250  1.00  0.00     0.039 C 
HETATM   29  C   UNL     1       7.852  32.987  64.105  1.00  0.00     0.010 A 
HETATM   30  C   UNL     1       5.778  34.739  66.789  1.00  0.00     0.005 C 
HETATM   31  C   UNL     1       4.474  33.996  66.528  1.00  0.00     0.005 C 
HETATM   32  C   UNL     1       7.682  32.480  62.816  1.00  0.00     0.037 A 
ENDBRANCH  22  23
ENDBRANCH  21  22
ENDBRANCH   4  21
TORSDOF 8
ENDMDL
MODEL 2
REMARK VINA RESULT:     -10.6      1.561     12.078
REMARK  8 active torsions:
REMARK  status: ('A' for Active; 'I' for Inactive)
REMARK    1  A    between atoms: C_2  and  N_3 
REMARK    2  A    between atoms: C_2  and  C_26 
REMARK       I    between atoms: N_3  and  C_4 
REMARK    3  A    between atoms: C_4  and  C_5 
REMARK    4  A    between atoms: C_5  and  S_6 
REMARK    5  A    between atoms: S_6  and  C_7 
REMARK    6  A    between atoms: C_10  and  C_11 
REMARK    7  A    between atoms: C_11  and  O_12 
REMARK    8  A    between atoms: O_12  and  C_13 
ROOT
HETATM    1  C   UNL     1       7.783  28.485  57.453  1.00  0.00     0.191 A 
HETATM    2  N   UNL     1       6.858  28.260  56.472  1.00  0.00    -0.314 N 
HETATM    3  C   UNL     1       6.359  29.188  55.490  1.00  0.00     0.160 C 
HETATM    4  C   UNL     1       6.530  26.925  56.575  1.00  0.00     0.154 A 
HETATM    5  N   UNL     1       7.191  26.402  57.593  1.00  0.00    -0.132 NA
HETATM    6  N   UNL     1       7.983  27.382  58.136  1.00  0.00    -0.123 NA
ENDROOT
BRANCH   1   7
HETATM    7  S   UNL     1       8.589  29.994  57.692  1.00  0.00    -0.081 SA
BRANCH   7   8
HETATM    8  C   UNL     1       8.475  30.181  59.493  1.00  0.00     0.185 C 
BRANCH   8   9
HETATM    9  C   UNL     1       8.002  31.576  59.855  1.00  0.00     0.227 C 
HETATM   10  N   UNL     1       6.860  31.605  60.624  1.00  0.00    -0.352 N 
HETATM   11  H   UNL     1       6.281  30.767  60.623  1.00  0.00     0.163 HD
HETATM   12  O   UNL     1       8.600  32.587  59.494  1.00  0.00    -0.273 OA
BRANCH  10  13
HETATM   13  C   UNL     1       6.204  32.852  60.974  1.00  0.00     0.113 C 
HETATM   14  C   UNL     1       4.754  32.869  60.484  1.00  0.00     0.037 C 
BRANCH  13  15
HETATM   15  C   UNL     1       6.304  33.088  62.470  1.00  0.00    -0.036 A 
HETATM   16  C   UNL     1       7.561  33.072  63.097  1.00  0.00     0.009 A 
HETATM   17  C   UNL     1       7.676  33.280  64.473  1.00  0.00     0.001 A 
HETATM   18  C   UNL     1       6.536  33.502  65.242  1.00  0.00     0.000 A 
HETATM   19  C   UNL     1       5.281  33.514  64.637  1.00  0.00     0.001 A 
HETATM   20  C   UNL     1       5.163  33.306  63.261  1.00  0.00     0.009 A 
ENDBRANCH  13  15
ENDBRANCH  10  13
ENDBRANCH   8   9
ENDBRANCH   7   8
ENDBRANCH   1   7
BRANCH   4  21
HETATM   21  C   UNL     1       5.632  26.197  55.635  1.00  0.00     0.256 C 
BRANCH  21  22
HETATM   22  O   UNL     1       6.374  25.962  54.441  1.00  0.00    -0.344 OA
BRANCH  22  23
HETATM   23  C   UNL     1       6.862  24.698  54.251  1.00  0.00     0.069 A 
HETATM   24  C   UNL     1       7.067  23.735  55.242  1.00  0.00     0.044 A 
HETATM   25  C   UNL     1       7.589  22.469  54.917  1.00  0.00    -0.049 A 
HETATM   26  C   UNL     1       7.923  22.175  53.583  1.00  0.00    -0.052 A 
HETATM   27  C   UNL     1       7.841  21.475  56.025  1.00  0.00     0.039 C 
HETATM   28  C   UNL     1       8.452  20.820  53.180  1.00  0.00     0.039 C 
HETATM   29  C   UNL     1       7.700  23.142  52.593  1.00  0.00     0.010 A 
HETATM   30  C   UNL     1       9.010  20.018  54.354  1.00  0.00     0.005 C 
HETATM   31  C   UNL     1       8.037  20.045  55.525  1.00  0.00     0.005 C 
HETATM   32  C   UNL     1       7.180  24.392  52.929  1.00  0.00     0.037 A 
ENDBRANCH  22  23
ENDBRANCH  21  22
ENDBRANCH   4  21
TORSDOF 8
ENDMDL
MODEL 3
REMARK VINA RESULT:     -10.6      3.282     10.645
REMARK  8 active torsions:
REMARK  status: ('A' for Active; 'I' for Inactive)
REMARK    1  A    between atoms: C_2  and  N_3 
REMARK    2  A    between atoms: C_2  and  C_26 
REMARK       I    between atoms: N_3  and  C_4 
REMARK    3  A    between atoms: C_4  and  C_5 
REMARK    4  A    between atoms: C_5  and  S_6 
REMARK    5  A    between atoms: S_6  and  C_7 
REMARK    6  A    between atoms: C_10  and  C_11 
REMARK    7  A    between atoms: C_11  and  O_12 
REMARK    8  A    between atoms: O_12  and  C_13 
ROOT
HETATM    1  C   UNL     1       4.555  29.432  56.406  1.00  0.00     0.191 A 
HETATM    2  N   UNL     1       4.852  29.002  55.144  1.00  0.00    -0.314 N 
HETATM    3  C   UNL     1       4.463  29.594  53.889  1.00  0.00     0.160 C 
HETATM    4  C   UNL     1       5.660  27.899  55.311  1.00  0.00     0.154 A 
HETATM    5  N   UNL     1       5.794  27.662  56.604  1.00  0.00    -0.132 NA
HETATM    6  N   UNL     1       5.106  28.631  57.289  1.00  0.00    -0.123 NA
ENDROOT
BRANCH   1   7
HETATM    7  S   UNL     1       3.636  30.853  56.753  1.00  0.00    -0.081 SA
BRANCH   7   8
HETATM    8  C   UNL     1       4.141  31.200  58.460  1.00  0.00     0.185 C 
BRANCH   8   9
HETATM    9  C   UNL     1       5.522  31.830  58.489  1.00  0.00     0.227 C 
HETATM   10  N   UNL     1       6.481  31.061  59.110  1.00  0.00    -0.352 N 
HETATM   11  H   UNL     1       6.152  30.331  59.739  1.00  0.00     0.163 HD
HETATM   12  O   UNL     1       5.754  32.928  57.989  1.00  0.00    -0.273 OA
BRANCH  10  13
HETATM   13  C   UNL     1       7.832  31.549  59.325  1.00  0.00     0.113 C 
HETATM   14  C   UNL     1       8.207  31.496  60.808  1.00  0.00     0.037 C 
BRANCH  13  15
HETATM   15  C   UNL     1       8.807  30.771  58.461  1.00  0.00    -0.036 A 
HETATM   16  C   UNL     1       8.419  29.539  57.907  1.00  0.00     0.009 A 
HETATM   17  C   UNL     1       9.303  28.804  57.115  1.00  0.00     0.001 A 
HETATM   18  C   UNL     1      10.585  29.286  56.868  1.00  0.00     0.000 A 
HETATM   19  C   UNL     1      10.988  30.502  57.415  1.00  0.00     0.001 A 
HETATM   20  C   UNL     1      10.107  31.240  58.209  1.00  0.00     0.009 A 
ENDBRANCH  13  15
ENDBRANCH  10  13
ENDBRANCH   8   9
ENDBRANCH   7   8
ENDBRANCH   1   7
BRANCH   4  21
HETATM   21  C   UNL     1       6.323  27.156  54.201  1.00  0.00     0.256 C 
BRANCH  21  22
HETATM   22  O   UNL     1       7.461  26.502  54.755  1.00  0.00    -0.344 OA
BRANCH  22  23
HETATM   23  C   UNL     1       7.604  25.168  54.485  1.00  0.00     0.069 A 
HETATM   24  C   UNL     1       7.836  24.156  55.419  1.00  0.00     0.044 A 
HETATM   25  C   UNL     1       7.977  22.817  55.009  1.00  0.00    -0.049 A 
HETATM   26  C   UNL     1       7.899  22.496  53.642  1.00  0.00    -0.052 A 
HETATM   27  C   UNL     1       8.277  21.762  56.047  1.00  0.00     0.039 C 
HETATM   28  C   UNL     1       8.009  21.071  53.158  1.00  0.00     0.039 C 
HETATM   29  C   UNL     1       7.651  23.515  52.713  1.00  0.00     0.010 A 
HETATM   30  C   UNL     1       8.654  20.135  54.178  1.00  0.00     0.005 C 
HETATM   31  C   UNL     1       8.031  20.338  55.553  1.00  0.00     0.005 C 
HETATM   32  C   UNL     1       7.511  24.838  53.133  1.00  0.00     0.037 A 
ENDBRANCH  22  23
ENDBRANCH  21  22
ENDBRANCH   4  21
TORSDOF 8
ENDMDL
MODEL 4
REMARK VINA RESULT:     -10.5      1.553      2.305
REMARK  8 active torsions:
REMARK  status: ('A' for Active; 'I' for Inactive)
REMARK    1  A    between atoms: C_2  and  N_3 
REMARK    2  A    between atoms: C_2  and  C_26 
REMARK       I    between atoms: N_3  and  C_4 
REMARK    3  A    between atoms: C_4  and  C_5 
REMARK    4  A    between atoms: C_5  and  S_6 
REMARK    5  A    between atoms: S_6  and  C_7 
REMARK    6  A    between atoms: C_10  and  C_11 
REMARK    7  A    between atoms: C_11  and  O_12 
REMARK    8  A    between atoms: O_12  and  C_13 
ROOT
HETATM    1  C   UNL     1       6.341  27.864  57.327  1.00  0.00     0.191 A 
HETATM    2  N   UNL     1       6.179  29.220  57.382  1.00  0.00    -0.314 N 
HETATM    3  C   UNL     1       5.057  30.000  56.923  1.00  0.00     0.160 C 
HETATM    4  C   UNL     1       7.299  29.700  58.024  1.00  0.00     0.154 A 
HETATM    5  N   UNL     1       8.102  28.686  58.294  1.00  0.00    -0.132 NA
HETATM    6  N   UNL     1       7.494  27.534  57.863  1.00  0.00    -0.123 NA
ENDROOT
BRANCH   1   7
HETATM    7  S   UNL     1       5.160  26.774  56.694  1.00  0.00    -0.081 SA
BRANCH   7   8
HETATM    8  C   UNL     1       5.591  26.761  54.932  1.00  0.00     0.185 C 
BRANCH   8   9
HETATM    9  C   UNL     1       6.909  26.043  54.712  1.00  0.00     0.227 C 
HETATM   10  N   UNL     1       7.155  25.024  55.605  1.00  0.00    -0.352 N 
HETATM   11  H   UNL     1       6.628  25.038  56.477  1.00  0.00     0.163 HD
HETATM   12  O   UNL     1       7.680  26.346  53.804  1.00  0.00    -0.273 OA
BRANCH  10  13
HETATM   13  C   UNL     1       8.413  24.298  55.613  1.00  0.00     0.113 C 
HETATM   14  C   UNL     1       8.978  24.190  57.031  1.00  0.00     0.037 C 
BRANCH  13  15
HETATM   15  C   UNL     1       8.229  22.938  54.966  1.00  0.00    -0.036 A 
HETATM   16  C   UNL     1       8.256  22.822  53.567  1.00  0.00     0.009 A 
HETATM   17  C   UNL     1       8.083  21.581  52.950  1.00  0.00     0.001 A 
HETATM   18  C   UNL     1       7.878  20.441  53.723  1.00  0.00     0.000 A 
HETATM   19  C   UNL     1       7.842  20.539  55.112  1.00  0.00     0.001 A 
HETATM   20  C   UNL     1       8.014  21.779  55.731  1.00  0.00     0.009 A 
ENDBRANCH  13  15
ENDBRANCH  10  13
ENDBRANCH   8   9
ENDBRANCH   7   8
ENDBRANCH   1   7
BRANCH   4  21
HETATM   21  C   UNL     1       7.513  31.124  58.409  1.00  0.00     0.256 C 
BRANCH  21  22
HETATM   22  O   UNL     1       8.490  31.137  59.446  1.00  0.00    -0.344 OA
BRANCH  22  23
HETATM   23  C   UNL     1       8.126  31.708  60.635  1.00  0.00     0.069 A 
HETATM   24  C   UNL     1       7.166  32.706  60.812  1.00  0.00     0.044 A 
HETATM   25  C   UNL     1       6.891  33.221  62.093  1.00  0.00    -0.049 A 
HETATM   26  C   UNL     1       7.602  32.737  63.205  1.00  0.00    -0.052 A 
HETATM   27  C   UNL     1       5.880  34.335  62.232  1.00  0.00     0.039 C 
HETATM   28  C   UNL     1       7.318  33.233  64.602  1.00  0.00     0.039 C 
HETATM   29  C   UNL     1       8.553  31.726  63.021  1.00  0.00     0.010 A 
HETATM   30  C   UNL     1       6.577  34.568  64.628  1.00  0.00     0.005 C 
HETATM   31  C   UNL     1       5.397  34.539  63.666  1.00  0.00     0.005 C 
HETATM   32  C   UNL     1       8.814  31.222  61.746  1.00  0.00     0.037 A 
ENDBRANCH  22  23
ENDBRANCH  21  22
ENDBRANCH   4  21
TORSDOF 8
ENDMDL
MODEL 5
REMARK VINA RESULT:     -10.5      1.478      2.311
REMARK  8 active torsions:
REMARK  status: ('A' for Active; 'I' for Inactive)
REMARK    1  A    between atoms: C_2  and  N_3 
REMARK    2  A    between atoms: C_2  and  C_26 
REMARK       I    between atoms: N_3  and  C_4 
REMARK    3  A    between atoms: C_4  and  C_5 
REMARK    4  A    between atoms: C_5  and  S_6 
REMARK    5  A    between atoms: S_6  and  C_7 
REMARK    6  A    between atoms: C_10  and  C_11 
REMARK    7  A    between atoms: C_11  and  O_12 
REMARK    8  A    between atoms: O_12  and  C_13 
ROOT
HETATM    1  C   UNL     1       6.804  27.527  57.038  1.00  0.00     0.191 A 
HETATM    2  N   UNL     1       6.651  28.832  57.414  1.00  0.00    -0.314 N 
HETATM    3  C   UNL     1       5.441  29.612  57.445  1.00  0.00     0.160 C 
HETATM    4  C   UNL     1       7.902  29.248  57.817  1.00  0.00     0.154 A 
HETATM    5  N   UNL     1       8.756  28.255  57.645  1.00  0.00    -0.132 NA
HETATM    6  N   UNL     1       8.063  27.174  57.164  1.00  0.00    -0.123 NA
ENDROOT
BRANCH   1   7
HETATM    7  S   UNL     1       5.504  26.508  56.534  1.00  0.00    -0.081 SA
BRANCH   7   8
HETATM    8  C   UNL     1       5.126  27.191  54.896  1.00  0.00     0.185 C 
BRANCH   8   9
HETATM    9  C   UNL     1       5.354  26.147  53.819  1.00  0.00     0.227 C 
HETATM   10  N   UNL     1       6.465  25.360  54.019  1.00  0.00    -0.352 N 
HETATM   11  H   UNL     1       7.177  25.719  54.653  1.00  0.00     0.163 HD
HETATM   12  O   UNL     1       4.598  26.018  52.858  1.00  0.00    -0.273 OA
BRANCH  10  13
HETATM   13  C   UNL     1       6.899  24.382  53.037  1.00  0.00     0.113 C 
HETATM   14  C   UNL     1       7.988  24.956  52.129  1.00  0.00     0.037 C 
BRANCH  13  15
HETATM   15  C   UNL     1       7.349  23.112  53.736  1.00  0.00    -0.036 A 
HETATM   16  C   UNL     1       7.322  23.040  55.139  1.00  0.00     0.009 A 
HETATM   17  C   UNL     1       7.738  21.884  55.802  1.00  0.00     0.001 A 
HETATM   18  C   UNL     1       8.190  20.786  55.074  1.00  0.00     0.000 A 
HETATM   19  C   UNL     1       8.230  20.843  53.682  1.00  0.00     0.001 A 
HETATM   20  C   UNL     1       7.815  21.998  53.016  1.00  0.00     0.009 A 
ENDBRANCH  13  15
ENDBRANCH  10  13
ENDBRANCH   8   9
ENDBRANCH   7   8
ENDBRANCH   1   7
BRANCH   4  21
HETATM   21  C   UNL     1       8.201  30.579  58.417  1.00  0.00     0.256 C 
BRANCH  21  22
HETATM   22  O   UNL     1       8.343  30.385  59.821  1.00  0.00    -0.344 OA
BRANCH  22  23
HETATM   23  C   UNL     1       7.775  31.324  60.639  1.00  0.00     0.069 A 
HETATM   24  C   UNL     1       8.118  31.577  61.969  1.00  0.00     0.044 A 
HETATM   25  C   UNL     1       7.446  32.567  62.709  1.00  0.00    -0.049 A 
HETATM   26  C   UNL     1       6.407  33.300  62.109  1.00  0.00    -0.052 A 
HETATM   27  C   UNL     1       7.815  32.774  64.159  1.00  0.00     0.039 C 
HETATM   28  C   UNL     1       5.680  34.395  62.851  1.00  0.00     0.039 C 
HETATM   29  C   UNL     1       6.079  33.050  60.770  1.00  0.00     0.010 A 
HETATM   30  C   UNL     1       5.843  34.306  64.367  1.00  0.00     0.005 C 
HETATM   31  C   UNL     1       7.306  34.095  64.732  1.00  0.00     0.005 C 
HETATM   32  C   UNL     1       6.755  32.067  60.046  1.00  0.00     0.037 A 
ENDBRANCH  22  23
ENDBRANCH  21  22
ENDBRANCH   4  21
TORSDOF 8
ENDMDL
MODEL 6
REMARK VINA RESULT:     -10.3      1.265      1.890
REMARK  8 active torsions:
REMARK  status: ('A' for Active; 'I' for Inactive)
REMARK    1  A    between atoms: C_2  and  N_3 
REMARK    2  A    between atoms: C_2  and  C_26 
REMARK       I    between atoms: N_3  and  C_4 
REMARK    3  A    between atoms: C_4  and  C_5 
REMARK    4  A    between atoms: C_5  and  S_6 
REMARK    5  A    between atoms: S_6  and  C_7 
REMARK    6  A    between atoms: C_10  and  C_11 
REMARK    7  A    between atoms: C_11  and  O_12 
REMARK    8  A    between atoms: O_12  and  C_13 
ROOT
HETATM    1  C   UNL     1       6.712  29.271  55.969  1.00  0.00     0.191 A 
HETATM    2  N   UNL     1       7.640  29.249  56.972  1.00  0.00    -0.314 N 
HETATM    3  C   UNL     1       8.785  28.385  57.106  1.00  0.00     0.160 C 
HETATM    4  C   UNL     1       7.288  30.276  57.821  1.00  0.00     0.154 A 
HETATM    5  N   UNL     1       6.184  30.843  57.368  1.00  0.00    -0.132 NA
HETATM    6  N   UNL     1       5.830  30.216  56.201  1.00  0.00    -0.123 NA
ENDROOT
BRANCH   1   7
HETATM    7  S   UNL     1       6.757  28.233  54.589  1.00  0.00    -0.081 SA
BRANCH   7   8
HETATM    8  C   UNL     1       5.579  26.940  55.073  1.00  0.00     0.185 C 
BRANCH   8   9
HETATM    9  C   UNL     1       5.597  25.802  54.070  1.00  0.00     0.227 C 
HETATM   10  N   UNL     1       6.777  25.094  54.037  1.00  0.00    -0.352 N 
HETATM   11  H   UNL     1       7.601  25.551  54.426  1.00  0.00     0.163 HD
HETATM   12  O   UNL     1       4.630  25.538  53.358  1.00  0.00    -0.273 OA
BRANCH  10  13
HETATM   13  C   UNL     1       7.013  24.041  53.065  1.00  0.00     0.113 C 
HETATM   14  C   UNL     1       8.017  24.487  52.001  1.00  0.00     0.037 C 
BRANCH  13  15
HETATM   15  C   UNL     1       7.456  22.773  53.773  1.00  0.00    -0.036 A 
HETATM   16  C   UNL     1       7.489  22.733  55.177  1.00  0.00     0.009 A 
HETATM   17  C   UNL     1       7.899  21.580  55.848  1.00  0.00     0.001 A 
HETATM   18  C   UNL     1       8.285  20.453  55.127  1.00  0.00     0.000 A 
HETATM   19  C   UNL     1       8.264  20.478  53.734  1.00  0.00     0.001 A 
HETATM   20  C   UNL     1       7.855  21.631  53.060  1.00  0.00     0.009 A 
ENDBRANCH  13  15
ENDBRANCH  10  13
ENDBRANCH   8   9
ENDBRANCH   7   8
ENDBRANCH   1   7
BRANCH   4  21
HETATM   21  C   UNL     1       8.081  30.705  59.008  1.00  0.00     0.256 C 
BRANCH  21  22
HETATM   22  O   UNL     1       7.703  32.047  59.303  1.00  0.00    -0.344 OA
BRANCH  22  23
HETATM   23  C   UNL     1       7.498  32.359  60.619  1.00  0.00     0.069 A 
HETATM   24  C   UNL     1       6.339  32.918  61.164  1.00  0.00     0.044 A 
HETATM   25  C   UNL     1       6.257  33.205  62.540  1.00  0.00    -0.049 A 
HETATM   26  C   UNL     1       7.359  32.942  63.372  1.00  0.00    -0.052 A 
HETATM   27  C   UNL     1       5.005  33.854  63.078  1.00  0.00     0.039 C 
HETATM   28  C   UNL     1       7.307  33.201  64.858  1.00  0.00     0.039 C 
HETATM   29  C   UNL     1       8.512  32.369  62.821  1.00  0.00     0.010 A 
HETATM   30  C   UNL     1       6.192  34.162  65.264  1.00  0.00     0.005 C 
HETATM   31  C   UNL     1       4.881  33.766  64.598  1.00  0.00     0.005 C 
HETATM   32  C   UNL     1       8.579  32.086  61.456  1.00  0.00     0.037 A 
ENDBRANCH  22  23
ENDBRANCH  21  22
ENDBRANCH   4  21
TORSDOF 8
ENDMDL
MODEL 7
REMARK VINA RESULT:     -10.1      2.571     11.441
REMARK  8 active torsions:
REMARK  status: ('A' for Active; 'I' for Inactive)
REMARK    1  A    between atoms: C_2  and  N_3 
REMARK    2  A    between atoms: C_2  and  C_26 
REMARK       I    between atoms: N_3  and  C_4 
REMARK    3  A    between atoms: C_4  and  C_5 
REMARK    4  A    between atoms: C_5  and  S_6 
REMARK    5  A    between atoms: S_6  and  C_7 
REMARK    6  A    between atoms: C_10  and  C_11 
REMARK    7  A    between atoms: C_11  and  O_12 
REMARK    8  A    between atoms: O_12  and  C_13 
ROOT
HETATM    1  C   UNL     1       4.711  29.188  56.505  1.00  0.00     0.191 A 
HETATM    2  N   UNL     1       6.004  28.781  56.680  1.00  0.00    -0.314 N 
HETATM    3  C   UNL     1       6.956  29.243  57.658  1.00  0.00     0.160 C 
HETATM    4  C   UNL     1       6.205  27.782  55.753  1.00  0.00     0.154 A 
HETATM    5  N   UNL     1       5.104  27.639  55.037  1.00  0.00    -0.132 NA
HETATM    6  N   UNL     1       4.165  28.517  55.517  1.00  0.00    -0.123 NA
ENDROOT
BRANCH   1   7
HETATM    7  S   UNL     1       3.927  30.369  57.492  1.00  0.00    -0.081 SA
BRANCH   7   8
HETATM    8  C   UNL     1       4.554  31.912  56.771  1.00  0.00     0.185 C 
BRANCH   8   9
HETATM    9  C   UNL     1       5.049  32.845  57.860  1.00  0.00     0.227 C 
HETATM   10  N   UNL     1       5.317  32.224  59.060  1.00  0.00    -0.352 N 
HETATM   11  H   UNL     1       4.891  31.312  59.213  1.00  0.00     0.163 HD
HETATM   12  O   UNL     1       5.202  34.050  57.674  1.00  0.00    -0.273 OA
BRANCH  10  13
HETATM   13  C   UNL     1       5.696  32.975  60.244  1.00  0.00     0.113 C 
HETATM   14  C   UNL     1       4.609  32.896  61.318  1.00  0.00     0.037 C 
BRANCH  13  15
HETATM   15  C   UNL     1       7.040  32.490  60.755  1.00  0.00    -0.036 A 
HETATM   16  C   UNL     1       8.121  32.363  59.866  1.00  0.00     0.009 A 
HETATM   17  C   UNL     1       9.364  31.914  60.314  1.00  0.00     0.001 A 
HETATM   18  C   UNL     1       9.545  31.582  61.655  1.00  0.00     0.000 A 
HETATM   19  C   UNL     1       8.482  31.696  62.548  1.00  0.00     0.001 A 
HETATM   20  C   UNL     1       7.237  32.144  62.103  1.00  0.00     0.009 A 
ENDBRANCH  13  15
ENDBRANCH  10  13
ENDBRANCH   8   9
ENDBRANCH   7   8
ENDBRANCH   1   7
BRANCH   4  21
HETATM   21  C   UNL     1       7.444  26.961  55.645  1.00  0.00     0.256 C 
BRANCH  21  22
HETATM   22  O   UNL     1       7.474  26.416  54.328  1.00  0.00    -0.344 OA
BRANCH  22  23
HETATM   23  C   UNL     1       7.626  25.061  54.221  1.00  0.00     0.069 A 
HETATM   24  C   UNL     1       7.771  24.160  55.278  1.00  0.00     0.044 A 
HETATM   25  C   UNL     1       7.934  22.783  55.032  1.00  0.00    -0.049 A 
HETATM   26  C   UNL     1       7.968  22.312  53.709  1.00  0.00    -0.052 A 
HETATM   27  C   UNL     1       8.137  21.851  56.203  1.00  0.00     0.039 C 
HETATM   28  C   UNL     1       8.106  20.841  53.396  1.00  0.00     0.039 C 
HETATM   29  C   UNL     1       7.808  23.220  52.654  1.00  0.00     0.010 A 
HETATM   30  C   UNL     1       8.655  20.026  54.565  1.00  0.00     0.005 C 
HETATM   31  C   UNL     1       7.921  20.380  55.851  1.00  0.00     0.005 C 
HETATM   32  C   UNL     1       7.644  24.582  52.911  1.00  0.00     0.037 A 
ENDBRANCH  22  23
ENDBRANCH  21  22
ENDBRANCH   4  21
TORSDOF 8
ENDMDL
MODEL 8
REMARK VINA RESULT:      -9.9      2.475     11.132
REMARK  8 active torsions:
REMARK  status: ('A' for Active; 'I' for Inactive)
REMARK    1  A    between atoms: C_2  and  N_3 
REMARK    2  A    between atoms: C_2  and  C_26 
REMARK       I    between atoms: N_3  and  C_4 
REMARK    3  A    between atoms: C_4  and  C_5 
REMARK    4  A    between atoms: C_5  and  S_6 
REMARK    5  A    between atoms: S_6  and  C_7 
REMARK    6  A    between atoms: C_10  and  C_11 
REMARK    7  A    between atoms: C_11  and  O_12 
REMARK    8  A    between atoms: O_12  and  C_13 
ROOT
HETATM    1  C   UNL     1       5.957  30.217  57.043  1.00  0.00     0.191 A 
HETATM    2  N   UNL     1       5.733  28.880  56.871  1.00  0.00    -0.314 N 
HETATM    3  C   UNL     1       4.635  28.244  56.189  1.00  0.00     0.160 C 
HETATM    4  C   UNL     1       6.815  28.248  57.443  1.00  0.00     0.154 A 
HETATM    5  N   UNL     1       7.613  29.161  57.966  1.00  0.00    -0.132 NA
HETATM    6  N   UNL     1       7.077  30.397  57.706  1.00  0.00    -0.123 NA
ENDROOT
BRANCH   1   7
HETATM    7  S   UNL     1       4.931  31.458  56.419  1.00  0.00    -0.081 SA
BRANCH   7   8
HETATM    8  C   UNL     1       3.670  31.569  57.719  1.00  0.00     0.185 C 
BRANCH   8   9
HETATM    9  C   UNL     1       4.148  32.463  58.848  1.00  0.00     0.227 C 
HETATM   10  N   UNL     1       4.988  31.842  59.745  1.00  0.00    -0.352 N 
HETATM   11  H   UNL     1       4.970  30.823  59.765  1.00  0.00     0.163 HD
HETATM   12  O   UNL     1       3.814  33.642  58.939  1.00  0.00    -0.273 OA
BRANCH  10  13
HETATM   13  C   UNL     1       5.456  32.510  60.946  1.00  0.00     0.113 C 
HETATM   14  C   UNL     1       4.547  32.204  62.138  1.00  0.00     0.037 C 
BRANCH  13  15
HETATM   15  C   UNL     1       6.901  32.133  61.218  1.00  0.00    -0.036 A 
HETATM   16  C   UNL     1       7.908  32.537  60.325  1.00  0.00     0.009 A 
HETATM   17  C   UNL     1       9.243  32.196  60.553  1.00  0.00     0.001 A 
HETATM   18  C   UNL     1       9.589  31.444  61.672  1.00  0.00     0.000 A 
HETATM   19  C   UNL     1       8.602  31.029  62.564  1.00  0.00     0.001 A 
HETATM   20  C   UNL     1       7.266  31.369  62.339  1.00  0.00     0.009 A 
ENDBRANCH  13  15
ENDBRANCH  10  13
ENDBRANCH   8   9
ENDBRANCH   7   8
ENDBRANCH   1   7
BRANCH   4  21
HETATM   21  C   UNL     1       7.061  26.778  57.399  1.00  0.00     0.256 C 
BRANCH  21  22
HETATM   22  O   UNL     1       7.526  26.468  56.088  1.00  0.00    -0.344 OA
BRANCH  22  23
HETATM   23  C   UNL     1       7.782  25.152  55.815  1.00  0.00     0.069 A 
HETATM   24  C   UNL     1       7.691  24.536  54.566  1.00  0.00     0.044 A 
HETATM   25  C   UNL     1       7.970  23.164  54.418  1.00  0.00    -0.049 A 
HETATM   26  C   UNL     1       8.330  22.403  55.543  1.00  0.00    -0.052 A 
HETATM   27  C   UNL     1       7.811  22.527  53.058  1.00  0.00     0.039 C 
HETATM   28  C   UNL     1       8.673  20.937  55.430  1.00  0.00     0.039 C 
HETATM   29  C   UNL     1       8.434  23.032  56.791  1.00  0.00     0.010 A 
HETATM   30  C   UNL     1       8.155  20.295  54.144  1.00  0.00     0.005 C 
HETATM   31  C   UNL     1       8.494  21.166  52.942  1.00  0.00     0.005 C 
HETATM   32  C   UNL     1       8.156  24.393  56.923  1.00  0.00     0.037 A 
ENDBRANCH  22  23
ENDBRANCH  21  22
ENDBRANCH   4  21
TORSDOF 8
ENDMDL
MODEL 9
REMARK VINA RESULT:      -9.9      6.461     10.478
REMARK  8 active torsions:
REMARK  status: ('A' for Active; 'I' for Inactive)
REMARK    1  A    between atoms: C_2  and  N_3 
REMARK    2  A    between atoms: C_2  and  C_26 
REMARK       I    between atoms: N_3  and  C_4 
REMARK    3  A    between atoms: C_4  and  C_5 
REMARK    4  A    between atoms: C_5  and  S_6 
REMARK    5  A    between atoms: S_6  and  C_7 
REMARK    6  A    between atoms: C_10  and  C_11 
REMARK    7  A    between atoms: C_11  and  O_12 
REMARK    8  A    between atoms: O_12  and  C_13 
ROOT
HETATM    1  C   UNL     1       7.087  27.916  55.706  1.00  0.00     0.191 A 
HETATM    2  N   UNL     1       5.823  28.055  55.203  1.00  0.00    -0.314 N 
HETATM    3  C   UNL     1       4.578  28.095  55.927  1.00  0.00     0.160 C 
HETATM    4  C   UNL     1       5.983  28.206  53.843  1.00  0.00     0.154 A 
HETATM    5  N   UNL     1       7.269  28.116  53.553  1.00  0.00    -0.132 NA
HETATM    6  N   UNL     1       7.960  27.942  54.725  1.00  0.00    -0.123 NA
ENDROOT
BRANCH   1   7
HETATM    7  S   UNL     1       7.448  27.787  57.390  1.00  0.00    -0.081 SA
BRANCH   7   8
HETATM    8  C   UNL     1       7.982  26.057  57.511  1.00  0.00     0.185 C 
BRANCH   8   9
HETATM    9  C   UNL     1       7.081  25.162  56.681  1.00  0.00     0.227 C 
HETATM   10  N   UNL     1       7.676  24.653  55.549  1.00  0.00    -0.352 N 
HETATM   11  H   UNL     1       8.506  25.134  55.208  1.00  0.00     0.163 HD
HETATM   12  O   UNL     1       5.922  24.913  57.007  1.00  0.00    -0.273 OA
BRANCH  10  13
HETATM   13  C   UNL     1       6.933  23.865  54.581  1.00  0.00     0.113 C 
HETATM   14  C   UNL     1       6.832  24.592  53.239  1.00  0.00     0.037 C 
BRANCH  13  15
HETATM   15  C   UNL     1       7.562  22.491  54.440  1.00  0.00    -0.036 A 
HETATM   16  C   UNL     1       7.821  21.970  53.161  1.00  0.00     0.009 A 
HETATM   17  C   UNL     1       8.393  20.706  53.008  1.00  0.00     0.001 A 
HETATM   18  C   UNL     1       8.711  19.944  54.129  1.00  0.00     0.000 A 
HETATM   19  C   UNL     1       8.456  20.443  55.404  1.00  0.00     0.001 A 
HETATM   20  C   UNL     1       7.883  21.707  55.561  1.00  0.00     0.009 A 
ENDBRANCH  13  15
ENDBRANCH  10  13
ENDBRANCH   8   9
ENDBRANCH   7   8
ENDBRANCH   1   7
BRANCH   4  21
HETATM   21  C   UNL     1       4.878  28.499  52.886  1.00  0.00     0.256 C 
BRANCH  21  22
HETATM   22  O   UNL     1       5.439  28.473  51.576  1.00  0.00    -0.344 OA
BRANCH  22  23
HETATM   23  C   UNL     1       4.614  28.086  50.556  1.00  0.00     0.069 A 
HETATM   24  C   UNL     1       3.541  28.816  50.039  1.00  0.00     0.044 A 
HETATM   25  C   UNL     1       2.758  28.299  48.990  1.00  0.00    -0.049 A 
HETATM   26  C   UNL     1       3.047  27.026  48.468  1.00  0.00    -0.052 A 
HETATM   27  C   UNL     1       1.577  29.100  48.495  1.00  0.00     0.039 C 
HETATM   28  C   UNL     1       2.258  26.444  47.321  1.00  0.00     0.039 C 
HETATM   29  C   UNL     1       4.134  26.306  48.982  1.00  0.00     0.010 A 
HETATM   30  C   UNL     1       0.901  27.117  47.120  1.00  0.00     0.005 C 
HETATM   31  C   UNL     1       1.053  28.632  47.140  1.00  0.00     0.005 C 
HETATM   32  C   UNL     1       4.904  26.832  50.020  1.00  0.00     0.037 A 
ENDBRANCH  22  23
ENDBRANCH  21  22
ENDBRANCH   4  21
TORSDOF 8
ENDMDL
MODEL 10
REMARK VINA RESULT:      -9.7      2.190     11.885
REMARK  8 active torsions:
REMARK  status: ('A' for Active; 'I' for Inactive)
REMARK    1  A    between atoms: C_2  and  N_3 
REMARK    2  A    between atoms: C_2  and  C_26 
REMARK       I    between atoms: N_3  and  C_4 
REMARK    3  A    between atoms: C_4  and  C_5 
REMARK    4  A    between atoms: C_5  and  S_6 
REMARK    5  A    between atoms: S_6  and  C_7 
REMARK    6  A    between atoms: C_10  and  C_11 
REMARK    7  A    between atoms: C_11  and  O_12 
REMARK    8  A    between atoms: O_12  and  C_13 
ROOT
HETATM    1  C   UNL     1       4.392  29.119  55.744  1.00  0.00     0.191 A 
HETATM    2  N   UNL     1       4.900  27.851  55.706  1.00  0.00    -0.314 N 
HETATM    3  C   UNL     1       5.329  27.033  56.811  1.00  0.00     0.160 C 
HETATM    4  C   UNL     1       4.868  27.481  54.380  1.00  0.00     0.154 A 
HETATM    5  N   UNL     1       4.410  28.494  53.666  1.00  0.00    -0.132 NA
HETATM    6  N   UNL     1       4.103  29.518  54.526  1.00  0.00    -0.123 NA
ENDROOT
BRANCH   1   7
HETATM    7  S   UNL     1       4.129  30.013  57.198  1.00  0.00    -0.081 SA
BRANCH   7   8
HETATM    8  C   UNL     1       5.758  30.770  57.455  1.00  0.00     0.185 C 
BRANCH   8   9
HETATM    9  C   UNL     1       5.646  31.976  58.369  1.00  0.00     0.227 C 
HETATM   10  N   UNL     1       5.213  31.682  59.643  1.00  0.00    -0.352 N 
HETATM   11  H   UNL     1       4.729  30.795  59.773  1.00  0.00     0.163 HD
HETATM   12  O   UNL     1       5.929  33.112  57.996  1.00  0.00    -0.273 OA
BRANCH  10  13
HETATM   13  C   UNL     1       4.945  32.722  60.620  1.00  0.00     0.113 C 
HETATM   14  C   UNL     1       3.543  32.574  61.212  1.00  0.00     0.037 C 
BRANCH  13  15
HETATM   15  C   UNL     1       6.021  32.716  61.690  1.00  0.00    -0.036 A 
HETATM   16  C   UNL     1       5.954  33.635  62.752  1.00  0.00     0.009 A 
HETATM   17  C   UNL     1       6.936  33.651  63.744  1.00  0.00     0.001 A 
HETATM   18  C   UNL     1       8.000  32.754  63.688  1.00  0.00     0.000 A 
HETATM   19  C   UNL     1       8.085  31.841  62.639  1.00  0.00     0.001 A 
HETATM   20  C   UNL     1       7.104  31.823  61.645  1.00  0.00     0.009 A 
ENDBRANCH  13  15
ENDBRANCH  10  13
ENDBRANCH   8   9
ENDBRANCH   7   8
ENDBRANCH   1   7
BRANCH   4  21
HETATM   21  C   UNL     1       5.227  26.128  53.867  1.00  0.00     0.256 C 
BRANCH  21  22
HETATM   22  O   UNL     1       6.649  26.061  53.816  1.00  0.00    -0.344 OA
BRANCH  22  23
HETATM   23  C   UNL     1       7.225  24.857  54.120  1.00  0.00     0.069 A 
HETATM   24  C   UNL     1       7.253  23.725  53.303  1.00  0.00     0.044 A 
HETATM   25  C   UNL     1       7.870  22.538  53.739  1.00  0.00    -0.049 A 
HETATM   26  C   UNL     1       8.451  22.485  55.018  1.00  0.00    -0.052 A 
HETATM   27  C   UNL     1       7.835  21.323  52.843  1.00  0.00     0.039 C 
HETATM   28  C   UNL     1       9.154  21.246  55.517  1.00  0.00     0.039 C 
HETATM   29  C   UNL     1       8.431  23.629  55.827  1.00  0.00     0.010 A 
HETATM   30  C   UNL     1       8.776  19.986  54.742  1.00  0.00     0.005 C 
HETATM   31  C   UNL     1       8.839  20.245  53.243  1.00  0.00     0.005 C 
HETATM   32  C   UNL     1       7.818  24.801  55.381  1.00  0.00     0.037 A 
ENDBRANCH  22  23
ENDBRANCH  21  22
ENDBRANCH   4  21
TORSDOF 8
ENDMDL
