MODEL 1
REMARK VINA RESULT:     -10.1      0.000      0.000
REMARK  3 active torsions:
REMARK  status: ('A' for Active; 'I' for Inactive)
REMARK    1  A    between atoms: C_4  and  N_5 
REMARK       I    between atoms: N_5  and  C_6 
REMARK    2  A    between atoms: C_6  and  C_7 
REMARK    3  A    between atoms: C_7  and  N_8 
ROOT
HETATM    1  N   UNL     1       6.954  28.367  55.157  1.00  0.00    -0.224 N 
HETATM    2  N   UNL     1       8.334  28.614  55.035  1.00  0.00    -0.180 NA
HETATM    3  C   UNL     1       8.936  29.323  55.949  1.00  0.00     0.153 A 
HETATM    4  C   UNL     1       8.211  29.868  57.063  1.00  0.00     0.028 A 
HETATM    5  C   UNL     1       6.863  29.630  57.153  1.00  0.00     0.116 A 
HETATM    6  N   UNL     1       6.391  30.229  58.284  1.00  0.00    -0.350 N 
HETATM    7  H   UNL     1       5.429  30.196  58.596  1.00  0.00     0.166 HD
HETATM    8  C   UNL     1       7.426  30.873  58.931  1.00  0.00     0.044 A 
HETATM    9  C   UNL     1       8.588  30.660  58.179  1.00  0.00     0.005 A 
HETATM   10  C   UNL     1       7.418  31.617  60.116  1.00  0.00     0.030 A 
HETATM   11  C   UNL     1       8.632  32.164  60.544  1.00  0.00     0.002 A 
HETATM   12  C   UNL     1       9.804  31.972  59.817  1.00  0.00     0.001 A 
HETATM   13  C   UNL     1       9.797  31.222  58.634  1.00  0.00     0.014 A 
HETATM   14  C   UNL     1       6.135  28.864  56.188  1.00  0.00     0.291 A 
HETATM   15  O   UNL     1       4.922  28.685  56.257  1.00  0.00    -0.264 OA
ENDROOT
BRANCH   1  16
HETATM   16  C   UNL     1       6.334  27.529  54.140  1.00  0.00     0.258 C 
BRANCH  16  17
HETATM   17  C   UNL     1       7.100  26.206  53.972  1.00  0.00     0.244 C 
HETATM   18  N   UNL     1       6.714  25.147  54.822  1.00  0.00    -0.320 N 
HETATM   19  C   UNL     1       5.542  25.231  55.687  1.00  0.00     0.159 C 
HETATM   20  O   UNL     1       7.971  26.089  53.105  1.00  0.00    -0.271 OA
BRANCH  18  21
HETATM   21  C   UNL     1       7.523  23.956  54.903  1.00  0.00     0.043 A 
HETATM   22  C   UNL     1       7.312  22.944  53.943  1.00  0.00     0.037 A 
HETATM   23  C   UNL     1       8.099  21.786  53.893  1.00  0.00    -0.060 A 
HETATM   24  C   UNL     1       7.846  20.729  52.858  1.00  0.00     0.048 C 
HETATM   25  C   UNL     1       9.136  21.638  54.809  1.00  0.00     0.007 A 
HETATM   26  C   UNL     1       9.357  22.616  55.778  1.00  0.00     0.009 A 
HETATM   27  C   UNL     1       8.547  23.768  55.858  1.00  0.00    -0.035 A 
HETATM   28  C   UNL     1       8.806  24.697  57.012  1.00  0.00     0.050 C 
ENDBRANCH  18  21
ENDBRANCH  16  17
ENDBRANCH   1  16
TORSDOF 3
ENDMDL
MODEL 2
REMARK VINA RESULT:     -10.0      1.059      1.147
REMARK  3 active torsions:
REMARK  status: ('A' for Active; 'I' for Inactive)
REMARK    1  A    between atoms: C_4  and  N_5 
REMARK       I    between atoms: N_5  and  C_6 
REMARK    2  A    between atoms: C_6  and  C_7 
REMARK    3  A    between atoms: C_7  and  N_8 
ROOT
HETATM    1  N   UNL     1       6.878  28.877  56.126  1.00  0.00    -0.224 N 
HETATM    2  N   UNL     1       8.186  28.525  56.510  1.00  0.00    -0.180 NA
HETATM    3  C   UNL     1       8.698  29.057  57.584  1.00  0.00     0.153 A 
HETATM    4  C   UNL     1       7.958  30.006  58.369  1.00  0.00     0.028 A 
HETATM    5  C   UNL     1       6.691  30.348  57.968  1.00  0.00     0.116 A 
HETATM    6  N   UNL     1       6.181  31.246  58.859  1.00  0.00    -0.350 N 
HETATM    7  H   UNL     1       5.256  31.651  58.804  1.00  0.00     0.166 HD
HETATM    8  C   UNL     1       7.117  31.505  59.839  1.00  0.00     0.044 A 
HETATM    9  C   UNL     1       8.250  30.733  59.552  1.00  0.00     0.005 A 
HETATM   10  C   UNL     1       7.043  32.355  60.949  1.00  0.00     0.030 A 
HETATM   11  C   UNL     1       8.160  32.421  61.787  1.00  0.00     0.002 A 
HETATM   12  C   UNL     1       9.301  31.667  61.527  1.00  0.00     0.001 A 
HETATM   13  C   UNL     1       9.361  30.819  60.415  1.00  0.00     0.014 A 
HETATM   14  C   UNL     1       6.066  29.809  56.800  1.00  0.00     0.291 A 
HETATM   15  O   UNL     1       4.945  30.146  56.427  1.00  0.00    -0.264 OA
ENDROOT
BRANCH   1  16
HETATM   16  C   UNL     1       6.329  28.221  54.949  1.00  0.00     0.258 C 
BRANCH  16  17
HETATM   17  C   UNL     1       7.082  26.916  54.641  1.00  0.00     0.244 C 
HETATM   18  N   UNL     1       6.630  25.759  55.312  1.00  0.00    -0.320 N 
HETATM   19  C   UNL     1       5.411  25.751  56.114  1.00  0.00     0.159 C 
HETATM   20  O   UNL     1       8.001  26.899  53.816  1.00  0.00    -0.271 OA
BRANCH  18  21
HETATM   21  C   UNL     1       7.414  24.550  55.271  1.00  0.00     0.043 A 
HETATM   22  C   UNL     1       7.220  23.670  54.186  1.00  0.00     0.037 A 
HETATM   23  C   UNL     1       7.987  22.509  54.018  1.00  0.00    -0.060 A 
HETATM   24  C   UNL     1       7.753  21.595  52.852  1.00  0.00     0.048 C 
HETATM   25  C   UNL     1       8.988  22.226  54.944  1.00  0.00     0.007 A 
HETATM   26  C   UNL     1       9.190  23.070  56.034  1.00  0.00     0.009 A 
HETATM   27  C   UNL     1       8.399  24.221  56.230  1.00  0.00    -0.035 A 
HETATM   28  C   UNL     1       8.632  24.994  57.499  1.00  0.00     0.050 C 
ENDBRANCH  18  21
ENDBRANCH  16  17
ENDBRANCH   1  16
TORSDOF 3
ENDMDL
MODEL 3
REMARK VINA RESULT:      -9.7      1.794      8.237
REMARK  3 active torsions:
REMARK  status: ('A' for Active; 'I' for Inactive)
REMARK    1  A    between atoms: C_4  and  N_5 
REMARK       I    between atoms: N_5  and  C_6 
REMARK    2  A    between atoms: C_6  and  C_7 
REMARK    3  A    between atoms: C_7  and  N_8 
ROOT
HETATM    1  N   UNL     1       6.429  26.261  55.729  1.00  0.00    -0.224 N 
HETATM    2  N   UNL     1       6.907  26.402  54.412  1.00  0.00    -0.180 NA
HETATM    3  C   UNL     1       7.376  25.357  53.791  1.00  0.00     0.153 A 
HETATM    4  C   UNL     1       7.429  24.072  54.432  1.00  0.00     0.028 A 
HETATM    5  C   UNL     1       6.975  23.960  55.722  1.00  0.00     0.116 A 
HETATM    6  N   UNL     1       7.111  22.662  56.119  1.00  0.00    -0.350 N 
HETATM    7  H   UNL     1       6.838  22.305  57.025  1.00  0.00     0.166 HD
HETATM    8  C   UNL     1       7.668  21.923  55.096  1.00  0.00     0.044 A 
HETATM    9  C   UNL     1       7.879  22.792  54.017  1.00  0.00     0.005 A 
HETATM   10  C   UNL     1       7.994  20.563  55.045  1.00  0.00     0.030 A 
HETATM   11  C   UNL     1       8.555  20.076  53.861  1.00  0.00     0.002 A 
HETATM   12  C   UNL     1       8.779  20.915  52.773  1.00  0.00     0.001 A 
HETATM   13  C   UNL     1       8.446  22.274  52.836  1.00  0.00     0.014 A 
HETATM   14  C   UNL     1       6.450  25.063  56.467  1.00  0.00     0.291 A 
HETATM   15  O   UNL     1       6.077  24.962  57.633  1.00  0.00    -0.264 OA
ENDROOT
BRANCH   1  16
HETATM   16  C   UNL     1       5.869  27.443  56.365  1.00  0.00     0.258 C 
BRANCH  16  17
HETATM   17  C   UNL     1       6.926  28.169  57.214  1.00  0.00     0.244 C 
HETATM   18  N   UNL     1       7.043  29.561  57.013  1.00  0.00    -0.320 N 
HETATM   19  C   UNL     1       6.102  30.309  56.185  1.00  0.00     0.159 C 
HETATM   20  O   UNL     1       7.594  27.551  58.050  1.00  0.00    -0.271 OA
BRANCH  18  21
HETATM   21  C   UNL     1       8.156  30.280  57.582  1.00  0.00     0.043 A 
HETATM   22  C   UNL     1       7.923  31.055  58.738  1.00  0.00     0.037 A 
HETATM   23  C   UNL     1       8.955  31.728  59.407  1.00  0.00    -0.060 A 
HETATM   24  C   UNL     1       8.672  32.544  60.633  1.00  0.00     0.048 C 
HETATM   25  C   UNL     1      10.256  31.611  58.925  1.00  0.00     0.007 A 
HETATM   26  C   UNL     1      10.510  30.864  57.776  1.00  0.00     0.009 A 
HETATM   27  C   UNL     1       9.473  30.213  57.077  1.00  0.00    -0.035 A 
HETATM   28  C   UNL     1       9.850  29.532  55.789  1.00  0.00     0.050 C 
ENDBRANCH  18  21
ENDBRANCH  16  17
ENDBRANCH   1  16
TORSDOF 3
ENDMDL
MODEL 4
REMARK VINA RESULT:      -9.6      2.060      3.671
REMARK  3 active torsions:
REMARK  status: ('A' for Active; 'I' for Inactive)
REMARK    1  A    between atoms: C_4  and  N_5 
REMARK       I    between atoms: N_5  and  C_6 
REMARK    2  A    between atoms: C_6  and  C_7 
REMARK    3  A    between atoms: C_7  and  N_8 
ROOT
HETATM    1  N   UNL     1       6.700  30.746  57.702  1.00  0.00    -0.224 N 
HETATM    2  N   UNL     1       7.803  30.163  58.352  1.00  0.00    -0.180 NA
HETATM    3  C   UNL     1       8.096  30.537  59.566  1.00  0.00     0.153 A 
HETATM    4  C   UNL     1       7.324  31.545  60.240  1.00  0.00     0.028 A 
HETATM    5  C   UNL     1       6.263  32.112  59.580  1.00  0.00     0.116 A 
HETATM    6  N   UNL     1       5.677  33.025  60.407  1.00  0.00    -0.350 N 
HETATM    7  H   UNL     1       4.863  33.578  60.171  1.00  0.00     0.166 HD
HETATM    8  C   UNL     1       6.361  33.069  61.605  1.00  0.00     0.044 A 
HETATM    9  C   UNL     1       7.407  32.141  61.524  1.00  0.00     0.005 A 
HETATM   10  C   UNL     1       6.129  33.850  62.743  1.00  0.00     0.030 A 
HETATM   11  C   UNL     1       6.994  33.683  63.828  1.00  0.00     0.002 A 
HETATM   12  C   UNL     1       8.044  32.770  63.778  1.00  0.00     0.001 A 
HETATM   13  C   UNL     1       8.263  31.993  62.634  1.00  0.00     0.014 A 
HETATM   14  C   UNL     1       5.884  31.754  58.248  1.00  0.00     0.291 A 
HETATM   15  O   UNL     1       4.955  32.292  57.652  1.00  0.00    -0.264 OA
ENDROOT
BRANCH   1  16
HETATM   16  C   UNL     1       6.380  30.260  56.367  1.00  0.00     0.258 C 
BRANCH  16  17
HETATM   17  C   UNL     1       6.248  28.728  56.352  1.00  0.00     0.244 C 
HETATM   18  N   UNL     1       7.175  28.028  55.549  1.00  0.00    -0.320 N 
HETATM   19  C   UNL     1       8.307  28.691  54.910  1.00  0.00     0.159 C 
HETATM   20  O   UNL     1       5.397  28.163  57.046  1.00  0.00    -0.271 OA
BRANCH  18  21
HETATM   21  C   UNL     1       6.983  26.623  55.286  1.00  0.00     0.043 A 
HETATM   22  C   UNL     1       6.203  26.258  54.169  1.00  0.00     0.037 A 
HETATM   23  C   UNL     1       6.022  24.922  53.788  1.00  0.00    -0.060 A 
HETATM   24  C   UNL     1       5.184  24.569  52.595  1.00  0.00     0.048 C 
HETATM   25  C   UNL     1       6.650  23.922  54.526  1.00  0.00     0.007 A 
HETATM   26  C   UNL     1       7.414  24.255  55.644  1.00  0.00     0.009 A 
HETATM   27  C   UNL     1       7.572  25.595  56.055  1.00  0.00    -0.035 A 
HETATM   28  C   UNL     1       8.323  25.824  57.338  1.00  0.00     0.050 C 
ENDBRANCH  18  21
ENDBRANCH  16  17
ENDBRANCH   1  16
TORSDOF 3
ENDMDL
MODEL 5
REMARK VINA RESULT:      -9.4      4.171      8.084
REMARK  3 active torsions:
REMARK  status: ('A' for Active; 'I' for Inactive)
REMARK    1  A    between atoms: C_4  and  N_5 
REMARK       I    between atoms: N_5  and  C_6 
REMARK    2  A    between atoms: C_6  and  C_7 
REMARK    3  A    between atoms: C_7  and  N_8 
ROOT
HETATM    1  N   UNL     1       6.751  26.886  53.393  1.00  0.00    -0.224 N 
HETATM    2  N   UNL     1       7.040  26.255  52.169  1.00  0.00    -0.180 NA
HETATM    3  C   UNL     1       7.322  24.982  52.161  1.00  0.00     0.153 A 
HETATM    4  C   UNL     1       7.359  24.221  53.379  1.00  0.00     0.028 A 
HETATM    5  C   UNL     1       7.090  24.860  54.563  1.00  0.00     0.116 A 
HETATM    6  N   UNL     1       7.172  23.949  55.576  1.00  0.00    -0.350 N 
HETATM    7  H   UNL     1       7.005  24.156  56.552  1.00  0.00     0.166 HD
HETATM    8  C   UNL     1       7.508  22.715  55.059  1.00  0.00     0.044 A 
HETATM    9  C   UNL     1       7.632  22.860  53.672  1.00  0.00     0.005 A 
HETATM   10  C   UNL     1       7.706  21.492  55.712  1.00  0.00     0.030 A 
HETATM   11  C   UNL     1       8.043  20.387  54.925  1.00  0.00     0.002 A 
HETATM   12  C   UNL     1       8.176  20.500  53.544  1.00  0.00     0.001 A 
HETATM   13  C   UNL     1       7.973  21.729  52.904  1.00  0.00     0.014 A 
HETATM   14  C   UNL     1       6.776  26.253  54.650  1.00  0.00     0.291 A 
HETATM   15  O   UNL     1       6.572  26.825  55.717  1.00  0.00    -0.264 OA
ENDROOT
BRANCH   1  16
HETATM   16  C   UNL     1       6.392  28.296  53.348  1.00  0.00     0.258 C 
BRANCH  16  17
HETATM   17  C   UNL     1       5.678  28.644  52.032  1.00  0.00     0.244 C 
HETATM   18  N   UNL     1       4.318  28.273  51.940  1.00  0.00    -0.320 N 
HETATM   19  C   UNL     1       3.575  27.754  53.083  1.00  0.00     0.159 C 
HETATM   20  O   UNL     1       6.271  29.252  51.135  1.00  0.00    -0.271 OA
BRANCH  18  21
HETATM   21  C   UNL     1       3.637  28.341  50.671  1.00  0.00     0.043 A 
HETATM   22  C   UNL     1       3.829  27.284  49.757  1.00  0.00     0.037 A 
HETATM   23  C   UNL     1       3.152  27.223  48.532  1.00  0.00    -0.060 A 
HETATM   24  C   UNL     1       3.381  26.084  47.583  1.00  0.00     0.048 C 
HETATM   25  C   UNL     1       2.245  28.231  48.215  1.00  0.00     0.007 A 
HETATM   26  C   UNL     1       2.048  29.295  49.093  1.00  0.00     0.009 A 
HETATM   27  C   UNL     1       2.752  29.382  50.312  1.00  0.00    -0.035 A 
HETATM   28  C   UNL     1       2.542  30.630  51.126  1.00  0.00     0.050 C 
ENDBRANCH  18  21
ENDBRANCH  16  17
ENDBRANCH   1  16
TORSDOF 3
ENDMDL
MODEL 6
REMARK VINA RESULT:      -9.3      4.453      7.507
REMARK  3 active torsions:
REMARK  status: ('A' for Active; 'I' for Inactive)
REMARK    1  A    between atoms: C_4  and  N_5 
REMARK       I    between atoms: N_5  and  C_6 
REMARK    2  A    between atoms: C_6  and  C_7 
REMARK    3  A    between atoms: C_7  and  N_8 
ROOT
HETATM    1  N   UNL     1       5.634  27.358  51.830  1.00  0.00    -0.224 N 
HETATM    2  N   UNL     1       5.623  26.211  51.014  1.00  0.00    -0.180 NA
HETATM    3  C   UNL     1       4.806  26.159  50.000  1.00  0.00     0.153 A 
HETATM    4  C   UNL     1       3.906  27.243  49.715  1.00  0.00     0.028 A 
HETATM    5  C   UNL     1       3.920  28.344  50.534  1.00  0.00     0.116 A 
HETATM    6  N   UNL     1       3.001  29.240  50.072  1.00  0.00    -0.350 N 
HETATM    7  H   UNL     1       2.818  30.144  50.487  1.00  0.00     0.166 HD
HETATM    8  C   UNL     1       2.372  28.722  48.958  1.00  0.00     0.044 A 
HETATM    9  C   UNL     1       2.927  27.460  48.712  1.00  0.00     0.005 A 
HETATM   10  C   UNL     1       1.366  29.275  48.157  1.00  0.00     0.030 A 
HETATM   11  C   UNL     1       0.910  28.516  47.076  1.00  0.00     0.002 A 
HETATM   12  C   UNL     1       1.440  27.257  46.806  1.00  0.00     0.001 A 
HETATM   13  C   UNL     1       2.448  26.717  47.614  1.00  0.00     0.014 A 
HETATM   14  C   UNL     1       4.787  28.470  51.665  1.00  0.00     0.291 A 
HETATM   15  O   UNL     1       4.769  29.443  52.413  1.00  0.00    -0.264 OA
ENDROOT
BRANCH   1  16
HETATM   16  C   UNL     1       6.598  27.392  52.919  1.00  0.00     0.258 C 
BRANCH  16  17
HETATM   17  C   UNL     1       7.325  26.044  53.058  1.00  0.00     0.244 C 
HETATM   18  N   UNL     1       6.770  25.125  53.975  1.00  0.00    -0.320 N 
HETATM   19  C   UNL     1       5.483  25.355  54.625  1.00  0.00     0.159 C 
HETATM   20  O   UNL     1       8.313  25.787  52.364  1.00  0.00    -0.271 OA
BRANCH  18  21
HETATM   21  C   UNL     1       7.507  23.943  54.346  1.00  0.00     0.043 A 
HETATM   22  C   UNL     1       7.474  22.838  53.469  1.00  0.00     0.037 A 
HETATM   23  C   UNL     1       8.217  21.674  53.705  1.00  0.00    -0.060 A 
HETATM   24  C   UNL     1       8.158  20.517  52.751  1.00  0.00     0.048 C 
HETATM   25  C   UNL     1       9.032  21.614  54.832  1.00  0.00     0.007 A 
HETATM   26  C   UNL     1       9.071  22.686  55.723  1.00  0.00     0.009 A 
HETATM   27  C   UNL     1       8.298  23.846  55.512  1.00  0.00    -0.035 A 
HETATM   28  C   UNL     1       8.334  24.889  56.596  1.00  0.00     0.050 C 
ENDBRANCH  18  21
ENDBRANCH  16  17
ENDBRANCH   1  16
TORSDOF 3
ENDMDL
MODEL 7
REMARK VINA RESULT:      -9.1      1.612      8.219
REMARK  3 active torsions:
REMARK  status: ('A' for Active; 'I' for Inactive)
REMARK    1  A    between atoms: C_4  and  N_5 
REMARK       I    between atoms: N_5  and  C_6 
REMARK    2  A    between atoms: C_6  and  C_7 
REMARK    3  A    between atoms: C_7  and  N_8 
ROOT
HETATM    1  N   UNL     1       7.192  26.696  54.651  1.00  0.00    -0.224 N 
HETATM    2  N   UNL     1       7.523  26.275  55.953  1.00  0.00    -0.180 NA
HETATM    3  C   UNL     1       7.871  25.035  56.150  1.00  0.00     0.153 A 
HETATM    4  C   UNL     1       7.904  24.090  55.068  1.00  0.00     0.028 A 
HETATM    5  C   UNL     1       7.560  24.517  53.810  1.00  0.00     0.116 A 
HETATM    6  N   UNL     1       7.672  23.465  52.949  1.00  0.00    -0.350 N 
HETATM    7  H   UNL     1       7.490  23.512  51.955  1.00  0.00     0.166 HD
HETATM    8  C   UNL     1       8.076  22.343  53.642  1.00  0.00     0.044 A 
HETATM    9  C   UNL     1       8.229  22.712  54.985  1.00  0.00     0.005 A 
HETATM   10  C   UNL     1       8.317  21.043  53.184  1.00  0.00     0.030 A 
HETATM   11  C   UNL     1       8.723  20.091  54.123  1.00  0.00     0.002 A 
HETATM   12  C   UNL     1       8.882  20.426  55.465  1.00  0.00     0.001 A 
HETATM   13  C   UNL     1       8.640  21.732  55.910  1.00  0.00     0.014 A 
HETATM   14  C   UNL     1       7.166  25.861  53.518  1.00  0.00     0.291 A 
HETATM   15  O   UNL     1       6.826  26.227  52.396  1.00  0.00    -0.264 OA
ENDROOT
BRANCH   1  16
HETATM   16  C   UNL     1       6.858  28.101  54.469  1.00  0.00     0.258 C 
BRANCH  16  17
HETATM   17  C   UNL     1       7.332  28.942  55.667  1.00  0.00     0.244 C 
HETATM   18  N   UNL     1       6.378  29.180  56.680  1.00  0.00    -0.320 N 
HETATM   19  C   UNL     1       5.075  28.524  56.692  1.00  0.00     0.159 C 
HETATM   20  O   UNL     1       8.499  29.340  55.734  1.00  0.00    -0.271 OA
BRANCH  18  21
HETATM   21  C   UNL     1       6.653  30.146  57.715  1.00  0.00     0.043 A 
HETATM   22  C   UNL     1       7.665  29.844  58.652  1.00  0.00     0.037 A 
HETATM   23  C   UNL     1       8.056  30.750  59.647  1.00  0.00    -0.060 A 
HETATM   24  C   UNL     1       9.135  30.397  60.627  1.00  0.00     0.048 C 
HETATM   25  C   UNL     1       7.439  31.997  59.700  1.00  0.00     0.007 A 
HETATM   26  C   UNL     1       6.426  32.314  58.796  1.00  0.00     0.009 A 
HETATM   27  C   UNL     1       6.002  31.395  57.814  1.00  0.00    -0.035 A 
HETATM   28  C   UNL     1       4.826  31.804  56.969  1.00  0.00     0.050 C 
ENDBRANCH  18  21
ENDBRANCH  16  17
ENDBRANCH   1  16
TORSDOF 3
ENDMDL
MODEL 8
REMARK VINA RESULT:      -9.1      2.650      7.967
REMARK  3 active torsions:
REMARK  status: ('A' for Active; 'I' for Inactive)
REMARK    1  A    between atoms: C_4  and  N_5 
REMARK       I    between atoms: N_5  and  C_6 
REMARK    2  A    between atoms: C_6  and  C_7 
REMARK    3  A    between atoms: C_7  and  N_8 
ROOT
HETATM    1  N   UNL     1       7.781  26.304  56.323  1.00  0.00    -0.224 N 
HETATM    2  N   UNL     1       7.441  26.339  54.957  1.00  0.00    -0.180 NA
HETATM    3  C   UNL     1       7.507  25.241  54.258  1.00  0.00     0.153 A 
HETATM    4  C   UNL     1       7.936  24.005  54.853  1.00  0.00     0.028 A 
HETATM    5  C   UNL     1       8.280  23.998  56.181  1.00  0.00     0.116 A 
HETATM    6  N   UNL     1       8.642  22.729  56.528  1.00  0.00    -0.350 N 
HETATM    7  H   UNL     1       8.929  22.445  57.456  1.00  0.00     0.166 HD
HETATM    8  C   UNL     1       8.551  21.906  55.425  1.00  0.00     0.044 A 
HETATM    9  C   UNL     1       8.106  22.689  54.352  1.00  0.00     0.005 A 
HETATM   10  C   UNL     1       8.823  20.538  55.301  1.00  0.00     0.030 A 
HETATM   11  C   UNL     1       8.639  19.954  54.045  1.00  0.00     0.002 A 
HETATM   12  C   UNL     1       8.200  20.707  52.958  1.00  0.00     0.001 A 
HETATM   13  C   UNL     1       7.929  22.073  53.097  1.00  0.00     0.014 A 
HETATM   14  C   UNL     1       8.236  25.163  57.010  1.00  0.00     0.291 A 
HETATM   15  O   UNL     1       8.578  25.156  58.189  1.00  0.00    -0.264 OA
ENDROOT
BRANCH   1  16
HETATM   16  C   UNL     1       7.645  27.543  57.075  1.00  0.00     0.258 C 
BRANCH  16  17
HETATM   17  C   UNL     1       7.038  28.656  56.205  1.00  0.00     0.244 C 
HETATM   18  N   UNL     1       5.630  28.752  56.203  1.00  0.00    -0.320 N 
HETATM   19  C   UNL     1       4.796  27.968  57.108  1.00  0.00     0.159 C 
HETATM   20  O   UNL     1       7.767  29.436  55.583  1.00  0.00    -0.271 OA
BRANCH  18  21
HETATM   21  C   UNL     1       4.967  29.600  55.244  1.00  0.00     0.043 A 
HETATM   22  C   UNL     1       4.545  29.022  54.027  1.00  0.00     0.037 A 
HETATM   23  C   UNL     1       3.827  29.746  53.066  1.00  0.00    -0.060 A 
HETATM   24  C   UNL     1       3.396  29.100  51.782  1.00  0.00     0.048 C 
HETATM   25  C   UNL     1       3.501  31.073  53.329  1.00  0.00     0.007 A 
HETATM   26  C   UNL     1       3.919  31.673  54.516  1.00  0.00     0.009 A 
HETATM   27  C   UNL     1       4.672  30.962  55.473  1.00  0.00    -0.035 A 
HETATM   28  C   UNL     1       5.163  31.743  56.662  1.00  0.00     0.050 C 
ENDBRANCH  18  21
ENDBRANCH  16  17
ENDBRANCH   1  16
TORSDOF 3
ENDMDL
MODEL 9
REMARK VINA RESULT:      -9.1      3.901      8.058
REMARK  3 active torsions:
REMARK  status: ('A' for Active; 'I' for Inactive)
REMARK    1  A    between atoms: C_4  and  N_5 
REMARK       I    between atoms: N_5  and  C_6 
REMARK    2  A    between atoms: C_6  and  C_7 
REMARK    3  A    between atoms: C_7  and  N_8 
ROOT
HETATM    1  N   UNL     1       6.283  26.117  54.750  1.00  0.00    -0.224 N 
HETATM    2  N   UNL     1       6.223  25.461  53.506  1.00  0.00    -0.180 NA
HETATM    3  C   UNL     1       6.658  24.236  53.412  1.00  0.00     0.153 A 
HETATM    4  C   UNL     1       7.213  23.555  54.549  1.00  0.00     0.028 A 
HETATM    5  C   UNL     1       7.278  24.220  55.748  1.00  0.00     0.116 A 
HETATM    6  N   UNL     1       7.826  23.385  56.678  1.00  0.00    -0.350 N 
HETATM    7  H   UNL     1       7.975  23.623  57.650  1.00  0.00     0.166 HD
HETATM    8  C   UNL     1       8.133  22.176  56.088  1.00  0.00     0.044 A 
HETATM    9  C   UNL     1       7.755  22.258  54.741  1.00  0.00     0.005 A 
HETATM   10  C   UNL     1       8.709  21.027  56.642  1.00  0.00     0.030 A 
HETATM   11  C   UNL     1       8.908  19.932  55.798  1.00  0.00     0.002 A 
HETATM   12  C   UNL     1       8.545  19.983  54.454  1.00  0.00     0.001 A 
HETATM   13  C   UNL     1       7.967  21.138  53.913  1.00  0.00     0.014 A 
HETATM   14  C   UNL     1       6.823  25.564  55.926  1.00  0.00     0.291 A 
HETATM   15  O   UNL     1       6.917  26.164  56.993  1.00  0.00    -0.264 OA
ENDROOT
BRANCH   1  16
HETATM   16  C   UNL     1       5.739  27.466  54.819  1.00  0.00     0.258 C 
BRANCH  16  17
HETATM   17  C   UNL     1       5.985  28.230  53.507  1.00  0.00     0.244 C 
HETATM   18  N   UNL     1       4.845  28.513  52.724  1.00  0.00    -0.320 N 
HETATM   19  C   UNL     1       3.490  28.262  53.204  1.00  0.00     0.159 C 
HETATM   20  O   UNL     1       7.122  28.601  53.199  1.00  0.00    -0.271 OA
BRANCH  18  21
HETATM   21  C   UNL     1       5.000  29.009  51.379  1.00  0.00     0.043 A 
HETATM   22  C   UNL     1       5.045  30.406  51.188  1.00  0.00     0.037 A 
HETATM   23  C   UNL     1       5.269  30.982  49.931  1.00  0.00    -0.060 A 
HETATM   24  C   UNL     1       5.309  32.472  49.763  1.00  0.00     0.048 C 
HETATM   25  C   UNL     1       5.473  30.146  48.836  1.00  0.00     0.007 A 
HETATM   26  C   UNL     1       5.419  28.762  48.994  1.00  0.00     0.009 A 
HETATM   27  C   UNL     1       5.159  28.175  50.250  1.00  0.00    -0.035 A 
HETATM   28  C   UNL     1       5.011  26.678  50.278  1.00  0.00     0.050 C 
ENDBRANCH  18  21
ENDBRANCH  16  17
ENDBRANCH   1  16
TORSDOF 3
ENDMDL
MODEL 10
REMARK VINA RESULT:      -8.9      2.872      5.241
REMARK  3 active torsions:
REMARK  status: ('A' for Active; 'I' for Inactive)
REMARK    1  A    between atoms: C_4  and  N_5 
REMARK       I    between atoms: N_5  and  C_6 
REMARK    2  A    between atoms: C_6  and  C_7 
REMARK    3  A    between atoms: C_7  and  N_8 
ROOT
HETATM    1  N   UNL     1       8.468  30.880  59.234  1.00  0.00    -0.224 N 
HETATM    2  N   UNL     1       7.417  31.699  58.779  1.00  0.00    -0.180 NA
HETATM    3  C   UNL     1       6.802  32.473  59.628  1.00  0.00     0.153 A 
HETATM    4  C   UNL     1       7.165  32.490  61.018  1.00  0.00     0.028 A 
HETATM    5  C   UNL     1       8.180  31.671  61.443  1.00  0.00     0.116 A 
HETATM    6  N   UNL     1       8.357  31.858  62.783  1.00  0.00    -0.350 N 
HETATM    7  H   UNL     1       9.052  31.385  63.345  1.00  0.00     0.166 HD
HETATM    8  C   UNL     1       7.449  32.790  63.241  1.00  0.00     0.044 A 
HETATM    9  C   UNL     1       6.683  33.205  62.144  1.00  0.00     0.005 A 
HETATM   10  C   UNL     1       7.253  33.294  64.533  1.00  0.00     0.030 A 
HETATM   11  C   UNL     1       6.245  34.245  64.710  1.00  0.00     0.002 A 
HETATM   12  C   UNL     1       5.466  34.676  63.639  1.00  0.00     0.001 A 
HETATM   13  C   UNL     1       5.674  34.166  62.352  1.00  0.00     0.014 A 
HETATM   14  C   UNL     1       8.899  30.793  60.571  1.00  0.00     0.291 A 
HETATM   15  O   UNL     1       9.782  30.037  60.966  1.00  0.00    -0.264 OA
ENDROOT
BRANCH   1  16
HETATM   16  C   UNL     1       9.160  30.070  58.242  1.00  0.00     0.258 C 
BRANCH  16  17
HETATM   17  C   UNL     1       8.262  28.929  57.735  1.00  0.00     0.244 C 
HETATM   18  N   UNL     1       8.312  28.661  56.350  1.00  0.00    -0.320 N 
HETATM   19  C   UNL     1       9.286  29.298  55.469  1.00  0.00     0.159 C 
HETATM   20  O   UNL     1       7.575  28.271  58.523  1.00  0.00    -0.271 OA
BRANCH  18  21
HETATM   21  C   UNL     1       7.341  27.780  55.751  1.00  0.00     0.043 A 
HETATM   22  C   UNL     1       7.699  26.428  55.562  1.00  0.00     0.037 A 
HETATM   23  C   UNL     1       6.798  25.480  55.059  1.00  0.00    -0.060 A 
HETATM   24  C   UNL     1       7.213  24.051  54.870  1.00  0.00     0.048 C 
HETATM   25  C   UNL     1       5.501  25.882  54.753  1.00  0.00     0.007 A 
HETATM   26  C   UNL     1       5.126  27.215  54.916  1.00  0.00     0.009 A 
HETATM   27  C   UNL     1       6.036  28.182  55.388  1.00  0.00    -0.035 A 
HETATM   28  C   UNL     1       5.555  29.607  55.415  1.00  0.00     0.050 C 
ENDBRANCH  18  21
ENDBRANCH  16  17
ENDBRANCH   1  16
TORSDOF 3
ENDMDL
