MODEL 1
REMARK VINA RESULT:      -9.5      0.000      0.000
REMARK  9 active torsions:
REMARK  status: ('A' for Active; 'I' for Inactive)
REMARK    1  A    between atoms: N_5  and  C_6 
REMARK    2  A    between atoms: C_6  and  C_7 
REMARK    3  A    between atoms: C_7  and  O_8 
REMARK    4  A    between atoms: C_7  and  C_9 
REMARK    5  A    between atoms: C_9  and  O_10 
REMARK    6  A    between atoms: O_10  and  C_11 
REMARK    7  A    between atoms: N_23  and  C_24 
REMARK    8  A    between atoms: C_24  and  C_25 
REMARK    9  A    between atoms: C_25  and  N_26 
ROOT
HETATM    1  C   UNL     1      10.835  30.734  57.777  1.00  0.00     0.002 A 
HETATM    2  C   UNL     1       9.677  31.225  58.376  1.00  0.00     0.032 A 
HETATM    3  C   UNL     1       8.498  30.544  58.131  1.00  0.00     0.079 A 
HETATM    4  C   UNL     1       8.423  29.387  57.310  1.00  0.00     0.079 A 
HETATM    5  N   UNL     1       7.094  28.937  57.288  1.00  0.00    -0.179 N 
HETATM    6  C   UNL     1       6.336  29.926  58.003  1.00  0.00     0.681 A 
HETATM    7  N   UNL     1       4.984  29.963  58.083  1.00  0.00    -0.234 N 
HETATM    8  H   UNL     1       4.469  30.713  58.521  1.00  0.00     0.174 HD
HETATM    9  H   UNL     1       4.422  29.245  57.637  1.00  0.00     0.174 HD
HETATM   10  N   UNL     1       7.174  30.879  58.591  1.00  0.00    -0.180 N 
HETATM   11  C   UNL     1       9.576  28.927  56.715  1.00  0.00     0.032 A 
HETATM   12  C   UNL     1      10.782  29.600  56.954  1.00  0.00     0.002 A 
ENDROOT
BRANCH   5  13
HETATM   13  C   UNL     1       6.503  28.124  56.211  1.00  0.00     0.181 C 
BRANCH  13  14
HETATM   14  C   UNL     1       5.671  26.876  56.552  1.00  0.00     0.161 C 
BRANCH  14  15
HETATM   15  O   UNL     1       4.298  27.252  56.691  1.00  0.00    -0.392 OA
HETATM   16  H   UNL     1       3.781  26.424  56.781  1.00  0.00     0.210 HD
ENDBRANCH  14  15
BRANCH  14  17
HETATM   17  C   UNL     1       5.820  25.678  55.609  1.00  0.00     0.209 C 
BRANCH  17  18
HETATM   18  O   UNL     1       7.232  25.485  55.410  1.00  0.00    -0.347 OA
BRANCH  18  19
HETATM   19  C   UNL     1       7.522  24.287  54.810  1.00  0.00     0.090 A 
HETATM   20  C   UNL     1       7.756  24.236  53.429  1.00  0.00     0.069 A 
HETATM   21 CL   UNL     1       7.770  25.675  52.476  1.00  0.00    -0.081 Cl
HETATM   22  C   UNL     1       8.005  23.016  52.802  1.00  0.00     0.050 A 
HETATM   23  C   UNL     1       7.999  21.848  53.560  1.00  0.00     0.035 A 
HETATM   24 CL   UNL     1       8.309  20.337  52.799  1.00  0.00    -0.084 Cl
HETATM   25  C   UNL     1       7.742  21.888  54.932  1.00  0.00     0.026 A 
HETATM   26  C   UNL     1       7.496  23.111  55.559  1.00  0.00     0.040 A 
ENDBRANCH  18  19
ENDBRANCH  17  18
ENDBRANCH  14  17
ENDBRANCH  13  14
ENDBRANCH   5  13
BRANCH  10  27
HETATM   27  C   UNL     1       6.818  32.109  59.318  1.00  0.00     0.175 C 
BRANCH  27  28
HETATM   28  C   UNL     1       6.991  31.971  60.844  1.00  0.00     0.256 C 
BRANCH  28  29
HETATM   29  N   UNL     1       5.934  32.673  61.671  1.00  0.00    -0.066 N 
HETATM   30  H   UNL     1       6.102  33.683  61.543  1.00  0.00     0.280 HD
HETATM   31  C   UNL     1       4.498  32.459  61.171  1.00  0.00     0.261 C 
HETATM   32  C   UNL     1       3.535  33.325  61.994  1.00  0.00     0.195 C 
HETATM   33  O   UNL     1       3.651  33.013  63.386  1.00  0.00    -0.388 OA
HETATM   34  C   UNL     1       4.957  33.302  63.894  1.00  0.00     0.195 C 
HETATM   35  C   UNL     1       6.008  32.441  63.184  1.00  0.00     0.261 C 
ENDBRANCH  28  29
ENDBRANCH  27  28
ENDBRANCH  10  27
TORSDOF 9
ENDMDL
MODEL 2
REMARK VINA RESULT:      -9.0      4.499      9.520
REMARK  9 active torsions:
REMARK  status: ('A' for Active; 'I' for Inactive)
REMARK    1  A    between atoms: N_5  and  C_6 
REMARK    2  A    between atoms: C_6  and  C_7 
REMARK    3  A    between atoms: C_7  and  O_8 
REMARK    4  A    between atoms: C_7  and  C_9 
REMARK    5  A    between atoms: C_9  and  O_10 
REMARK    6  A    between atoms: O_10  and  C_11 
REMARK    7  A    between atoms: N_23  and  C_24 
REMARK    8  A    between atoms: C_24  and  C_25 
REMARK    9  A    between atoms: C_25  and  N_26 
ROOT
HETATM    1  C   UNL     1       8.359  22.361  53.433  1.00  0.00     0.002 A 
HETATM    2  C   UNL     1       7.385  23.161  52.837  1.00  0.00     0.032 A 
HETATM    3  C   UNL     1       6.857  24.190  53.595  1.00  0.00     0.079 A 
HETATM    4  C   UNL     1       7.260  24.460  54.930  1.00  0.00     0.079 A 
HETATM    5  N   UNL     1       6.548  25.574  55.398  1.00  0.00    -0.179 N 
HETATM    6  C   UNL     1       5.601  25.894  54.365  1.00  0.00     0.681 A 
HETATM    7  N   UNL     1       4.607  26.807  54.476  1.00  0.00    -0.234 N 
HETATM    8  H   UNL     1       3.902  26.956  53.768  1.00  0.00     0.174 HD
HETATM    9  H   UNL     1       4.496  27.347  55.328  1.00  0.00     0.174 HD
HETATM   10  N   UNL     1       5.815  25.114  53.224  1.00  0.00    -0.180 N 
HETATM   11  C   UNL     1       8.212  23.650  55.507  1.00  0.00     0.032 A 
HETATM   12  C   UNL     1       8.763  22.603  54.753  1.00  0.00     0.002 A 
ENDROOT
BRANCH   5  13
HETATM   13  C   UNL     1       6.286  25.865  56.819  1.00  0.00     0.181 C 
BRANCH  13  14
HETATM   14  C   UNL     1       7.382  26.496  57.694  1.00  0.00     0.161 C 
BRANCH  14  15
HETATM   15  O   UNL     1       7.921  25.496  58.564  1.00  0.00    -0.392 OA
HETATM   16  H   UNL     1       7.778  24.629  58.128  1.00  0.00     0.210 HD
ENDBRANCH  14  15
BRANCH  14  17
HETATM   17  C   UNL     1       8.498  27.243  56.957  1.00  0.00     0.209 C 
BRANCH  17  18
HETATM   18  O   UNL     1       8.009  28.573  56.710  1.00  0.00    -0.347 OA
BRANCH  18  19
HETATM   19  C   UNL     1       8.410  29.470  57.665  1.00  0.00     0.090 A 
HETATM   20  C   UNL     1       9.719  29.969  57.649  1.00  0.00     0.069 A 
HETATM   21 CL   UNL     1      10.819  29.539  56.390  1.00  0.00    -0.081 Cl
HETATM   22  C   UNL     1      10.150  30.845  58.644  1.00  0.00     0.050 A 
HETATM   23  C   UNL     1       9.272  31.202  59.664  1.00  0.00     0.035 A 
HETATM   24 CL   UNL     1       9.791  32.285  60.896  1.00  0.00    -0.084 Cl
HETATM   25  C   UNL     1       7.974  30.688  59.701  1.00  0.00     0.026 A 
HETATM   26  C   UNL     1       7.542  29.814  58.702  1.00  0.00     0.040 A 
ENDBRANCH  18  19
ENDBRANCH  17  18
ENDBRANCH  14  17
ENDBRANCH  13  14
ENDBRANCH   5  13
BRANCH  10  27
HETATM   27  C   UNL     1       5.022  25.040  51.986  1.00  0.00     0.175 C 
BRANCH  27  28
HETATM   28  C   UNL     1       5.352  26.178  50.999  1.00  0.00     0.256 C 
BRANCH  28  29
HETATM   29  N   UNL     1       4.164  26.719  50.229  1.00  0.00    -0.066 N 
HETATM   30  H   UNL     1       3.328  26.389  50.736  1.00  0.00     0.280 HD
HETATM   31  C   UNL     1       4.044  28.250  50.251  1.00  0.00     0.261 C 
HETATM   32  C   UNL     1       2.737  28.670  49.565  1.00  0.00     0.195 C 
HETATM   33  O   UNL     1       2.693  28.165  48.227  1.00  0.00    -0.388 OA
HETATM   34  C   UNL     1       2.701  26.735  48.193  1.00  0.00     0.195 C 
HETATM   35  C   UNL     1       4.002  26.195  48.799  1.00  0.00     0.261 C 
ENDBRANCH  28  29
ENDBRANCH  27  28
ENDBRANCH  10  27
TORSDOF 9
ENDMDL
MODEL 3
REMARK VINA RESULT:      -9.0      4.649      9.760
REMARK  9 active torsions:
REMARK  status: ('A' for Active; 'I' for Inactive)
REMARK    1  A    between atoms: N_5  and  C_6 
REMARK    2  A    between atoms: C_6  and  C_7 
REMARK    3  A    between atoms: C_7  and  O_8 
REMARK    4  A    between atoms: C_7  and  C_9 
REMARK    5  A    between atoms: C_9  and  O_10 
REMARK    6  A    between atoms: O_10  and  C_11 
REMARK    7  A    between atoms: N_23  and  C_24 
REMARK    8  A    between atoms: C_24  and  C_25 
REMARK    9  A    between atoms: C_25  and  N_26 
ROOT
HETATM    1  C   UNL     1       8.284  22.677  54.519  1.00  0.00     0.002 A 
HETATM    2  C   UNL     1       7.270  23.349  53.839  1.00  0.00     0.032 A 
HETATM    3  C   UNL     1       6.834  24.549  54.373  1.00  0.00     0.079 A 
HETATM    4  C   UNL     1       7.369  25.111  55.563  1.00  0.00     0.079 A 
HETATM    5  N   UNL     1       6.723  26.331  55.814  1.00  0.00    -0.179 N 
HETATM    6  C   UNL     1       5.686  26.432  54.825  1.00  0.00     0.681 A 
HETATM    7  N   UNL     1       4.721  27.383  54.803  1.00  0.00    -0.234 N 
HETATM    8  H   UNL     1       3.953  27.388  54.147  1.00  0.00     0.174 HD
HETATM    9  H   UNL     1       4.702  28.113  55.508  1.00  0.00     0.174 HD
HETATM   10  N   UNL     1       5.776  25.397  53.889  1.00  0.00    -0.180 N 
HETATM   11  C   UNL     1       8.360  24.425  56.228  1.00  0.00     0.032 A 
HETATM   12  C   UNL     1       8.819  23.209  55.700  1.00  0.00     0.002 A 
ENDROOT
BRANCH   5  13
HETATM   13  C   UNL     1       6.605  26.959  57.141  1.00  0.00     0.181 C 
BRANCH  13  14
HETATM   14  C   UNL     1       6.731  28.485  57.288  1.00  0.00     0.161 C 
BRANCH  14  15
HETATM   15  O   UNL     1       5.470  29.021  57.700  1.00  0.00    -0.392 OA
HETATM   16  H   UNL     1       4.778  28.553  57.187  1.00  0.00     0.210 HD
ENDBRANCH  14  15
BRANCH  14  17
HETATM   17  C   UNL     1       7.864  28.993  58.186  1.00  0.00     0.209 C 
BRANCH  17  18
HETATM   18  O   UNL     1       7.748  30.426  58.222  1.00  0.00    -0.347 OA
BRANCH  18  19
HETATM   19  C   UNL     1       7.815  30.931  59.494  1.00  0.00     0.090 A 
HETATM   20  C   UNL     1       6.924  31.935  59.895  1.00  0.00     0.069 A 
HETATM   21 CL   UNL     1       5.680  32.494  58.837  1.00  0.00    -0.081 Cl
HETATM   22  C   UNL     1       7.015  32.489  61.172  1.00  0.00     0.050 A 
HETATM   23  C   UNL     1       8.013  32.046  62.036  1.00  0.00     0.035 A 
HETATM   24 CL   UNL     1       8.134  32.717  63.614  1.00  0.00    -0.084 Cl
HETATM   25  C   UNL     1       8.920  31.062  61.634  1.00  0.00     0.026 A 
HETATM   26  C   UNL     1       8.826  30.507  60.357  1.00  0.00     0.040 A 
ENDBRANCH  18  19
ENDBRANCH  17  18
ENDBRANCH  14  17
ENDBRANCH  13  14
ENDBRANCH   5  13
BRANCH  10  27
HETATM   27  C   UNL     1       4.865  25.063  52.781  1.00  0.00     0.175 C 
BRANCH  27  28
HETATM   28  C   UNL     1       5.345  25.620  51.426  1.00  0.00     0.256 C 
BRANCH  28  29
HETATM   29  N   UNL     1       4.360  26.535  50.728  1.00  0.00    -0.066 N 
HETATM   30  H   UNL     1       3.427  26.258  51.072  1.00  0.00     0.280 HD
HETATM   31  C   UNL     1       4.487  28.014  51.120  1.00  0.00     0.261 C 
HETATM   32  C   UNL     1       3.356  28.817  50.464  1.00  0.00     0.195 C 
HETATM   33  O   UNL     1       3.388  28.652  49.043  1.00  0.00    -0.388 OA
HETATM   34  C   UNL     1       3.170  27.293  48.654  1.00  0.00     0.195 C 
HETATM   35  C   UNL     1       4.285  26.396  49.204  1.00  0.00     0.261 C 
ENDBRANCH  28  29
ENDBRANCH  27  28
ENDBRANCH  10  27
TORSDOF 9
ENDMDL
MODEL 4
REMARK VINA RESULT:      -8.8      4.277     10.318
REMARK  9 active torsions:
REMARK  status: ('A' for Active; 'I' for Inactive)
REMARK    1  A    between atoms: N_5  and  C_6 
REMARK    2  A    between atoms: C_6  and  C_7 
REMARK    3  A    between atoms: C_7  and  O_8 
REMARK    4  A    between atoms: C_7  and  C_9 
REMARK    5  A    between atoms: C_9  and  O_10 
REMARK    6  A    between atoms: O_10  and  C_11 
REMARK    7  A    between atoms: N_23  and  C_24 
REMARK    8  A    between atoms: C_24  and  C_25 
REMARK    9  A    between atoms: C_25  and  N_26 
ROOT
HETATM    1  C   UNL     1       4.671  25.863  52.842  1.00  0.00     0.002 A 
HETATM    2  C   UNL     1       5.360  25.223  53.870  1.00  0.00     0.032 A 
HETATM    3  C   UNL     1       5.915  26.020  54.856  1.00  0.00     0.079 A 
HETATM    4  C   UNL     1       5.810  27.437  54.861  1.00  0.00     0.079 A 
HETATM    5  N   UNL     1       6.462  27.931  56.001  1.00  0.00    -0.179 N 
HETATM    6  C   UNL     1       7.085  26.793  56.618  1.00  0.00     0.681 A 
HETATM    7  N   UNL     1       7.948  26.848  57.660  1.00  0.00    -0.234 N 
HETATM    8  H   UNL     1       8.439  26.044  58.024  1.00  0.00     0.174 HD
HETATM    9  H   UNL     1       8.188  27.739  58.084  1.00  0.00     0.174 HD
HETATM   10  N   UNL     1       6.709  25.604  55.983  1.00  0.00    -0.180 N 
HETATM   11  C   UNL     1       5.137  28.051  53.829  1.00  0.00     0.032 A 
HETATM   12  C   UNL     1       4.564  27.260  52.823  1.00  0.00     0.002 A 
ENDROOT
BRANCH   5  13
HETATM   13  C   UNL     1       7.014  29.291  56.126  1.00  0.00     0.181 C 
BRANCH  13  14
HETATM   14  C   UNL     1       6.595  30.191  57.301  1.00  0.00     0.161 C 
BRANCH  14  15
HETATM   15  O   UNL     1       5.452  29.621  57.944  1.00  0.00    -0.392 OA
HETATM   16  H   UNL     1       5.219  30.210  58.692  1.00  0.00     0.210 HD
ENDBRANCH  14  15
BRANCH  14  17
HETATM   17  C   UNL     1       7.686  30.534  58.321  1.00  0.00     0.209 C 
BRANCH  17  18
HETATM   18  O   UNL     1       7.505  31.919  58.666  1.00  0.00    -0.347 OA
BRANCH  18  19
HETATM   19  C   UNL     1       7.524  32.133  60.019  1.00  0.00     0.090 A 
HETATM   20  C   UNL     1       6.404  32.687  60.654  1.00  0.00     0.069 A 
HETATM   21 CL   UNL     1       4.960  33.028  59.772  1.00  0.00    -0.081 Cl
HETATM   22  C   UNL     1       6.431  32.954  62.023  1.00  0.00     0.050 A 
HETATM   23  C   UNL     1       7.589  32.682  62.746  1.00  0.00     0.035 A 
HETATM   24 CL   UNL     1       7.634  33.003  64.435  1.00  0.00    -0.084 Cl
HETATM   25  C   UNL     1       8.717  32.153  62.115  1.00  0.00     0.026 A 
HETATM   26  C   UNL     1       8.689  31.884  60.746  1.00  0.00     0.040 A 
ENDBRANCH  18  19
ENDBRANCH  17  18
ENDBRANCH  14  17
ENDBRANCH  13  14
ENDBRANCH   5  13
BRANCH  10  27
HETATM   27  C   UNL     1       7.186  24.232  56.221  1.00  0.00     0.175 C 
BRANCH  27  28
HETATM   28  C   UNL     1       8.229  23.776  55.181  1.00  0.00     0.256 C 
BRANCH  28  29
HETATM   29  N   UNL     1       8.129  22.320  54.774  1.00  0.00    -0.066 N 
HETATM   30  H   UNL     1       7.193  22.008  55.077  1.00  0.00     0.280 HD
HETATM   31  C   UNL     1       8.135  22.088  53.256  1.00  0.00     0.261 C 
HETATM   32  C   UNL     1       7.887  20.603  52.964  1.00  0.00     0.195 C 
HETATM   33  O   UNL     1       8.874  19.796  53.615  1.00  0.00    -0.388 OA
HETATM   34  C   UNL     1       8.815  19.922  55.039  1.00  0.00     0.195 C 
HETATM   35  C   UNL     1       9.113  21.366  55.459  1.00  0.00     0.261 C 
ENDBRANCH  28  29
ENDBRANCH  27  28
ENDBRANCH  10  27
TORSDOF 9
ENDMDL
MODEL 5
REMARK VINA RESULT:      -8.8      4.365      9.946
REMARK  9 active torsions:
REMARK  status: ('A' for Active; 'I' for Inactive)
REMARK    1  A    between atoms: N_5  and  C_6 
REMARK    2  A    between atoms: C_6  and  C_7 
REMARK    3  A    between atoms: C_7  and  O_8 
REMARK    4  A    between atoms: C_7  and  C_9 
REMARK    5  A    between atoms: C_9  and  O_10 
REMARK    6  A    between atoms: O_10  and  C_11 
REMARK    7  A    between atoms: N_23  and  C_24 
REMARK    8  A    between atoms: C_24  and  C_25 
REMARK    9  A    between atoms: C_25  and  N_26 
ROOT
HETATM    1  C   UNL     1      10.590  29.320  56.432  1.00  0.00     0.002 A 
HETATM    2  C   UNL     1       9.203  29.245  56.315  1.00  0.00     0.032 A 
HETATM    3  C   UNL     1       8.451  30.018  57.181  1.00  0.00     0.079 A 
HETATM    4  C   UNL     1       9.024  30.870  58.163  1.00  0.00     0.079 A 
HETATM    5  N   UNL     1       7.990  31.520  58.854  1.00  0.00    -0.179 N 
HETATM    6  C   UNL     1       6.770  30.941  58.362  1.00  0.00     0.681 A 
HETATM    7  N   UNL     1       5.538  31.170  58.876  1.00  0.00    -0.234 N 
HETATM    8  H   UNL     1       4.704  30.689  58.569  1.00  0.00     0.174 HD
HETATM    9  H   UNL     1       5.415  31.808  59.656  1.00  0.00     0.174 HD
HETATM   10  N   UNL     1       7.016  30.076  57.291  1.00  0.00    -0.180 N 
HETATM   11  C   UNL     1      10.396  30.919  58.272  1.00  0.00     0.032 A 
HETATM   12  C   UNL     1      11.176  30.146  57.401  1.00  0.00     0.002 A 
ENDROOT
BRANCH   5  13
HETATM   13  C   UNL     1       8.106  32.064  60.218  1.00  0.00     0.181 C 
BRANCH  13  14
HETATM   14  C   UNL     1       7.932  31.141  61.436  1.00  0.00     0.161 C 
BRANCH  14  15
HETATM   15  O   UNL     1       8.747  29.978  61.263  1.00  0.00    -0.392 OA
HETATM   16  H   UNL     1       9.540  30.256  60.759  1.00  0.00     0.210 HD
ENDBRANCH  14  15
BRANCH  14  17
HETATM   17  C   UNL     1       8.162  31.776  62.811  1.00  0.00     0.209 C 
BRANCH  17  18
HETATM   18  O   UNL     1       7.530  33.067  62.779  1.00  0.00    -0.347 OA
BRANCH  18  19
HETATM   19  C   UNL     1       6.768  33.311  63.892  1.00  0.00     0.090 A 
HETATM   20  C   UNL     1       5.372  33.217  63.817  1.00  0.00     0.069 A 
HETATM   21 CL   UNL     1       4.592  32.712  62.363  1.00  0.00    -0.081 Cl
HETATM   22  C   UNL     1       4.586  33.510  64.932  1.00  0.00     0.050 A 
HETATM   23  C   UNL     1       5.204  33.916  66.112  1.00  0.00     0.035 A 
HETATM   24 CL   UNL     1       4.246  34.277  67.494  1.00  0.00    -0.084 Cl
HETATM   25  C   UNL     1       6.593  34.037  66.186  1.00  0.00     0.026 A 
HETATM   26  C   UNL     1       7.379  33.741  65.071  1.00  0.00     0.040 A 
ENDBRANCH  18  19
ENDBRANCH  17  18
ENDBRANCH  14  17
ENDBRANCH  13  14
ENDBRANCH   5  13
BRANCH  10  27
HETATM   27  C   UNL     1       6.077  29.204  56.566  1.00  0.00     0.175 C 
BRANCH  27  28
HETATM   28  C   UNL     1       5.841  27.858  57.279  1.00  0.00     0.256 C 
BRANCH  28  29
HETATM   29  N   UNL     1       6.616  26.688  56.707  1.00  0.00    -0.066 N 
HETATM   30  H   UNL     1       7.279  27.096  56.029  1.00  0.00     0.280 HD
HETATM   31  C   UNL     1       7.509  25.965  57.726  1.00  0.00     0.261 C 
HETATM   32  C   UNL     1       8.345  24.898  57.007  1.00  0.00     0.195 C 
HETATM   33  O   UNL     1       7.493  23.978  56.319  1.00  0.00    -0.388 OA
HETATM   34  C   UNL     1       6.726  24.619  55.295  1.00  0.00     0.195 C 
HETATM   35  C   UNL     1       5.795  25.672  55.907  1.00  0.00     0.261 C 
ENDBRANCH  28  29
ENDBRANCH  27  28
ENDBRANCH  10  27
TORSDOF 9
ENDMDL
MODEL 6
REMARK VINA RESULT:      -8.6      1.568      2.270
REMARK  9 active torsions:
REMARK  status: ('A' for Active; 'I' for Inactive)
REMARK    1  A    between atoms: N_5  and  C_6 
REMARK    2  A    between atoms: C_6  and  C_7 
REMARK    3  A    between atoms: C_7  and  O_8 
REMARK    4  A    between atoms: C_7  and  C_9 
REMARK    5  A    between atoms: C_9  and  O_10 
REMARK    6  A    between atoms: O_10  and  C_11 
REMARK    7  A    between atoms: N_23  and  C_24 
REMARK    8  A    between atoms: C_24  and  C_25 
REMARK    9  A    between atoms: C_25  and  N_26 
ROOT
HETATM    1  C   UNL     1       8.967  31.665  59.290  1.00  0.00     0.002 A 
HETATM    2  C   UNL     1       7.598  31.920  59.334  1.00  0.00     0.032 A 
HETATM    3  C   UNL     1       6.767  31.043  58.658  1.00  0.00     0.079 A 
HETATM    4  C   UNL     1       7.245  29.916  57.939  1.00  0.00     0.079 A 
HETATM    5  N   UNL     1       6.148  29.232  57.393  1.00  0.00    -0.179 N 
HETATM    6  C   UNL     1       4.999  30.046  57.682  1.00  0.00     0.681 A 
HETATM    7  N   UNL     1       3.753  29.835  57.196  1.00  0.00    -0.234 N 
HETATM    8  H   UNL     1       2.978  30.465  57.344  1.00  0.00     0.174 HD
HETATM    9  H   UNL     1       3.563  29.039  56.594  1.00  0.00     0.174 HD
HETATM   10  N   UNL     1       5.336  31.119  58.514  1.00  0.00    -0.180 N 
HETATM   11  C   UNL     1       8.603  29.689  57.895  1.00  0.00     0.032 A 
HETATM   12  C   UNL     1       9.461  30.564  58.577  1.00  0.00     0.002 A 
ENDROOT
BRANCH   5  13
HETATM   13  C   UNL     1       6.210  28.356  56.210  1.00  0.00     0.181 C 
BRANCH  13  14
HETATM   14  C   UNL     1       5.815  26.874  56.324  1.00  0.00     0.161 C 
BRANCH  14  15
HETATM   15  O   UNL     1       4.481  26.783  56.832  1.00  0.00    -0.392 OA
HETATM   16  H   UNL     1       4.431  25.959  57.362  1.00  0.00     0.210 HD
ENDBRANCH  14  15
BRANCH  14  17
HETATM   17  C   UNL     1       5.981  26.024  55.060  1.00  0.00     0.209 C 
BRANCH  17  18
HETATM   18  O   UNL     1       7.395  25.824  54.882  1.00  0.00    -0.347 OA
BRANCH  18  19
HETATM   19  C   UNL     1       7.703  24.548  54.491  1.00  0.00     0.090 A 
HETATM   20  C   UNL     1       8.443  23.717  55.342  1.00  0.00     0.069 A 
HETATM   21 CL   UNL     1       8.904  24.243  56.920  1.00  0.00    -0.081 Cl
HETATM   22  C   UNL     1       8.803  22.432  54.934  1.00  0.00     0.050 A 
HETATM   23  C   UNL     1       8.436  21.994  53.664  1.00  0.00     0.035 A 
HETATM   24 CL   UNL     1       8.871  20.412  53.150  1.00  0.00    -0.084 Cl
HETATM   25  C   UNL     1       7.720  22.827  52.801  1.00  0.00     0.026 A 
HETATM   26  C   UNL     1       7.358  24.111  53.212  1.00  0.00     0.040 A 
ENDBRANCH  18  19
ENDBRANCH  17  18
ENDBRANCH  14  17
ENDBRANCH  13  14
ENDBRANCH   5  13
BRANCH  10  27
HETATM   27  C   UNL     1       4.499  32.242  58.967  1.00  0.00     0.175 C 
BRANCH  27  28
HETATM   28  C   UNL     1       3.310  31.787  59.838  1.00  0.00     0.256 C 
BRANCH  28  29
HETATM   29  N   UNL     1       2.929  32.745  60.948  1.00  0.00    -0.066 N 
HETATM   30  H   UNL     1       2.175  32.279  61.475  1.00  0.00     0.280 HD
HETATM   31  C   UNL     1       4.035  32.975  61.989  1.00  0.00     0.261 C 
HETATM   32  C   UNL     1       3.491  33.844  63.130  1.00  0.00     0.195 C 
HETATM   33  O   UNL     1       2.995  35.084  62.618  1.00  0.00    -0.388 OA
HETATM   34  C   UNL     1       1.895  34.894  61.723  1.00  0.00     0.195 C 
HETATM   35  C   UNL     1       2.339  34.085  60.498  1.00  0.00     0.261 C 
ENDBRANCH  28  29
ENDBRANCH  27  28
ENDBRANCH  10  27
TORSDOF 9
ENDMDL
MODEL 7
REMARK VINA RESULT:      -8.5      5.026      7.051
REMARK  9 active torsions:
REMARK  status: ('A' for Active; 'I' for Inactive)
REMARK    1  A    between atoms: N_5  and  C_6 
REMARK    2  A    between atoms: C_6  and  C_7 
REMARK    3  A    between atoms: C_7  and  O_8 
REMARK    4  A    between atoms: C_7  and  C_9 
REMARK    5  A    between atoms: C_9  and  O_10 
REMARK    6  A    between atoms: O_10  and  C_11 
REMARK    7  A    between atoms: N_23  and  C_24 
REMARK    8  A    between atoms: C_24  and  C_25 
REMARK    9  A    between atoms: C_25  and  N_26 
ROOT
HETATM    1  C   UNL     1       8.444  23.136  55.940  1.00  0.00     0.002 A 
HETATM    2  C   UNL     1       8.281  24.385  56.536  1.00  0.00     0.032 A 
HETATM    3  C   UNL     1       7.642  25.364  55.795  1.00  0.00     0.079 A 
HETATM    4  C   UNL     1       7.155  25.150  54.478  1.00  0.00     0.079 A 
HETATM    5  N   UNL     1       6.550  26.332  54.025  1.00  0.00    -0.179 N 
HETATM    6  C   UNL     1       6.800  27.313  55.045  1.00  0.00     0.681 A 
HETATM    7  N   UNL     1       6.525  28.635  54.937  1.00  0.00    -0.234 N 
HETATM    8  H   UNL     1       6.785  29.320  55.632  1.00  0.00     0.174 HD
HETATM    9  H   UNL     1       6.088  29.003  54.098  1.00  0.00     0.174 HD
HETATM   10  N   UNL     1       7.400  26.734  56.168  1.00  0.00    -0.180 N 
HETATM   11  C   UNL     1       7.340  23.913  53.901  1.00  0.00     0.032 A 
HETATM   12  C   UNL     1       7.981  22.907  54.637  1.00  0.00     0.002 A 
ENDROOT
BRANCH   5  13
HETATM   13  C   UNL     1       6.383  26.698  52.608  1.00  0.00     0.181 C 
BRANCH  13  14
HETATM   14  C   UNL     1       5.043  26.447  51.896  1.00  0.00     0.161 C 
BRANCH  14  15
HETATM   15  O   UNL     1       4.022  26.249  52.878  1.00  0.00    -0.392 OA
HETATM   16  H   UNL     1       4.140  25.344  53.237  1.00  0.00     0.210 HD
ENDBRANCH  14  15
BRANCH  14  17
HETATM   17  C   UNL     1       4.615  27.491  50.860  1.00  0.00     0.209 C 
BRANCH  17  18
HETATM   18  O   UNL     1       4.576  26.816  49.590  1.00  0.00    -0.347 OA
BRANCH  18  19
HETATM   19  C   UNL     1       3.545  27.245  48.795  1.00  0.00     0.090 A 
HETATM   20  C   UNL     1       2.794  26.315  48.064  1.00  0.00     0.069 A 
HETATM   21 CL   UNL     1       3.086  24.621  48.214  1.00  0.00    -0.081 Cl
HETATM   22  C   UNL     1       1.774  26.746  47.215  1.00  0.00     0.050 A 
HETATM   23  C   UNL     1       1.526  28.110  47.087  1.00  0.00     0.035 A 
HETATM   24 CL   UNL     1       0.269  28.653  46.046  1.00  0.00    -0.084 Cl
HETATM   25  C   UNL     1       2.288  29.043  47.793  1.00  0.00     0.026 A 
HETATM   26  C   UNL     1       3.306  28.612  48.644  1.00  0.00     0.040 A 
ENDBRANCH  18  19
ENDBRANCH  17  18
ENDBRANCH  14  17
ENDBRANCH  13  14
ENDBRANCH   5  13
BRANCH  10  27
HETATM   27  C   UNL     1       7.916  27.383  57.385  1.00  0.00     0.175 C 
BRANCH  27  28
HETATM   28  C   UNL     1       8.957  28.479  57.080  1.00  0.00     0.256 C 
BRANCH  28  29
HETATM   29  N   UNL     1       8.964  29.640  58.054  1.00  0.00    -0.066 N 
HETATM   30  H   UNL     1       9.199  29.234  58.973  1.00  0.00     0.280 HD
HETATM   31  C   UNL     1      10.074  30.670  57.798  1.00  0.00     0.261 C 
HETATM   32  C   UNL     1      10.071  31.715  58.921  1.00  0.00     0.195 C 
HETATM   33  O   UNL     1       8.790  32.345  59.011  1.00  0.00    -0.388 OA
HETATM   34  C   UNL     1       7.757  31.415  59.349  1.00  0.00     0.195 C 
HETATM   35  C   UNL     1       7.621  30.348  58.257  1.00  0.00     0.261 C 
ENDBRANCH  28  29
ENDBRANCH  27  28
ENDBRANCH  10  27
TORSDOF 9
ENDMDL
MODEL 8
REMARK VINA RESULT:      -8.5      4.706      8.349
REMARK  9 active torsions:
REMARK  status: ('A' for Active; 'I' for Inactive)
REMARK    1  A    between atoms: N_5  and  C_6 
REMARK    2  A    between atoms: C_6  and  C_7 
REMARK    3  A    between atoms: C_7  and  O_8 
REMARK    4  A    between atoms: C_7  and  C_9 
REMARK    5  A    between atoms: C_9  and  O_10 
REMARK    6  A    between atoms: O_10  and  C_11 
REMARK    7  A    between atoms: N_23  and  C_24 
REMARK    8  A    between atoms: C_24  and  C_25 
REMARK    9  A    between atoms: C_25  and  N_26 
ROOT
HETATM    1  C   UNL     1       2.716  32.066  54.551  1.00  0.00     0.002 A 
HETATM    2  C   UNL     1       3.034  31.320  53.418  1.00  0.00     0.032 A 
HETATM    3  C   UNL     1       3.776  30.167  53.605  1.00  0.00     0.079 A 
HETATM    4  C   UNL     1       4.215  29.722  54.880  1.00  0.00     0.079 A 
HETATM    5  N   UNL     1       4.920  28.520  54.719  1.00  0.00    -0.179 N 
HETATM    6  C   UNL     1       5.018  28.314  53.300  1.00  0.00     0.681 A 
HETATM    7  N   UNL     1       5.759  27.350  52.703  1.00  0.00    -0.234 N 
HETATM    8  H   UNL     1       5.880  27.275  51.703  1.00  0.00     0.174 HD
HETATM    9  H   UNL     1       6.287  26.686  53.261  1.00  0.00     0.174 HD
HETATM   10  N   UNL     1       4.267  29.262  52.598  1.00  0.00    -0.180 N 
HETATM   11  C   UNL     1       3.904  30.481  55.986  1.00  0.00     0.032 A 
HETATM   12  C   UNL     1       3.149  31.651  55.818  1.00  0.00     0.002 A 
ENDROOT
BRANCH   5  13
HETATM   13  C   UNL     1       5.936  28.012  55.657  1.00  0.00     0.181 C 
BRANCH  13  14
HETATM   14  C   UNL     1       5.623  26.805  56.557  1.00  0.00     0.161 C 
BRANCH  14  15
HETATM   15  O   UNL     1       4.284  26.921  57.048  1.00  0.00    -0.392 OA
HETATM   16  H   UNL     1       4.340  26.957  58.026  1.00  0.00     0.210 HD
ENDBRANCH  14  15
BRANCH  14  17
HETATM   17  C   UNL     1       5.867  25.419  55.950  1.00  0.00     0.209 C 
BRANCH  17  18
HETATM   18  O   UNL     1       7.018  25.542  55.095  1.00  0.00    -0.347 OA
BRANCH  18  19
HETATM   19  C   UNL     1       7.468  24.332  54.636  1.00  0.00     0.090 A 
HETATM   20  C   UNL     1       8.419  23.615  55.374  1.00  0.00     0.069 A 
HETATM   21 CL   UNL     1       8.975  24.189  56.904  1.00  0.00    -0.081 Cl
HETATM   22  C   UNL     1       8.918  22.405  54.892  1.00  0.00     0.050 A 
HETATM   23  C   UNL     1       8.476  21.930  53.660  1.00  0.00     0.035 A 
HETATM   24 CL   UNL     1       9.082  20.438  53.056  1.00  0.00    -0.084 Cl
HETATM   25  C   UNL     1       7.548  22.652  52.907  1.00  0.00     0.026 A 
HETATM   26  C   UNL     1       7.046  23.861  53.392  1.00  0.00     0.040 A 
ENDBRANCH  18  19
ENDBRANCH  17  18
ENDBRANCH  14  17
ENDBRANCH  13  14
ENDBRANCH   5  13
BRANCH  10  27
HETATM   27  C   UNL     1       4.170  29.481  51.145  1.00  0.00     0.175 C 
BRANCH  27  28
HETATM   28  C   UNL     1       2.901  28.857  50.532  1.00  0.00     0.256 C 
BRANCH  28  29
HETATM   29  N   UNL     1       3.156  27.752  49.527  1.00  0.00    -0.066 N 
HETATM   30  H   UNL     1       3.127  26.872  50.065  1.00  0.00     0.280 HD
HETATM   31  C   UNL     1       2.050  27.591  48.474  1.00  0.00     0.261 C 
HETATM   32  C   UNL     1       2.345  26.361  47.605  1.00  0.00     0.195 C 
HETATM   33  O   UNL     1       3.632  26.484  46.991  1.00  0.00    -0.388 OA
HETATM   34  C   UNL     1       4.686  26.533  47.958  1.00  0.00     0.195 C 
HETATM   35  C   UNL     1       4.531  27.768  48.852  1.00  0.00     0.261 C 
ENDBRANCH  28  29
ENDBRANCH  27  28
ENDBRANCH  10  27
TORSDOF 9
ENDMDL
MODEL 9
REMARK VINA RESULT:      -8.2      4.757      9.955
REMARK  9 active torsions:
REMARK  status: ('A' for Active; 'I' for Inactive)
REMARK    1  A    between atoms: N_5  and  C_6 
REMARK    2  A    between atoms: C_6  and  C_7 
REMARK    3  A    between atoms: C_7  and  O_8 
REMARK    4  A    between atoms: C_7  and  C_9 
REMARK    5  A    between atoms: C_9  and  O_10 
REMARK    6  A    between atoms: O_10  and  C_11 
REMARK    7  A    between atoms: N_23  and  C_24 
REMARK    8  A    between atoms: C_24  and  C_25 
REMARK    9  A    between atoms: C_25  and  N_26 
ROOT
HETATM    1  C   UNL     1      10.101  29.161  56.133  1.00  0.00     0.002 A 
HETATM    2  C   UNL     1       8.731  29.354  56.295  1.00  0.00     0.032 A 
HETATM    3  C   UNL     1       8.323  30.183  57.325  1.00  0.00     0.079 A 
HETATM    4  C   UNL     1       9.228  30.835  58.204  1.00  0.00     0.079 A 
HETATM    5  N   UNL     1       8.493  31.610  59.114  1.00  0.00    -0.179 N 
HETATM    6  C   UNL     1       7.112  31.307  58.855  1.00  0.00     0.681 A 
HETATM    7  N   UNL     1       6.069  31.720  59.615  1.00  0.00    -0.234 N 
HETATM    8  H   UNL     1       5.115  31.427  59.463  1.00  0.00     0.174 HD
HETATM    9  H   UNL     1       6.225  32.307  60.428  1.00  0.00     0.174 HD
HETATM   10  N   UNL     1       6.975  30.498  57.723  1.00  0.00    -0.180 N 
HETATM   11  C   UNL     1      10.578  30.620  58.038  1.00  0.00     0.032 A 
HETATM   12  C   UNL     1      11.011  29.786  56.997  1.00  0.00     0.002 A 
ENDROOT
BRANCH   5  13
HETATM   13  C   UNL     1       8.970  32.015  60.447  1.00  0.00     0.181 C 
BRANCH  13  14
HETATM   14  C   UNL     1       8.674  31.137  61.675  1.00  0.00     0.161 C 
BRANCH  14  15
HETATM   15  O   UNL     1       9.782  30.263  61.904  1.00  0.00    -0.392 OA
HETATM   16  H   UNL     1       9.412  29.390  62.155  1.00  0.00     0.210 HD
ENDBRANCH  14  15
BRANCH  14  17
HETATM   17  C   UNL     1       8.278  31.872  62.960  1.00  0.00     0.209 C 
BRANCH  17  18
HETATM   18  O   UNL     1       6.991  32.466  62.713  1.00  0.00    -0.347 OA
BRANCH  18  19
HETATM   19  C   UNL     1       6.429  32.999  63.843  1.00  0.00     0.090 A 
HETATM   20  C   UNL     1       5.053  33.264  63.881  1.00  0.00     0.069 A 
HETATM   21 CL   UNL     1       4.031  32.850  62.554  1.00  0.00    -0.081 Cl
HETATM   22  C   UNL     1       4.480  33.851  65.009  1.00  0.00     0.050 A 
HETATM   23  C   UNL     1       5.293  34.188  66.088  1.00  0.00     0.035 A 
HETATM   24 CL   UNL     1       4.598  34.909  67.486  1.00  0.00    -0.084 Cl
HETATM   25  C   UNL     1       6.669  33.950  66.047  1.00  0.00     0.026 A 
HETATM   26  C   UNL     1       7.241  33.360  64.919  1.00  0.00     0.040 A 
ENDBRANCH  18  19
ENDBRANCH  17  18
ENDBRANCH  14  17
ENDBRANCH  13  14
ENDBRANCH   5  13
BRANCH  10  27
HETATM   27  C   UNL     1       5.762  29.874  57.167  1.00  0.00     0.175 C 
BRANCH  27  28
HETATM   28  C   UNL     1       5.248  30.593  55.904  1.00  0.00     0.256 C 
BRANCH  28  29
HETATM   29  N   UNL     1       5.045  29.698  54.699  1.00  0.00    -0.066 N 
HETATM   30  H   UNL     1       5.780  29.963  54.025  1.00  0.00     0.280 HD
HETATM   31  C   UNL     1       5.297  28.208  54.971  1.00  0.00     0.261 C 
HETATM   32  C   UNL     1       5.201  27.423  53.657  1.00  0.00     0.195 C 
HETATM   33  O   UNL     1       3.923  27.629  53.047  1.00  0.00    -0.388 OA
HETATM   34  C   UNL     1       3.712  29.000  52.692  1.00  0.00     0.195 C 
HETATM   35  C   UNL     1       3.723  29.882  53.946  1.00  0.00     0.261 C 
ENDBRANCH  28  29
ENDBRANCH  27  28
ENDBRANCH  10  27
TORSDOF 9
ENDMDL
MODEL 10
REMARK VINA RESULT:      -8.1      4.928      8.829
REMARK  9 active torsions:
REMARK  status: ('A' for Active; 'I' for Inactive)
REMARK    1  A    between atoms: N_5  and  C_6 
REMARK    2  A    between atoms: C_6  and  C_7 
REMARK    3  A    between atoms: C_7  and  O_8 
REMARK    4  A    between atoms: C_7  and  C_9 
REMARK    5  A    between atoms: C_9  and  O_10 
REMARK    6  A    between atoms: O_10  and  C_11 
REMARK    7  A    between atoms: N_23  and  C_24 
REMARK    8  A    between atoms: C_24  and  C_25 
REMARK    9  A    between atoms: C_25  and  N_26 
ROOT
HETATM    1  C   UNL     1       8.205  28.133  57.729  1.00  0.00     0.002 A 
HETATM    2  C   UNL     1       7.811  26.961  57.088  1.00  0.00     0.032 A 
HETATM    3  C   UNL     1       6.872  27.074  56.077  1.00  0.00     0.079 A 
HETATM    4  C   UNL     1       6.308  28.314  55.675  1.00  0.00     0.079 A 
HETATM    5  N   UNL     1       5.412  28.080  54.621  1.00  0.00    -0.179 N 
HETATM    6  C   UNL     1       5.341  26.652  54.482  1.00  0.00     0.681 A 
HETATM    7  N   UNL     1       4.469  25.990  53.683  1.00  0.00    -0.234 N 
HETATM    8  H   UNL     1       4.380  24.984  53.662  1.00  0.00     0.174 HD
HETATM    9  H   UNL     1       3.811  26.502  53.104  1.00  0.00     0.174 HD
HETATM   10  N   UNL     1       6.274  26.015  55.306  1.00  0.00    -0.180 N 
HETATM   11  C   UNL     1       6.699  29.460  56.331  1.00  0.00     0.032 A 
HETATM   12  C   UNL     1       7.653  29.366  57.355  1.00  0.00     0.002 A 
ENDROOT
BRANCH   5  13
HETATM   13  C   UNL     1       4.284  28.960  54.269  1.00  0.00     0.181 C 
BRANCH  13  14
HETATM   14  C   UNL     1       4.185  29.563  52.858  1.00  0.00     0.161 C 
BRANCH  14  15
HETATM   15  O   UNL     1       5.485  29.573  52.261  1.00  0.00    -0.392 OA
HETATM   16  H   UNL     1       6.134  29.435  52.983  1.00  0.00     0.210 HD
ENDBRANCH  14  15
BRANCH  14  17
HETATM   17  C   UNL     1       3.153  28.934  51.917  1.00  0.00     0.209 C 
BRANCH  17  18
HETATM   18  O   UNL     1       3.479  29.382  50.590  1.00  0.00    -0.347 OA
BRANCH  18  19
HETATM   19  C   UNL     1       3.310  28.404  49.645  1.00  0.00     0.090 A 
HETATM   20  C   UNL     1       2.215  28.458  48.772  1.00  0.00     0.069 A 
HETATM   21 CL   UNL     1       1.115  29.788  48.807  1.00  0.00    -0.081 Cl
HETATM   22  C   UNL     1       2.008  27.443  47.838  1.00  0.00     0.050 A 
HETATM   23  C   UNL     1       2.889  26.366  47.798  1.00  0.00     0.035 A 
HETATM   24 CL   UNL     1       2.646  25.109  46.649  1.00  0.00    -0.084 Cl
HETATM   25  C   UNL     1       3.968  26.292  48.681  1.00  0.00     0.026 A 
HETATM   26  C   UNL     1       4.177  27.311  49.613  1.00  0.00     0.040 A 
ENDBRANCH  18  19
ENDBRANCH  17  18
ENDBRANCH  14  17
ENDBRANCH  13  14
ENDBRANCH   5  13
BRANCH  10  27
HETATM   27  C   UNL     1       6.470  24.577  55.552  1.00  0.00     0.175 C 
BRANCH  27  28
HETATM   28  C   UNL     1       7.731  24.020  54.860  1.00  0.00     0.256 C 
BRANCH  28  29
HETATM   29  N   UNL     1       7.736  22.519  54.656  1.00  0.00    -0.066 N 
HETATM   30  H   UNL     1       6.763  22.211  54.811  1.00  0.00     0.280 HD
HETATM   31  C   UNL     1       8.050  22.079  53.219  1.00  0.00     0.261 C 
HETATM   32  C   UNL     1       7.889  20.558  53.102  1.00  0.00     0.195 C 
HETATM   33  O   UNL     1       8.737  19.894  54.044  1.00  0.00    -0.388 OA
HETATM   34  C   UNL     1       8.391  20.214  55.396  1.00  0.00     0.195 C 
HETATM   35  C   UNL     1       8.577  21.714  55.652  1.00  0.00     0.261 C 
ENDBRANCH  28  29
ENDBRANCH  27  28
ENDBRANCH  10  27
TORSDOF 9
ENDMDL
