MODEL 1
REMARK VINA RESULT:      -9.9      0.000      0.000
REMARK  10 active torsions:
REMARK  status: ('A' for Active; 'I' for Inactive)
REMARK    1  A    between atoms: C_6  and  N_7 
REMARK    2  A    between atoms: C_6  and  C_29 
REMARK       I    between atoms: N_7  and  C_8 
REMARK    3  A    between atoms: N_7  and  C_23 
REMARK    4  A    between atoms: C_8  and  C_9 
REMARK    5  A    between atoms: C_9  and  N_10 
REMARK    6  A    between atoms: C_14  and  C_15 
REMARK    7  A    between atoms: C_23  and  C_24 
REMARK       I    between atoms: C_29  and  N_30 
REMARK    8  A    between atoms: N_30  and  C_31 
REMARK    9  A    between atoms: C_32  and  O_33 
REMARK   10  A    between atoms: C_36  and  O_37 
ROOT
HETATM    1  N   UNL     1       6.175  29.465  57.436  1.00  0.00    -0.326 N 
HETATM    2  C   UNL     1       5.960  28.702  56.276  1.00  0.00     0.239 C 
HETATM    3  O   UNL     1       5.811  29.227  55.176  1.00  0.00    -0.271 OA
ENDROOT
BRANCH   1   4
HETATM    4  C   UNL     1       5.583  30.843  57.571  1.00  0.00     0.120 C 
HETATM    5  C   UNL     1       5.580  31.625  56.243  1.00  0.00     0.069 C 
HETATM    6  C   UNL     1       4.970  33.017  56.384  1.00  0.00     0.237 C 
HETATM    7  N   UNL     1       3.577  32.930  56.937  1.00  0.00    -0.075 N 
HETATM    8  C   UNL     1       2.946  34.296  57.048  1.00  0.00     0.269 C 
HETATM    9  H   UNL     1       3.002  32.402  56.262  1.00  0.00     0.279 HD
HETATM   10  C   UNL     1       3.500  32.185  58.250  1.00  0.00     0.237 C 
HETATM   11  C   UNL     1       4.096  30.794  58.066  1.00  0.00     0.069 C 
BRANCH   4  12
HETATM   12  C   UNL     1       6.358  31.555  58.740  1.00  0.00     0.251 C 
HETATM   13  N   UNL     1       5.836  31.417  60.007  1.00  0.00    -0.323 N 
HETATM   14  H   UNL     1       5.022  30.841  60.185  1.00  0.00     0.169 HD
HETATM   15  O   UNL     1       7.369  32.206  58.480  1.00  0.00    -0.270 OA
BRANCH  13  16
HETATM   16  C   UNL     1       6.360  31.972  61.202  1.00  0.00     0.068 A 
HETATM   17  C   UNL     1       5.649  33.053  61.766  1.00  0.00     0.097 A 
HETATM   18  C   UNL     1       6.095  33.640  62.959  1.00  0.00     0.075 A 
HETATM   19  C   UNL     1       7.245  33.159  63.589  1.00  0.00     0.070 A 
HETATM   20  C   UNL     1       7.955  32.109  63.012  1.00  0.00     0.039 A 
HETATM   21  C   UNL     1       7.518  31.513  61.829  1.00  0.00     0.035 A 
BRANCH  17  22
HETATM   22  O   UNL     1       4.515  33.424  61.074  1.00  0.00    -0.354 OA
HETATM   23  C   UNL     1       4.390  34.806  60.745  1.00  0.00     0.210 C 
ENDBRANCH  17  22
BRANCH  19  24
HETATM   24  O   UNL     1       7.783  33.629  64.754  1.00  0.00    -0.356 OA
HETATM   25  C   UNL     1       6.893  33.872  65.834  1.00  0.00     0.210 C 
ENDBRANCH  19  24
ENDBRANCH  13  16
ENDBRANCH   4  12
ENDBRANCH   1   4
BRANCH   1  26
HETATM   26  C   UNL     1       7.422  29.144  58.146  1.00  0.00     0.192 C 
BRANCH  26  27
HETATM   27  C   UNL     1       8.643  29.424  57.359  1.00  0.00     0.070 A 
HETATM   28  O   UNL     1       9.667  29.961  58.086  1.00  0.00    -0.325 OA
HETATM   29  C   UNL     1      10.701  30.169  57.234  1.00  0.00     0.142 A 
HETATM   30  C   UNL     1      10.361  29.769  55.965  1.00  0.00     0.027 A 
HETATM   31  C   UNL     1       9.031  29.291  56.041  1.00  0.00     0.036 A 
ENDBRANCH  26  27
ENDBRANCH   1  26
BRANCH   2  32
HETATM   32  C   UNL     1       5.815  27.185  56.545  1.00  0.00     0.228 C 
BRANCH  32  33
HETATM   33  N   UNL     1       6.547  26.327  55.630  1.00  0.00    -0.347 N 
HETATM   34  C   UNL     1       6.173  25.932  54.350  1.00  0.00     0.171 C 
HETATM   35  S   UNL     1       4.816  26.331  53.494  1.00  0.00    -0.041 SA
HETATM   36  N   UNL     1       7.150  25.074  53.867  1.00  0.00    -0.357 N 
HETATM   37  C   UNL     1       8.151  24.778  54.870  1.00  0.00     0.135 C 
HETATM   38  H   UNL     1       7.035  24.559  53.003  1.00  0.00     0.162 HD
HETATM   39  C   UNL     1       7.880  25.841  55.947  1.00  0.00     0.155 C 
BRANCH  37  40
HETATM   40  C   UNL     1       8.043  23.366  55.411  1.00  0.00    -0.034 A 
HETATM   41  C   UNL     1       7.678  22.321  54.547  1.00  0.00     0.009 A 
HETATM   42  C   UNL     1       7.616  21.002  55.004  1.00  0.00     0.001 A 
HETATM   43  C   UNL     1       7.920  20.708  56.331  1.00  0.00     0.000 A 
HETATM   44  C   UNL     1       8.286  21.731  57.202  1.00  0.00     0.001 A 
HETATM   45  C   UNL     1       8.350  23.049  56.745  1.00  0.00     0.009 A 
ENDBRANCH  37  40
ENDBRANCH  32  33
ENDBRANCH   2  32
TORSDOF 10
ENDMDL
MODEL 2
REMARK VINA RESULT:      -9.8      2.661      9.264
REMARK  10 active torsions:
REMARK  status: ('A' for Active; 'I' for Inactive)
REMARK    1  A    between atoms: C_6  and  N_7 
REMARK    2  A    between atoms: C_6  and  C_29 
REMARK       I    between atoms: N_7  and  C_8 
REMARK    3  A    between atoms: N_7  and  C_23 
REMARK    4  A    between atoms: C_8  and  C_9 
REMARK    5  A    between atoms: C_9  and  N_10 
REMARK    6  A    between atoms: C_14  and  C_15 
REMARK    7  A    between atoms: C_23  and  C_24 
REMARK       I    between atoms: C_29  and  N_30 
REMARK    8  A    between atoms: N_30  and  C_31 
REMARK    9  A    between atoms: C_32  and  O_33 
REMARK   10  A    between atoms: C_36  and  O_37 
ROOT
HETATM    1  N   UNL     1       6.265  29.622  57.102  1.00  0.00    -0.326 N 
HETATM    2  C   UNL     1       5.324  30.504  57.658  1.00  0.00     0.239 C 
HETATM    3  O   UNL     1       4.119  30.271  57.618  1.00  0.00    -0.271 OA
ENDROOT
BRANCH   1   4
HETATM    4  C   UNL     1       5.917  28.781  55.901  1.00  0.00     0.120 C 
HETATM    5  C   UNL     1       4.532  29.122  55.316  1.00  0.00     0.069 C 
HETATM    6  C   UNL     1       4.188  28.275  54.094  1.00  0.00     0.237 C 
HETATM    7  N   UNL     1       5.246  28.416  53.038  1.00  0.00    -0.075 N 
HETATM    8  C   UNL     1       4.902  27.612  51.808  1.00  0.00     0.269 C 
HETATM    9  H   UNL     1       5.264  29.403  52.740  1.00  0.00     0.279 HD
HETATM   10  C   UNL     1       6.635  28.085  53.535  1.00  0.00     0.237 C 
HETATM   11  C   UNL     1       6.953  28.965  54.739  1.00  0.00     0.069 C 
BRANCH   4  12
HETATM   12  C   UNL     1       6.084  27.279  56.337  1.00  0.00     0.251 C 
HETATM   13  N   UNL     1       7.207  26.623  55.886  1.00  0.00    -0.323 N 
HETATM   14  H   UNL     1       7.918  27.098  55.343  1.00  0.00     0.169 HD
HETATM   15  O   UNL     1       5.215  26.757  57.035  1.00  0.00    -0.270 OA
BRANCH  13  16
HETATM   16  C   UNL     1       7.560  25.274  56.146  1.00  0.00     0.068 A 
HETATM   17  C   UNL     1       7.012  24.296  55.288  1.00  0.00     0.097 A 
HETATM   18  C   UNL     1       7.333  22.943  55.471  1.00  0.00     0.075 A 
HETATM   19  C   UNL     1       8.190  22.561  56.506  1.00  0.00     0.070 A 
HETATM   20  C   UNL     1       8.705  23.529  57.365  1.00  0.00     0.039 A 
HETATM   21  C   UNL     1       8.398  24.878  57.188  1.00  0.00     0.035 A 
BRANCH  17  22
HETATM   22  O   UNL     1       6.204  24.792  54.287  1.00  0.00    -0.354 OA
HETATM   23  C   UNL     1       6.494  24.362  52.959  1.00  0.00     0.210 C 
ENDBRANCH  17  22
BRANCH  19  24
HETATM   24  O   UNL     1       8.591  21.285  56.791  1.00  0.00    -0.356 OA
HETATM   25  C   UNL     1       8.558  20.338  55.733  1.00  0.00     0.210 C 
ENDBRANCH  19  24
ENDBRANCH  13  16
ENDBRANCH   4  12
ENDBRANCH   1   4
BRANCH   1  26
HETATM   26  C   UNL     1       7.270  29.131  58.056  1.00  0.00     0.192 C 
BRANCH  26  27
HETATM   27  C   UNL     1       8.645  29.593  57.763  1.00  0.00     0.070 A 
HETATM   28  O   UNL     1       9.330  28.796  56.890  1.00  0.00    -0.325 OA
HETATM   29  C   UNL     1      10.562  29.337  56.731  1.00  0.00     0.142 A 
HETATM   30  C   UNL     1      10.683  30.478  57.488  1.00  0.00     0.027 A 
HETATM   31  C   UNL     1       9.447  30.644  58.159  1.00  0.00     0.036 A 
ENDBRANCH  26  27
ENDBRANCH   1  26
BRANCH   2  32
HETATM   32  C   UNL     1       5.942  31.814  58.201  1.00  0.00     0.228 C 
BRANCH  32  33
HETATM   33  N   UNL     1       5.268  32.378  59.357  1.00  0.00    -0.347 N 
HETATM   34  C   UNL     1       4.641  33.616  59.457  1.00  0.00     0.171 C 
HETATM   35  S   UNL     1       4.462  34.786  58.302  1.00  0.00    -0.041 SA
HETATM   36  N   UNL     1       4.179  33.756  60.756  1.00  0.00    -0.357 N 
HETATM   37  C   UNL     1       4.595  32.653  61.598  1.00  0.00     0.135 C 
HETATM   38  H   UNL     1       3.798  34.627  61.102  1.00  0.00     0.162 HD
HETATM   39  C   UNL     1       5.085  31.611  60.578  1.00  0.00     0.155 C 
BRANCH  37  40
HETATM   40  C   UNL     1       5.674  33.043  62.589  1.00  0.00    -0.034 A 
HETATM   41  C   UNL     1       5.437  34.095  63.489  1.00  0.00     0.009 A 
HETATM   42  C   UNL     1       6.393  34.447  64.446  1.00  0.00     0.001 A 
HETATM   43  C   UNL     1       7.597  33.752  64.519  1.00  0.00     0.000 A 
HETATM   44  C   UNL     1       7.848  32.705  63.636  1.00  0.00     0.001 A 
HETATM   45  C   UNL     1       6.893  32.351  62.681  1.00  0.00     0.009 A 
ENDBRANCH  37  40
ENDBRANCH  32  33
ENDBRANCH   2  32
TORSDOF 10
ENDMDL
MODEL 3
REMARK VINA RESULT:      -9.7      2.907      6.759
REMARK  10 active torsions:
REMARK  status: ('A' for Active; 'I' for Inactive)
REMARK    1  A    between atoms: C_6  and  N_7 
REMARK    2  A    between atoms: C_6  and  C_29 
REMARK       I    between atoms: N_7  and  C_8 
REMARK    3  A    between atoms: N_7  and  C_23 
REMARK    4  A    between atoms: C_8  and  C_9 
REMARK    5  A    between atoms: C_9  and  N_10 
REMARK    6  A    between atoms: C_14  and  C_15 
REMARK    7  A    between atoms: C_23  and  C_24 
REMARK       I    between atoms: C_29  and  N_30 
REMARK    8  A    between atoms: N_30  and  C_31 
REMARK    9  A    between atoms: C_32  and  O_33 
REMARK   10  A    between atoms: C_36  and  O_37 
ROOT
HETATM    1  N   UNL     1       6.682  28.672  56.852  1.00  0.00    -0.326 N 
HETATM    2  C   UNL     1       7.570  28.193  55.875  1.00  0.00     0.239 C 
HETATM    3  O   UNL     1       7.865  28.862  54.888  1.00  0.00    -0.271 OA
ENDROOT
BRANCH   1   4
HETATM    4  C   UNL     1       5.564  29.613  56.482  1.00  0.00     0.120 C 
HETATM    5  C   UNL     1       4.600  29.884  57.654  1.00  0.00     0.069 C 
HETATM    6  C   UNL     1       3.476  30.845  57.276  1.00  0.00     0.237 C 
HETATM    7  N   UNL     1       4.036  32.136  56.756  1.00  0.00    -0.075 N 
HETATM    8  C   UNL     1       2.936  33.111  56.413  1.00  0.00     0.269 C 
HETATM    9  H   UNL     1       4.580  32.574  57.516  1.00  0.00     0.279 HD
HETATM   10  C   UNL     1       4.984  31.952  55.593  1.00  0.00     0.237 C 
HETATM   11  C   UNL     1       6.105  31.007  56.014  1.00  0.00     0.069 C 
BRANCH   4  12
HETATM   12  C   UNL     1       4.874  29.012  55.202  1.00  0.00     0.251 C 
HETATM   13  N   UNL     1       5.264  29.529  53.987  1.00  0.00    -0.323 N 
HETATM   14  H   UNL     1       5.997  30.225  53.916  1.00  0.00     0.169 HD
HETATM   15  O   UNL     1       4.021  28.136  55.336  1.00  0.00    -0.270 OA
BRANCH  13  16
HETATM   16  C   UNL     1       4.777  29.147  52.710  1.00  0.00     0.068 A 
HETATM   17  C   UNL     1       3.624  29.815  52.244  1.00  0.00     0.097 A 
HETATM   18  C   UNL     1       3.096  29.506  50.982  1.00  0.00     0.075 A 
HETATM   19  C   UNL     1       3.708  28.534  50.187  1.00  0.00     0.070 A 
HETATM   20  C   UNL     1       4.830  27.861  50.666  1.00  0.00     0.039 A 
HETATM   21  C   UNL     1       5.367  28.165  51.917  1.00  0.00     0.035 A 
BRANCH  17  22
HETATM   22  O   UNL     1       3.123  30.773  53.101  1.00  0.00    -0.354 OA
HETATM   23  C   UNL     1       2.892  32.067  52.548  1.00  0.00     0.210 C 
ENDBRANCH  17  22
BRANCH  19  24
HETATM   24  O   UNL     1       3.307  28.143  48.940  1.00  0.00    -0.356 OA
HETATM   25  C   UNL     1       1.917  27.928  48.738  1.00  0.00     0.210 C 
ENDBRANCH  19  24
ENDBRANCH  13  16
ENDBRANCH   4  12
ENDBRANCH   1   4
BRANCH   1  26
HETATM   26  C   UNL     1       7.248  28.727  58.208  1.00  0.00     0.192 C 
BRANCH  26  27
HETATM   27  C   UNL     1       8.240  29.808  58.395  1.00  0.00     0.070 A 
HETATM   28  O   UNL     1       7.807  30.835  59.185  1.00  0.00    -0.325 OA
HETATM   29  C   UNL     1       8.811  31.743  59.253  1.00  0.00     0.142 A 
HETATM   30  C   UNL     1       9.891  31.315  58.520  1.00  0.00     0.027 A 
HETATM   31  C   UNL     1       9.525  30.067  57.962  1.00  0.00     0.036 A 
ENDBRANCH  26  27
ENDBRANCH   1  26
BRANCH   2  32
HETATM   32  C   UNL     1       8.026  26.734  56.109  1.00  0.00     0.228 C 
BRANCH  32  33
HETATM   33  N   UNL     1       7.249  25.727  55.409  1.00  0.00    -0.347 N 
HETATM   34  C   UNL     1       6.032  25.172  55.792  1.00  0.00     0.171 C 
HETATM   35  S   UNL     1       5.114  25.503  57.127  1.00  0.00    -0.041 SA
HETATM   36  N   UNL     1       5.684  24.216  54.850  1.00  0.00    -0.357 N 
HETATM   37  C   UNL     1       6.729  24.023  53.867  1.00  0.00     0.135 C 
HETATM   38  H   UNL     1       4.900  23.591  54.982  1.00  0.00     0.162 HD
HETATM   39  C   UNL     1       7.645  25.237  54.099  1.00  0.00     0.155 C 
BRANCH  37  40
HETATM   40  C   UNL     1       7.462  22.707  54.036  1.00  0.00    -0.034 A 
HETATM   41  C   UNL     1       7.611  22.160  55.321  1.00  0.00     0.009 A 
HETATM   42  C   UNL     1       8.238  20.925  55.505  1.00  0.00     0.001 A 
HETATM   43  C   UNL     1       8.724  20.218  54.409  1.00  0.00     0.000 A 
HETATM   44  C   UNL     1       8.582  20.743  53.127  1.00  0.00     0.001 A 
HETATM   45  C   UNL     1       7.954  21.976  52.942  1.00  0.00     0.009 A 
ENDBRANCH  37  40
ENDBRANCH  32  33
ENDBRANCH   2  32
TORSDOF 10
ENDMDL
MODEL 4
REMARK VINA RESULT:      -9.6      1.649      2.203
REMARK  10 active torsions:
REMARK  status: ('A' for Active; 'I' for Inactive)
REMARK    1  A    between atoms: C_6  and  N_7 
REMARK    2  A    between atoms: C_6  and  C_29 
REMARK       I    between atoms: N_7  and  C_8 
REMARK    3  A    between atoms: N_7  and  C_23 
REMARK    4  A    between atoms: C_8  and  C_9 
REMARK    5  A    between atoms: C_9  and  N_10 
REMARK    6  A    between atoms: C_14  and  C_15 
REMARK    7  A    between atoms: C_23  and  C_24 
REMARK       I    between atoms: C_29  and  N_30 
REMARK    8  A    between atoms: N_30  and  C_31 
REMARK    9  A    between atoms: C_32  and  O_33 
REMARK   10  A    between atoms: C_36  and  O_37 
ROOT
HETATM    1  N   UNL     1       5.387  29.105  56.618  1.00  0.00    -0.326 N 
HETATM    2  C   UNL     1       5.729  28.432  55.433  1.00  0.00     0.239 C 
HETATM    3  O   UNL     1       6.021  29.039  54.407  1.00  0.00    -0.271 OA
ENDROOT
BRANCH   1   4
HETATM    4  C   UNL     1       4.702  30.447  56.571  1.00  0.00     0.120 C 
HETATM    5  C   UNL     1       5.569  31.536  55.908  1.00  0.00     0.069 C 
HETATM    6  C   UNL     1       4.867  32.890  55.854  1.00  0.00     0.237 C 
HETATM    7  N   UNL     1       3.550  32.774  55.145  1.00  0.00    -0.075 N 
HETATM    8  C   UNL     1       2.859  34.113  55.050  1.00  0.00     0.269 C 
HETATM    9  H   UNL     1       3.738  32.480  54.174  1.00  0.00     0.279 HD
HETATM   10  C   UNL     1       2.636  31.731  55.746  1.00  0.00     0.237 C 
HETATM   11  C   UNL     1       3.360  30.389  55.763  1.00  0.00     0.069 C 
BRANCH   4  12
HETATM   12  C   UNL     1       4.258  30.779  58.042  1.00  0.00     0.251 C 
HETATM   13  N   UNL     1       5.047  31.661  58.746  1.00  0.00    -0.323 N 
HETATM   14  H   UNL     1       5.847  32.114  58.319  1.00  0.00     0.169 HD
HETATM   15  O   UNL     1       3.253  30.237  58.502  1.00  0.00    -0.270 OA
BRANCH  13  16
HETATM   16  C   UNL     1       4.845  32.098  60.080  1.00  0.00     0.068 A 
HETATM   17  C   UNL     1       5.982  32.137  60.915  1.00  0.00     0.097 A 
HETATM   18  C   UNL     1       5.863  32.579  62.242  1.00  0.00     0.075 A 
HETATM   19  C   UNL     1       4.619  32.976  62.738  1.00  0.00     0.070 A 
HETATM   20  C   UNL     1       3.497  32.909  61.914  1.00  0.00     0.039 A 
HETATM   21  C   UNL     1       3.605  32.478  60.592  1.00  0.00     0.035 A 
BRANCH  17  22
HETATM   22  O   UNL     1       7.159  31.750  60.310  1.00  0.00    -0.354 OA
HETATM   23  C   UNL     1       8.332  32.477  60.670  1.00  0.00     0.210 C 
ENDBRANCH  17  22
BRANCH  19  24
HETATM   24  O   UNL     1       4.363  33.434  64.000  1.00  0.00    -0.356 OA
HETATM   25  C   UNL     1       3.282  34.342  64.159  1.00  0.00     0.210 C 
ENDBRANCH  19  24
ENDBRANCH  13  16
ENDBRANCH   4  12
ENDBRANCH   1   4
BRANCH   1  26
HETATM   26  C   UNL     1       6.239  28.772  57.769  1.00  0.00     0.192 C 
BRANCH  26  27
HETATM   27  C   UNL     1       7.675  29.051  57.546  1.00  0.00     0.070 A 
HETATM   28  O   UNL     1       8.060  30.315  57.890  1.00  0.00    -0.325 OA
HETATM   29  C   UNL     1       9.385  30.420  57.622  1.00  0.00     0.142 A 
HETATM   30  C   UNL     1       9.863  29.237  57.112  1.00  0.00     0.027 A 
HETATM   31  C   UNL     1       8.760  28.351  57.059  1.00  0.00     0.036 A 
ENDBRANCH  26  27
ENDBRANCH   1  26
BRANCH   2  32
HETATM   32  C   UNL     1       5.586  26.895  55.526  1.00  0.00     0.228 C 
BRANCH  32  33
HETATM   33  N   UNL     1       6.340  26.146  54.536  1.00  0.00    -0.347 N 
HETATM   34  C   UNL     1       5.989  25.886  53.216  1.00  0.00     0.171 C 
HETATM   35  S   UNL     1       4.639  26.360  52.387  1.00  0.00    -0.041 SA
HETATM   36  N   UNL     1       6.982  25.095  52.659  1.00  0.00    -0.357 N 
HETATM   37  C   UNL     1       7.973  24.704  53.639  1.00  0.00     0.135 C 
HETATM   38  H   UNL     1       6.885  24.674  51.744  1.00  0.00     0.162 HD
HETATM   39  C   UNL     1       7.674  25.643  54.820  1.00  0.00     0.155 C 
BRANCH  37  40
HETATM   40  C   UNL     1       7.875  23.242  54.026  1.00  0.00    -0.034 A 
HETATM   41  C   UNL     1       7.937  22.257  53.026  1.00  0.00     0.009 A 
HETATM   42  C   UNL     1       7.898  20.900  53.354  1.00  0.00     0.001 A 
HETATM   43  C   UNL     1       7.797  20.506  54.686  1.00  0.00     0.000 A 
HETATM   44  C   UNL     1       7.736  21.468  55.691  1.00  0.00     0.001 A 
HETATM   45  C   UNL     1       7.778  22.825  55.364  1.00  0.00     0.009 A 
ENDBRANCH  37  40
ENDBRANCH  32  33
ENDBRANCH   2  32
TORSDOF 10
ENDMDL
MODEL 5
REMARK VINA RESULT:      -9.4      2.697      9.227
REMARK  10 active torsions:
REMARK  status: ('A' for Active; 'I' for Inactive)
REMARK    1  A    between atoms: C_6  and  N_7 
REMARK    2  A    between atoms: C_6  and  C_29 
REMARK       I    between atoms: N_7  and  C_8 
REMARK    3  A    between atoms: N_7  and  C_23 
REMARK    4  A    between atoms: C_8  and  C_9 
REMARK    5  A    between atoms: C_9  and  N_10 
REMARK    6  A    between atoms: C_14  and  C_15 
REMARK    7  A    between atoms: C_23  and  C_24 
REMARK       I    between atoms: C_29  and  N_30 
REMARK    8  A    between atoms: N_30  and  C_31 
REMARK    9  A    between atoms: C_32  and  O_33 
REMARK   10  A    between atoms: C_36  and  O_37 
ROOT
HETATM    1  N   UNL     1       5.532  28.948  56.547  1.00  0.00    -0.326 N 
HETATM    2  C   UNL     1       4.955  30.216  56.367  1.00  0.00     0.239 C 
HETATM    3  O   UNL     1       5.547  31.116  55.778  1.00  0.00    -0.271 OA
ENDROOT
BRANCH   1   4
HETATM    4  C   UNL     1       7.025  28.794  56.683  1.00  0.00     0.120 C 
HETATM    5  C   UNL     1       7.796  29.361  55.475  1.00  0.00     0.069 C 
HETATM    6  C   UNL     1       9.308  29.211  55.623  1.00  0.00     0.237 C 
HETATM    7  N   UNL     1       9.782  29.859  56.891  1.00  0.00    -0.075 N 
HETATM    8  C   UNL     1      11.280  29.752  57.034  1.00  0.00     0.269 C 
HETATM    9  H   UNL     1       9.571  30.867  56.829  1.00  0.00     0.279 HD
HETATM   10  C   UNL     1       9.078  29.344  58.126  1.00  0.00     0.237 C 
HETATM   11  C   UNL     1       7.575  29.531  57.953  1.00  0.00     0.069 C 
BRANCH   4  12
HETATM   12  C   UNL     1       7.297  27.271  56.968  1.00  0.00     0.251 C 
HETATM   13  N   UNL     1       7.595  26.479  55.882  1.00  0.00    -0.323 N 
HETATM   14  H   UNL     1       7.686  26.868  54.950  1.00  0.00     0.169 HD
HETATM   15  O   UNL     1       7.219  26.853  58.123  1.00  0.00    -0.270 OA
BRANCH  13  16
HETATM   16  C   UNL     1       7.868  25.088  55.899  1.00  0.00     0.068 A 
HETATM   17  C   UNL     1       8.021  24.454  54.647  1.00  0.00     0.097 A 
HETATM   18  C   UNL     1       8.313  23.083  54.585  1.00  0.00     0.075 A 
HETATM   19  C   UNL     1       8.449  22.343  55.762  1.00  0.00     0.070 A 
HETATM   20  C   UNL     1       8.270  22.971  56.992  1.00  0.00     0.039 A 
HETATM   21  C   UNL     1       7.985  24.334  57.066  1.00  0.00     0.035 A 
BRANCH  17  22
HETATM   22  O   UNL     1       7.895  25.289  53.556  1.00  0.00    -0.354 OA
HETATM   23  C   UNL     1       7.770  24.661  52.282  1.00  0.00     0.210 C 
ENDBRANCH  17  22
BRANCH  19  24
HETATM   24  O   UNL     1       8.739  21.010  55.847  1.00  0.00    -0.356 OA
HETATM   25  C   UNL     1       8.778  20.271  54.634  1.00  0.00     0.210 C 
ENDBRANCH  19  24
ENDBRANCH  13  16
ENDBRANCH   4  12
ENDBRANCH   1   4
BRANCH   1  26
HETATM   26  C   UNL     1       4.743  27.841  55.989  1.00  0.00     0.192 C 
BRANCH  26  27
HETATM   27  C   UNL     1       4.558  27.922  54.523  1.00  0.00     0.070 A 
HETATM   28  O   UNL     1       5.471  27.205  53.803  1.00  0.00    -0.325 OA
HETATM   29  C   UNL     1       5.181  27.385  52.491  1.00  0.00     0.142 A 
HETATM   30  C   UNL     1       4.088  28.206  52.353  1.00  0.00     0.027 A 
HETATM   31  C   UNL     1       3.685  28.558  53.663  1.00  0.00     0.036 A 
ENDBRANCH  26  27
ENDBRANCH   1  26
BRANCH   2  32
HETATM   32  C   UNL     1       3.589  30.386  57.073  1.00  0.00     0.228 C 
BRANCH  32  33
HETATM   33  N   UNL     1       3.553  31.408  58.103  1.00  0.00    -0.347 N 
HETATM   34  C   UNL     1       3.473  32.787  57.933  1.00  0.00     0.171 C 
HETATM   35  S   UNL     1       3.376  33.656  56.530  1.00  0.00    -0.041 SA
HETATM   36  N   UNL     1       3.517  33.374  59.188  1.00  0.00    -0.357 N 
HETATM   37  C   UNL     1       3.750  32.399  60.232  1.00  0.00     0.135 C 
HETATM   38  H   UNL     1       3.599  34.376  59.311  1.00  0.00     0.162 HD
HETATM   39  C   UNL     1       3.495  31.063  59.514  1.00  0.00     0.155 C 
BRANCH  37  40
HETATM   40  C   UNL     1       5.146  32.484  60.816  1.00  0.00    -0.034 A 
HETATM   41  C   UNL     1       5.309  32.561  62.209  1.00  0.00     0.009 A 
HETATM   42  C   UNL     1       6.583  32.592  62.780  1.00  0.00     0.001 A 
HETATM   43  C   UNL     1       7.714  32.544  61.969  1.00  0.00     0.000 A 
HETATM   44  C   UNL     1       7.572  32.465  60.586  1.00  0.00     0.001 A 
HETATM   45  C   UNL     1       6.299  32.432  60.014  1.00  0.00     0.009 A 
ENDBRANCH  37  40
ENDBRANCH  32  33
ENDBRANCH   2  32
TORSDOF 10
ENDMDL
MODEL 6
REMARK VINA RESULT:      -9.4      2.807      9.498
REMARK  10 active torsions:
REMARK  status: ('A' for Active; 'I' for Inactive)
REMARK    1  A    between atoms: C_6  and  N_7 
REMARK    2  A    between atoms: C_6  and  C_29 
REMARK       I    between atoms: N_7  and  C_8 
REMARK    3  A    between atoms: N_7  and  C_23 
REMARK    4  A    between atoms: C_8  and  C_9 
REMARK    5  A    between atoms: C_9  and  N_10 
REMARK    6  A    between atoms: C_14  and  C_15 
REMARK    7  A    between atoms: C_23  and  C_24 
REMARK       I    between atoms: C_29  and  N_30 
REMARK    8  A    between atoms: N_30  and  C_31 
REMARK    9  A    between atoms: C_32  and  O_33 
REMARK   10  A    between atoms: C_36  and  O_37 
ROOT
HETATM    1  N   UNL     1       6.661  28.517  56.679  1.00  0.00    -0.326 N 
HETATM    2  C   UNL     1       5.483  29.248  56.451  1.00  0.00     0.239 C 
HETATM    3  O   UNL     1       4.397  28.693  56.307  1.00  0.00    -0.271 OA
ENDROOT
BRANCH   1   4
HETATM    4  C   UNL     1       6.833  27.135  56.104  1.00  0.00     0.120 C 
HETATM    5  C   UNL     1       8.113  26.436  56.603  1.00  0.00     0.069 C 
HETATM    6  C   UNL     1       8.277  25.033  56.026  1.00  0.00     0.237 C 
HETATM    7  N   UNL     1       7.074  24.191  56.335  1.00  0.00    -0.075 N 
HETATM    8  C   UNL     1       7.236  22.788  55.803  1.00  0.00     0.269 C 
HETATM    9  H   UNL     1       7.005  24.102  57.361  1.00  0.00     0.279 HD
HETATM   10  C   UNL     1       5.775  24.806  55.864  1.00  0.00     0.237 C 
HETATM   11  C   UNL     1       5.635  26.195  56.478  1.00  0.00     0.069 C 
BRANCH   4  12
HETATM   12  C   UNL     1       6.741  27.281  54.541  1.00  0.00     0.251 C 
HETATM   13  N   UNL     1       5.522  27.009  53.962  1.00  0.00    -0.323 N 
HETATM   14  H   UNL     1       4.709  26.776  54.521  1.00  0.00     0.169 HD
HETATM   15  O   UNL     1       7.745  27.610  53.910  1.00  0.00    -0.270 OA
BRANCH  13  16
HETATM   16  C   UNL     1       5.210  27.068  52.580  1.00  0.00     0.068 A 
HETATM   17  C   UNL     1       4.783  28.315  52.077  1.00  0.00     0.097 A 
HETATM   18  C   UNL     1       4.477  28.455  50.715  1.00  0.00     0.075 A 
HETATM   19  C   UNL     1       4.590  27.359  49.856  1.00  0.00     0.070 A 
HETATM   20  C   UNL     1       4.987  26.125  50.366  1.00  0.00     0.039 A 
HETATM   21  C   UNL     1       5.300  25.976  51.717  1.00  0.00     0.035 A 
BRANCH  17  22
HETATM   22  O   UNL     1       4.736  29.330  53.009  1.00  0.00    -0.354 OA
HETATM   23  C   UNL     1       3.486  29.998  53.166  1.00  0.00     0.210 C 
ENDBRANCH  17  22
BRANCH  19  24
HETATM   24  O   UNL     1       4.334  27.357  48.513  1.00  0.00    -0.356 OA
HETATM   25  C   UNL     1       5.280  27.994  47.667  1.00  0.00     0.210 C 
ENDBRANCH  19  24
ENDBRANCH  13  16
ENDBRANCH   4  12
ENDBRANCH   1   4
BRANCH   1  26
HETATM   26  C   UNL     1       7.360  28.871  57.923  1.00  0.00     0.192 C 
BRANCH  26  27
HETATM   27  C   UNL     1       8.647  29.567  57.705  1.00  0.00     0.070 A 
HETATM   28  O   UNL     1       8.833  30.664  58.497  1.00  0.00    -0.325 OA
HETATM   29  C   UNL     1      10.038  31.194  58.177  1.00  0.00     0.142 A 
HETATM   30  C   UNL     1      10.639  30.450  57.190  1.00  0.00     0.027 A 
HETATM   31  C   UNL     1       9.741  29.401  56.880  1.00  0.00     0.036 A 
ENDBRANCH  26  27
ENDBRANCH   1  26
BRANCH   2  32
HETATM   32  C   UNL     1       5.713  30.768  56.288  1.00  0.00     0.228 C 
BRANCH  32  33
HETATM   33  N   UNL     1       4.969  31.606  57.212  1.00  0.00    -0.347 N 
HETATM   34  C   UNL     1       4.530  32.911  57.015  1.00  0.00     0.171 C 
HETATM   35  S   UNL     1       4.704  33.875  55.684  1.00  0.00    -0.041 SA
HETATM   36  N   UNL     1       3.908  33.331  58.180  1.00  0.00    -0.357 N 
HETATM   37  C   UNL     1       4.022  32.349  59.237  1.00  0.00     0.135 C 
HETATM   38  H   UNL     1       3.618  34.291  58.320  1.00  0.00     0.162 HD
HETATM   39  C   UNL     1       4.493  31.092  58.486  1.00  0.00     0.155 C 
BRANCH  37  40
HETATM   40  C   UNL     1       4.990  32.766  60.328  1.00  0.00    -0.034 A 
HETATM   41  C   UNL     1       6.313  32.296  60.294  1.00  0.00     0.009 A 
HETATM   42  C   UNL     1       7.240  32.700  61.258  1.00  0.00     0.001 A 
HETATM   43  C   UNL     1       6.861  33.582  62.266  1.00  0.00     0.000 A 
HETATM   44  C   UNL     1       5.554  34.060  62.314  1.00  0.00     0.001 A 
HETATM   45  C   UNL     1       4.626  33.658  61.351  1.00  0.00     0.009 A 
ENDBRANCH  37  40
ENDBRANCH  32  33
ENDBRANCH   2  32
TORSDOF 10
ENDMDL
MODEL 7
REMARK VINA RESULT:      -9.2      6.027      9.905
REMARK  10 active torsions:
REMARK  status: ('A' for Active; 'I' for Inactive)
REMARK    1  A    between atoms: C_6  and  N_7 
REMARK    2  A    between atoms: C_6  and  C_29 
REMARK       I    between atoms: N_7  and  C_8 
REMARK    3  A    between atoms: N_7  and  C_23 
REMARK    4  A    between atoms: C_8  and  C_9 
REMARK    5  A    between atoms: C_9  and  N_10 
REMARK    6  A    between atoms: C_14  and  C_15 
REMARK    7  A    between atoms: C_23  and  C_24 
REMARK       I    between atoms: C_29  and  N_30 
REMARK    8  A    between atoms: N_30  and  C_31 
REMARK    9  A    between atoms: C_32  and  O_33 
REMARK   10  A    between atoms: C_36  and  O_37 
ROOT
HETATM    1  N   UNL     1       4.690  28.087  51.695  1.00  0.00    -0.326 N 
HETATM    2  C   UNL     1       5.190  26.981  52.401  1.00  0.00     0.239 C 
HETATM    3  O   UNL     1       5.703  26.025  51.825  1.00  0.00    -0.271 OA
ENDROOT
BRANCH   1   4
HETATM    4  C   UNL     1       4.122  27.923  50.309  1.00  0.00     0.120 C 
HETATM    5  C   UNL     1       4.127  26.457  49.831  1.00  0.00     0.069 C 
HETATM    6  C   UNL     1       3.541  26.295  48.431  1.00  0.00     0.237 C 
HETATM    7  N   UNL     1       2.150  26.854  48.373  1.00  0.00    -0.075 N 
HETATM    8  C   UNL     1       1.543  26.669  47.004  1.00  0.00     0.269 C 
HETATM    9  H   UNL     1       1.563  26.309  49.023  1.00  0.00     0.279 HD
HETATM   10  C   UNL     1       2.065  28.297  48.816  1.00  0.00     0.237 C 
HETATM   11  C   UNL     1       2.636  28.417  50.224  1.00  0.00     0.069 C 
BRANCH   4  12
HETATM   12  C   UNL     1       4.914  28.911  49.376  1.00  0.00     0.251 C 
HETATM   13  N   UNL     1       4.357  30.153  49.171  1.00  0.00    -0.323 N 
HETATM   14  H   UNL     1       3.504  30.436  49.639  1.00  0.00     0.169 HD
HETATM   15  O   UNL     1       5.969  28.537  48.865  1.00  0.00    -0.270 OA
BRANCH  13  16
HETATM   16  C   UNL     1       4.887  31.196  48.369  1.00  0.00     0.068 A 
HETATM   17  C   UNL     1       4.445  31.256  47.030  1.00  0.00     0.097 A 
HETATM   18  C   UNL     1       4.910  32.273  46.182  1.00  0.00     0.075 A 
HETATM   19  C   UNL     1       5.815  33.223  46.661  1.00  0.00     0.070 A 
HETATM   20  C   UNL     1       6.267  33.140  47.976  1.00  0.00     0.039 A 
HETATM   21  C   UNL     1       5.806  32.137  48.829  1.00  0.00     0.035 A 
BRANCH  17  22
HETATM   22  O   UNL     1       3.532  30.285  46.677  1.00  0.00    -0.354 OA
HETATM   23  C   UNL     1       2.298  30.737  46.125  1.00  0.00     0.210 C 
ENDBRANCH  17  22
BRANCH  19  24
HETATM   24  O   UNL     1       6.340  34.266  45.951  1.00  0.00    -0.356 OA
HETATM   25  C   UNL     1       7.385  33.973  45.034  1.00  0.00     0.210 C 
ENDBRANCH  19  24
ENDBRANCH  13  16
ENDBRANCH   4  12
ENDBRANCH   1   4
BRANCH   1  26
HETATM   26  C   UNL     1       5.296  29.371  52.076  1.00  0.00     0.192 C 
BRANCH  26  27
HETATM   27  C   UNL     1       4.343  30.320  52.693  1.00  0.00     0.070 A 
HETATM   28  O   UNL     1       3.952  31.336  51.869  1.00  0.00    -0.325 OA
HETATM   29  C   UNL     1       3.097  32.119  52.571  1.00  0.00     0.142 A 
HETATM   30  C   UNL     1       2.926  31.619  53.840  1.00  0.00     0.027 A 
HETATM   31  C   UNL     1       3.733  30.459  53.923  1.00  0.00     0.036 A 
ENDBRANCH  26  27
ENDBRANCH   1  26
BRANCH   2  32
HETATM   32  C   UNL     1       4.924  27.041  53.924  1.00  0.00     0.228 C 
BRANCH  32  33
HETATM   33  N   UNL     1       5.919  26.378  54.748  1.00  0.00    -0.347 N 
HETATM   34  C   UNL     1       7.164  26.862  55.134  1.00  0.00     0.171 C 
HETATM   35  S   UNL     1       7.864  28.321  54.792  1.00  0.00    -0.041 SA
HETATM   36  N   UNL     1       7.795  25.873  55.873  1.00  0.00    -0.357 N 
HETATM   37  C   UNL     1       7.027  24.647  55.898  1.00  0.00     0.135 C 
HETATM   38  H   UNL     1       8.764  25.948  56.156  1.00  0.00     0.162 HD
HETATM   39  C   UNL     1       5.652  25.093  55.374  1.00  0.00     0.155 C 
BRANCH  37  40
HETATM   40  C   UNL     1       7.640  23.550  55.050  1.00  0.00    -0.034 A 
HETATM   41  C   UNL     1       8.558  22.659  55.631  1.00  0.00     0.009 A 
HETATM   42  C   UNL     1       9.104  21.609  54.888  1.00  0.00     0.001 A 
HETATM   43  C   UNL     1       8.739  21.432  53.556  1.00  0.00     0.000 A 
HETATM   44  C   UNL     1       7.829  22.304  52.964  1.00  0.00     0.001 A 
HETATM   45  C   UNL     1       7.281  23.353  53.706  1.00  0.00     0.009 A 
ENDBRANCH  37  40
ENDBRANCH  32  33
ENDBRANCH   2  32
TORSDOF 10
ENDMDL
MODEL 8
REMARK VINA RESULT:      -9.2      2.280      3.824
REMARK  10 active torsions:
REMARK  status: ('A' for Active; 'I' for Inactive)
REMARK    1  A    between atoms: C_6  and  N_7 
REMARK    2  A    between atoms: C_6  and  C_29 
REMARK       I    between atoms: N_7  and  C_8 
REMARK    3  A    between atoms: N_7  and  C_23 
REMARK    4  A    between atoms: C_8  and  C_9 
REMARK    5  A    between atoms: C_9  and  N_10 
REMARK    6  A    between atoms: C_14  and  C_15 
REMARK    7  A    between atoms: C_23  and  C_24 
REMARK       I    between atoms: C_29  and  N_30 
REMARK    8  A    between atoms: N_30  and  C_31 
REMARK    9  A    between atoms: C_32  and  O_33 
REMARK   10  A    between atoms: C_36  and  O_37 
ROOT
HETATM    1  N   UNL     1       4.694  30.929  56.316  1.00  0.00    -0.326 N 
HETATM    2  C   UNL     1       5.890  30.390  56.818  1.00  0.00     0.239 C 
HETATM    3  O   UNL     1       6.298  30.663  57.944  1.00  0.00    -0.271 OA
ENDROOT
BRANCH   1   4
HETATM    4  C   UNL     1       4.226  32.296  56.744  1.00  0.00     0.120 C 
HETATM    5  C   UNL     1       5.215  33.414  56.357  1.00  0.00     0.069 C 
HETATM    6  C   UNL     1       4.731  34.797  56.784  1.00  0.00     0.237 C 
HETATM    7  N   UNL     1       3.374  35.083  56.210  1.00  0.00    -0.075 N 
HETATM    8  C   UNL     1       2.897  36.462  56.593  1.00  0.00     0.269 C 
HETATM    9  H   UNL     1       3.460  35.085  55.182  1.00  0.00     0.279 HD
HETATM   10  C   UNL     1       2.343  34.033  56.558  1.00  0.00     0.237 C 
HETATM   11  C   UNL     1       2.849  32.671  56.096  1.00  0.00     0.069 C 
BRANCH   4  12
HETATM   12  C   UNL     1       3.921  32.207  58.284  1.00  0.00     0.251 C 
HETATM   13  N   UNL     1       4.694  32.984  59.117  1.00  0.00    -0.323 N 
HETATM   14  H   UNL     1       5.391  33.623  58.752  1.00  0.00     0.169 HD
HETATM   15  O   UNL     1       3.034  31.449  58.677  1.00  0.00    -0.270 OA
BRANCH  13  16
HETATM   16  C   UNL     1       4.602  33.060  60.531  1.00  0.00     0.068 A 
HETATM   17  C   UNL     1       5.768  32.747  61.261  1.00  0.00     0.097 A 
HETATM   18  C   UNL     1       5.760  32.819  62.662  1.00  0.00     0.075 A 
HETATM   19  C   UNL     1       4.596  33.197  63.336  1.00  0.00     0.070 A 
HETATM   20  C   UNL     1       3.441  33.478  62.608  1.00  0.00     0.039 A 
HETATM   21  C   UNL     1       3.441  33.415  61.215  1.00  0.00     0.035 A 
BRANCH  17  22
HETATM   22  O   UNL     1       6.863  32.416  60.491  1.00  0.00    -0.354 OA
HETATM   23  C   UNL     1       7.743  31.427  61.021  1.00  0.00     0.210 C 
ENDBRANCH  17  22
BRANCH  19  24
HETATM   24  O   UNL     1       4.450  33.316  64.690  1.00  0.00    -0.356 OA
HETATM   25  C   UNL     1       5.545  33.853  65.420  1.00  0.00     0.210 C 
ENDBRANCH  19  24
ENDBRANCH  13  16
ENDBRANCH   4  12
ENDBRANCH   1   4
BRANCH   1  26
HETATM   26  C   UNL     1       3.702  29.923  55.911  1.00  0.00     0.192 C 
BRANCH  26  27
HETATM   27  C   UNL     1       3.706  29.633  54.461  1.00  0.00     0.070 A 
HETATM   28  O   UNL     1       3.823  28.307  54.154  1.00  0.00    -0.325 OA
HETATM   29  C   UNL     1       3.822  28.203  52.803  1.00  0.00     0.142 A 
HETATM   30  C   UNL     1       3.701  29.446  52.230  1.00  0.00     0.027 A 
HETATM   31  C   UNL     1       3.630  30.372  53.298  1.00  0.00     0.036 A 
ENDBRANCH  26  27
ENDBRANCH   1  26
BRANCH   2  32
HETATM   32  C   UNL     1       6.672  29.540  55.790  1.00  0.00     0.228 C 
BRANCH  32  33
HETATM   33  N   UNL     1       7.165  28.269  56.291  1.00  0.00    -0.347 N 
HETATM   34  C   UNL     1       8.418  27.994  56.828  1.00  0.00     0.171 C 
HETATM   35  S   UNL     1       9.692  29.019  57.072  1.00  0.00    -0.041 SA
HETATM   36  N   UNL     1       8.465  26.640  57.127  1.00  0.00    -0.357 N 
HETATM   37  C   UNL     1       7.274  25.948  56.681  1.00  0.00     0.135 C 
HETATM   38  H   UNL     1       9.320  26.182  57.413  1.00  0.00     0.162 HD
HETATM   39  C   UNL     1       6.303  27.101  56.375  1.00  0.00     0.155 C 
BRANCH  37  40
HETATM   40  C   UNL     1       7.523  25.067  55.473  1.00  0.00    -0.034 A 
HETATM   41  C   UNL     1       7.179  25.534  54.194  1.00  0.00     0.009 A 
HETATM   42  C   UNL     1       7.439  24.765  53.057  1.00  0.00     0.001 A 
HETATM   43  C   UNL     1       8.049  23.519  53.180  1.00  0.00     0.000 A 
HETATM   44  C   UNL     1       8.400  23.041  54.440  1.00  0.00     0.001 A 
HETATM   45  C   UNL     1       8.142  23.809  55.577  1.00  0.00     0.009 A 
ENDBRANCH  37  40
ENDBRANCH  32  33
ENDBRANCH   2  32
TORSDOF 10
ENDMDL
MODEL 9
REMARK VINA RESULT:      -9.1      4.626      7.219
REMARK  10 active torsions:
REMARK  status: ('A' for Active; 'I' for Inactive)
REMARK    1  A    between atoms: C_6  and  N_7 
REMARK    2  A    between atoms: C_6  and  C_29 
REMARK       I    between atoms: N_7  and  C_8 
REMARK    3  A    between atoms: N_7  and  C_23 
REMARK    4  A    between atoms: C_8  and  C_9 
REMARK    5  A    between atoms: C_9  and  N_10 
REMARK    6  A    between atoms: C_14  and  C_15 
REMARK    7  A    between atoms: C_23  and  C_24 
REMARK       I    between atoms: C_29  and  N_30 
REMARK    8  A    between atoms: N_30  and  C_31 
REMARK    9  A    between atoms: C_32  and  O_33 
REMARK   10  A    between atoms: C_36  and  O_37 
ROOT
HETATM    1  N   UNL     1       4.804  29.131  50.753  1.00  0.00    -0.326 N 
HETATM    2  C   UNL     1       4.770  28.375  51.937  1.00  0.00     0.239 C 
HETATM    3  O   UNL     1       3.712  28.104  52.499  1.00  0.00    -0.271 OA
ENDROOT
BRANCH   1   4
HETATM    4  C   UNL     1       3.761  30.185  50.482  1.00  0.00     0.120 C 
HETATM    5  C   UNL     1       3.917  30.834  49.092  1.00  0.00     0.069 C 
HETATM    6  C   UNL     1       2.853  31.893  48.819  1.00  0.00     0.237 C 
HETATM    7  N   UNL     1       1.477  31.312  48.968  1.00  0.00    -0.075 N 
HETATM    8  C   UNL     1       0.413  32.338  48.665  1.00  0.00     0.269 C 
HETATM    9  H   UNL     1       1.369  30.569  48.260  1.00  0.00     0.279 HD
HETATM   10  C   UNL     1       1.244  30.665  50.315  1.00  0.00     0.237 C 
HETATM   11  C   UNL     1       2.309  29.599  50.543  1.00  0.00     0.069 C 
BRANCH   4  12
HETATM   12  C   UNL     1       3.823  31.200  51.681  1.00  0.00     0.251 C 
HETATM   13  N   UNL     1       2.937  30.995  52.715  1.00  0.00    -0.323 N 
HETATM   14  H   UNL     1       2.311  30.199  52.727  1.00  0.00     0.169 HD
HETATM   15  O   UNL     1       4.632  32.126  51.642  1.00  0.00    -0.270 OA
BRANCH  13  16
HETATM   16  C   UNL     1       2.809  31.782  53.888  1.00  0.00     0.068 A 
HETATM   17  C   UNL     1       3.449  31.300  55.050  1.00  0.00     0.097 A 
HETATM   18  C   UNL     1       3.383  32.035  56.243  1.00  0.00     0.075 A 
HETATM   19  C   UNL     1       2.682  33.242  56.283  1.00  0.00     0.070 A 
HETATM   20  C   UNL     1       2.031  33.698  55.138  1.00  0.00     0.039 A 
HETATM   21  C   UNL     1       2.095  32.978  53.945  1.00  0.00     0.035 A 
BRANCH  17  22
HETATM   22  O   UNL     1       4.134  30.115  54.885  1.00  0.00    -0.354 OA
HETATM   23  C   UNL     1       3.900  29.100  55.858  1.00  0.00     0.210 C 
ENDBRANCH  17  22
BRANCH  19  24
HETATM   24  O   UNL     1       2.546  34.060  57.370  1.00  0.00    -0.356 OA
HETATM   25  C   UNL     1       3.598  34.059  58.325  1.00  0.00     0.210 C 
ENDBRANCH  19  24
ENDBRANCH  13  16
ENDBRANCH   4  12
ENDBRANCH   1   4
BRANCH   1  26
HETATM   26  C   UNL     1       5.450  28.450  49.621  1.00  0.00     0.192 C 
BRANCH  26  27
HETATM   27  C   UNL     1       4.618  27.390  49.010  1.00  0.00     0.070 A 
HETATM   28  O   UNL     1       4.023  27.753  47.835  1.00  0.00    -0.325 OA
HETATM   29  C   UNL     1       3.294  26.693  47.408  1.00  0.00     0.142 A 
HETATM   30  C   UNL     1       3.413  25.646  48.290  1.00  0.00     0.027 A 
HETATM   31  C   UNL     1       4.265  26.095  49.328  1.00  0.00     0.036 A 
ENDBRANCH  26  27
ENDBRANCH   1  26
BRANCH   2  32
HETATM   32  C   UNL     1       6.169  28.037  52.501  1.00  0.00     0.228 C 
BRANCH  32  33
HETATM   33  N   UNL     1       6.172  27.127  53.633  1.00  0.00    -0.347 N 
HETATM   34  C   UNL     1       6.795  27.300  54.864  1.00  0.00     0.171 C 
HETATM   35  S   UNL     1       7.687  28.583  55.405  1.00  0.00    -0.041 SA
HETATM   36  N   UNL     1       6.573  26.158  55.618  1.00  0.00    -0.357 N 
HETATM   37  C   UNL     1       5.890  25.134  54.857  1.00  0.00     0.135 C 
HETATM   38  H   UNL     1       7.035  26.000  56.505  1.00  0.00     0.162 HD
HETATM   39  C   UNL     1       5.388  25.902  53.624  1.00  0.00     0.155 C 
BRANCH  37  40
HETATM   40  C   UNL     1       6.794  23.974  54.486  1.00  0.00    -0.034 A 
HETATM   41  C   UNL     1       7.288  23.133  55.496  1.00  0.00     0.009 A 
HETATM   42  C   UNL     1       8.083  22.028  55.183  1.00  0.00     0.001 A 
HETATM   43  C   UNL     1       8.396  21.747  53.855  1.00  0.00     0.000 A 
HETATM   44  C   UNL     1       7.913  22.568  52.840  1.00  0.00     0.001 A 
HETATM   45  C   UNL     1       7.116  23.672  53.152  1.00  0.00     0.009 A 
ENDBRANCH  37  40
ENDBRANCH  32  33
ENDBRANCH   2  32
TORSDOF 10
ENDMDL
MODEL 10
REMARK VINA RESULT:      -9.1      6.316      9.146
REMARK  10 active torsions:
REMARK  status: ('A' for Active; 'I' for Inactive)
REMARK    1  A    between atoms: C_6  and  N_7 
REMARK    2  A    between atoms: C_6  and  C_29 
REMARK       I    between atoms: N_7  and  C_8 
REMARK    3  A    between atoms: N_7  and  C_23 
REMARK    4  A    between atoms: C_8  and  C_9 
REMARK    5  A    between atoms: C_9  and  N_10 
REMARK    6  A    between atoms: C_14  and  C_15 
REMARK    7  A    between atoms: C_23  and  C_24 
REMARK       I    between atoms: C_29  and  N_30 
REMARK    8  A    between atoms: N_30  and  C_31 
REMARK    9  A    between atoms: C_32  and  O_33 
REMARK   10  A    between atoms: C_36  and  O_37 
ROOT
HETATM    1  N   UNL     1       4.573  29.355  50.834  1.00  0.00    -0.326 N 
HETATM    2  C   UNL     1       4.458  28.449  51.902  1.00  0.00     0.239 C 
HETATM    3  O   UNL     1       3.370  28.175  52.401  1.00  0.00    -0.271 OA
ENDROOT
BRANCH   1   4
HETATM    4  C   UNL     1       3.608  30.504  50.692  1.00  0.00     0.120 C 
HETATM    5  C   UNL     1       2.190  30.047  50.298  1.00  0.00     0.069 C 
HETATM    6  C   UNL     1       1.215  31.214  50.165  1.00  0.00     0.237 C 
HETATM    7  N   UNL     1       1.168  32.010  51.436  1.00  0.00    -0.075 N 
HETATM    8  C   UNL     1       0.180  33.146  51.334  1.00  0.00     0.269 C 
HETATM    9  H   UNL     1       0.817  31.392  52.184  1.00  0.00     0.279 HD
HETATM   10  C   UNL     1       2.524  32.506  51.883  1.00  0.00     0.237 C 
HETATM   11  C   UNL     1       3.464  31.314  52.027  1.00  0.00     0.069 C 
BRANCH   4  12
HETATM   12  C   UNL     1       4.263  31.522  49.689  1.00  0.00     0.251 C 
HETATM   13  N   UNL     1       5.382  32.195  50.127  1.00  0.00    -0.323 N 
HETATM   14  H   UNL     1       5.794  32.005  51.033  1.00  0.00     0.169 HD
HETATM   15  O   UNL     1       3.752  31.686  48.581  1.00  0.00    -0.270 OA
BRANCH  13  16
HETATM   16  C   UNL     1       6.129  33.157  49.401  1.00  0.00     0.068 A 
HETATM   17  C   UNL     1       6.279  34.427  49.996  1.00  0.00     0.097 A 
HETATM   18  C   UNL     1       7.022  35.424  49.346  1.00  0.00     0.075 A 
HETATM   19  C   UNL     1       7.612  35.161  48.108  1.00  0.00     0.070 A 
HETATM   20  C   UNL     1       7.437  33.913  47.515  1.00  0.00     0.039 A 
HETATM   21  C   UNL     1       6.706  32.913  48.155  1.00  0.00     0.035 A 
BRANCH  17  22
HETATM   22  O   UNL     1       5.678  34.563  51.230  1.00  0.00    -0.354 OA
HETATM   23  C   UNL     1       6.527  34.918  52.319  1.00  0.00     0.210 C 
ENDBRANCH  17  22
BRANCH  19  24
HETATM   24  O   UNL     1       8.366  36.033  47.373  1.00  0.00    -0.356 OA
HETATM   25  C   UNL     1       8.256  35.959  45.958  1.00  0.00     0.210 C 
ENDBRANCH  19  24
ENDBRANCH  13  16
ENDBRANCH   4  12
ENDBRANCH   1   4
BRANCH   1  26
HETATM   26  C   UNL     1       5.205  28.794  49.632  1.00  0.00     0.192 C 
BRANCH  26  27
HETATM   27  C   UNL     1       4.423  27.709  48.999  1.00  0.00     0.070 A 
HETATM   28  O   UNL     1       3.651  28.115  47.948  1.00  0.00    -0.325 OA
HETATM   29  C   UNL     1       2.994  27.024  47.485  1.00  0.00     0.142 A 
HETATM   30  C   UNL     1       3.334  25.915  48.222  1.00  0.00     0.027 A 
HETATM   31  C   UNL     1       4.254  26.355  49.203  1.00  0.00     0.036 A 
ENDBRANCH  26  27
ENDBRANCH   1  26
BRANCH   2  32
HETATM   32  C   UNL     1       5.817  27.943  52.440  1.00  0.00     0.228 C 
BRANCH  32  33
HETATM   33  N   UNL     1       5.728  26.970  53.514  1.00  0.00    -0.347 N 
HETATM   34  C   UNL     1       5.906  27.187  54.876  1.00  0.00     0.171 C 
HETATM   35  S   UNL     1       6.245  28.598  55.668  1.00  0.00    -0.041 SA
HETATM   36  N   UNL     1       5.779  25.967  55.522  1.00  0.00    -0.357 N 
HETATM   37  C   UNL     1       5.629  24.874  54.584  1.00  0.00     0.135 C 
HETATM   38  H   UNL     1       5.991  25.853  56.505  1.00  0.00     0.162 HD
HETATM   39  C   UNL     1       5.322  25.597  53.263  1.00  0.00     0.155 C 
BRANCH  37  40
HETATM   40  C   UNL     1       6.868  24.004  54.492  1.00  0.00    -0.034 A 
HETATM   41  C   UNL     1       7.659  23.804  55.635  1.00  0.00     0.009 A 
HETATM   42  C   UNL     1       8.779  22.970  55.594  1.00  0.00     0.001 A 
HETATM   43  C   UNL     1       9.123  22.321  54.411  1.00  0.00     0.000 A 
HETATM   44  C   UNL     1       8.350  22.505  53.268  1.00  0.00     0.001 A 
HETATM   45  C   UNL     1       7.229  23.337  53.309  1.00  0.00     0.009 A 
ENDBRANCH  37  40
ENDBRANCH  32  33
ENDBRANCH   2  32
TORSDOF 10
ENDMDL
