MODEL 1
REMARK VINA RESULT:      -8.4      0.000      0.000
REMARK  5 active torsions:
REMARK  status: ('A' for Active; 'I' for Inactive)
REMARK    1  A    between atoms: C_3  and  N_4 
REMARK       I    between atoms: N_4  and  C_5 
REMARK       I    between atoms: C_5  and  N_6 
REMARK    2  A    between atoms: N_6  and  C_7 
REMARK    3  A    between atoms: C_7  and  C_8 
REMARK    4  A    between atoms: C_8  and  O_9 
REMARK    5  A    between atoms: O_9  and  C_10 
ROOT
HETATM    1  N   UNL     1       7.133  23.013  55.880  1.00  0.00    -0.307 N 
HETATM    2  C   UNL     1       7.884  23.985  56.508  1.00  0.00     0.320 C 
HETATM    3  N   UNL     1       7.076  24.815  57.251  1.00  0.00    -0.340 N 
HETATM    4  O   UNL     1       9.100  24.095  56.466  1.00  0.00    -0.247 OA
HETATM    5  H   UNL     1       6.415  22.644  56.488  1.00  0.00     0.170 HD
HETATM    6  H   UNL     1       6.107  24.866  56.972  1.00  0.00     0.164 HD
ENDROOT
BRANCH   3   7
HETATM    7  C   UNL     1       7.616  25.901  58.053  1.00  0.00     0.156 C 
BRANCH   7   8
HETATM    8  C   UNL     1       7.270  27.311  57.534  1.00  0.00     0.142 C 
HETATM    9  C   UNL     1       6.180  27.290  56.464  1.00  0.00     0.042 C 
BRANCH   8  10
HETATM   10  O   UNL     1       8.433  27.866  56.894  1.00  0.00    -0.345 OA
BRANCH  10  11
HETATM   11  C   UNL     1       8.979  29.018  57.385  1.00  0.00     0.070 A 
HETATM   12  C   UNL     1       8.384  29.894  58.291  1.00  0.00     0.060 A 
HETATM   13  C   UNL     1       9.070  31.042  58.697  1.00  0.00     0.036 A 
HETATM   14 CL   UNL     1       8.325  32.128  59.806  1.00  0.00    -0.084 Cl
HETATM   15  C   UNL     1      10.351  31.317  58.220  1.00  0.00     0.024 A 
HETATM   16  C   UNL     1      10.956  30.432  57.330  1.00  0.00     0.004 A 
HETATM   17  C   UNL     1      10.270  29.288  56.919  1.00  0.00     0.037 A 
ENDBRANCH  10  11
ENDBRANCH   8  10
ENDBRANCH   7   8
ENDBRANCH   3   7
BRANCH   1  18
HETATM   18  C   UNL     1       7.665  22.107  54.931  1.00  0.00     0.059 A 
HETATM   19  C   UNL     1       7.834  22.392  53.568  1.00  0.00    -0.032 A 
HETATM   20  C   UNL     1       7.417  23.683  52.922  1.00  0.00     0.050 C 
HETATM   21  C   UNL     1       8.404  21.405  52.750  1.00  0.00     0.028 A 
HETATM   22  C   UNL     1       8.724  20.170  53.293  1.00  0.00     0.117 A 
HETATM   23  N   UNL     1       8.514  19.846  54.583  1.00  0.00    -0.271 NA
HETATM   24  C   UNL     1       7.990  20.818  55.364  1.00  0.00     0.146 A 
ENDBRANCH   1  18
TORSDOF 5
ENDMDL
MODEL 2
REMARK VINA RESULT:      -8.2      3.625      8.793
REMARK  5 active torsions:
REMARK  status: ('A' for Active; 'I' for Inactive)
REMARK    1  A    between atoms: C_3  and  N_4 
REMARK       I    between atoms: N_4  and  C_5 
REMARK       I    between atoms: C_5  and  N_6 
REMARK    2  A    between atoms: N_6  and  C_7 
REMARK    3  A    between atoms: C_7  and  C_8 
REMARK    4  A    between atoms: C_8  and  O_9 
REMARK    5  A    between atoms: O_9  and  C_10 
ROOT
HETATM    1  N   UNL     1       7.578  29.779  57.110  1.00  0.00    -0.307 N 
HETATM    2  C   UNL     1       7.455  28.412  57.240  1.00  0.00     0.320 C 
HETATM    3  N   UNL     1       6.792  27.880  56.158  1.00  0.00    -0.340 N 
HETATM    4  O   UNL     1       7.898  27.732  58.154  1.00  0.00    -0.247 OA
HETATM    5  H   UNL     1       7.815  30.044  56.163  1.00  0.00     0.170 HD
HETATM    6  H   UNL     1       6.190  28.508  55.646  1.00  0.00     0.164 HD
ENDROOT
BRANCH   3   7
HETATM    7  C   UNL     1       6.566  26.451  56.018  1.00  0.00     0.156 C 
BRANCH   7   8
HETATM    8  C   UNL     1       7.342  25.791  54.860  1.00  0.00     0.142 C 
HETATM    9  C   UNL     1       7.517  26.728  53.665  1.00  0.00     0.042 C 
BRANCH   8  10
HETATM   10  O   UNL     1       6.580  24.674  54.371  1.00  0.00    -0.345 OA
BRANCH  10  11
HETATM   11  C   UNL     1       7.156  23.437  54.336  1.00  0.00     0.070 A 
HETATM   12  C   UNL     1       7.462  22.636  55.435  1.00  0.00     0.060 A 
HETATM   13  C   UNL     1       8.060  21.388  55.238  1.00  0.00     0.036 A 
HETATM   14 CL   UNL     1       8.448  20.409  56.600  1.00  0.00    -0.084 Cl
HETATM   15  C   UNL     1       8.345  20.925  53.954  1.00  0.00     0.024 A 
HETATM   16  C   UNL     1       8.022  21.715  52.853  1.00  0.00     0.004 A 
HETATM   17  C   UNL     1       7.429  22.963  53.047  1.00  0.00     0.037 A 
ENDBRANCH  10  11
ENDBRANCH   8  10
ENDBRANCH   7   8
ENDBRANCH   3   7
BRANCH   1  18
HETATM   18  C   UNL     1       8.080  30.619  58.132  1.00  0.00     0.059 A 
HETATM   19  C   UNL     1       9.439  30.911  58.324  1.00  0.00    -0.032 A 
HETATM   20  C   UNL     1      10.549  30.322  57.501  1.00  0.00     0.050 C 
HETATM   21  C   UNL     1       9.788  31.788  59.362  1.00  0.00     0.028 A 
HETATM   22  C   UNL     1       8.799  32.287  60.196  1.00  0.00     0.117 A 
HETATM   23  N   UNL     1       7.495  31.973  60.076  1.00  0.00    -0.271 NA
HETATM   24  C   UNL     1       7.172  31.150  59.053  1.00  0.00     0.146 A 
ENDBRANCH   1  18
TORSDOF 5
ENDMDL
MODEL 3
REMARK VINA RESULT:      -8.1      6.046      8.811
REMARK  5 active torsions:
REMARK  status: ('A' for Active; 'I' for Inactive)
REMARK    1  A    between atoms: C_3  and  N_4 
REMARK       I    between atoms: N_4  and  C_5 
REMARK       I    between atoms: C_5  and  N_6 
REMARK    2  A    between atoms: N_6  and  C_7 
REMARK    3  A    between atoms: C_7  and  C_8 
REMARK    4  A    between atoms: C_8  and  O_9 
REMARK    5  A    between atoms: O_9  and  C_10 
ROOT
HETATM    1  N   UNL     1       5.296  26.860  49.412  1.00  0.00    -0.307 N 
HETATM    2  C   UNL     1       5.281  26.977  50.786  1.00  0.00     0.320 C 
HETATM    3  N   UNL     1       6.378  26.356  51.337  1.00  0.00    -0.340 N 
HETATM    4  O   UNL     1       4.448  27.577  51.448  1.00  0.00    -0.247 OA
HETATM    5  H   UNL     1       6.225  26.998  49.035  1.00  0.00     0.170 HD
HETATM    6  H   UNL     1       6.809  25.630  50.783  1.00  0.00     0.164 HD
ENDROOT
BRANCH   3   7
HETATM    7  C   UNL     1       6.633  26.367  52.768  1.00  0.00     0.156 C 
BRANCH   7   8
HETATM    8  C   UNL     1       6.499  24.991  53.451  1.00  0.00     0.142 C 
HETATM    9  C   UNL     1       5.680  25.055  54.739  1.00  0.00     0.042 C 
BRANCH   8  10
HETATM   10  O   UNL     1       7.808  24.541  53.843  1.00  0.00    -0.345 OA
BRANCH  10  11
HETATM   11  C   UNL     1       8.036  23.203  53.993  1.00  0.00     0.070 A 
HETATM   12  C   UNL     1       8.463  22.562  55.154  1.00  0.00     0.060 A 
HETATM   13  C   UNL     1       8.659  21.178  55.149  1.00  0.00     0.036 A 
HETATM   14 CL   UNL     1       9.200  20.393  56.583  1.00  0.00    -0.084 Cl
HETATM   15  C   UNL     1       8.419  20.425  54.001  1.00  0.00     0.024 A 
HETATM   16  C   UNL     1       7.973  21.060  52.845  1.00  0.00     0.004 A 
HETATM   17  C   UNL     1       7.782  22.443  52.845  1.00  0.00     0.037 A 
ENDBRANCH  10  11
ENDBRANCH   8  10
ENDBRANCH   7   8
ENDBRANCH   3   7
BRANCH   1  18
HETATM   18  C   UNL     1       4.226  27.268  48.581  1.00  0.00     0.059 A 
HETATM   19  C   UNL     1       3.241  26.408  48.074  1.00  0.00    -0.032 A 
HETATM   20  C   UNL     1       3.225  24.922  48.301  1.00  0.00     0.050 C 
HETATM   21  C   UNL     1       2.219  26.960  47.287  1.00  0.00     0.028 A 
HETATM   22  C   UNL     1       2.245  28.313  46.986  1.00  0.00     0.117 A 
HETATM   23  N   UNL     1       3.213  29.152  47.405  1.00  0.00    -0.271 NA
HETATM   24  C   UNL     1       4.174  28.608  48.186  1.00  0.00     0.146 A 
ENDBRANCH   1  18
TORSDOF 5
ENDMDL
MODEL 4
REMARK VINA RESULT:      -8.1      1.684      2.176
REMARK  5 active torsions:
REMARK  status: ('A' for Active; 'I' for Inactive)
REMARK    1  A    between atoms: C_3  and  N_4 
REMARK       I    between atoms: N_4  and  C_5 
REMARK       I    between atoms: C_5  and  N_6 
REMARK    2  A    between atoms: N_6  and  C_7 
REMARK    3  A    between atoms: C_7  and  C_8 
REMARK    4  A    between atoms: C_8  and  O_9 
REMARK    5  A    between atoms: O_9  and  C_10 
ROOT
HETATM    1  N   UNL     1       8.737  24.072  55.741  1.00  0.00    -0.307 N 
HETATM    2  C   UNL     1       7.719  24.784  56.340  1.00  0.00     0.320 C 
HETATM    3  N   UNL     1       8.223  25.868  57.021  1.00  0.00    -0.340 N 
HETATM    4  O   UNL     1       6.525  24.539  56.262  1.00  0.00    -0.247 OA
HETATM    5  H   UNL     1       9.425  24.684  55.323  1.00  0.00     0.170 HD
HETATM    6  H   UNL     1       9.189  25.809  57.310  1.00  0.00     0.164 HD
ENDROOT
BRANCH   3   7
HETATM    7  C   UNL     1       7.361  26.816  57.709  1.00  0.00     0.156 C 
BRANCH   7   8
HETATM    8  C   UNL     1       7.565  28.286  57.288  1.00  0.00     0.142 C 
HETATM    9  C   UNL     1       8.196  28.416  55.903  1.00  0.00     0.042 C 
BRANCH   8  10
HETATM   10  O   UNL     1       8.492  28.903  58.199  1.00  0.00    -0.345 OA
BRANCH  10  11
HETATM   11  C   UNL     1       8.090  29.984  58.930  1.00  0.00     0.070 A 
HETATM   12  C   UNL     1       8.641  30.419  60.134  1.00  0.00     0.060 A 
HETATM   13  C   UNL     1       8.113  31.546  60.770  1.00  0.00     0.036 A 
HETATM   14 CL   UNL     1       8.788  32.072  62.263  1.00  0.00    -0.084 Cl
HETATM   15  C   UNL     1       7.049  32.252  60.210  1.00  0.00     0.024 A 
HETATM   16  C   UNL     1       6.510  31.831  58.997  1.00  0.00     0.004 A 
HETATM   17  C   UNL     1       7.031  30.702  58.362  1.00  0.00     0.037 A 
ENDBRANCH  10  11
ENDBRANCH   8  10
ENDBRANCH   7   8
ENDBRANCH   3   7
BRANCH   1  18
HETATM   18  C   UNL     1       8.544  22.828  55.096  1.00  0.00     0.059 A 
HETATM   19  C   UNL     1       8.217  22.677  53.740  1.00  0.00    -0.032 A 
HETATM   20  C   UNL     1       7.970  23.825  52.803  1.00  0.00     0.050 C 
HETATM   21  C   UNL     1       8.087  21.376  53.230  1.00  0.00     0.028 A 
HETATM   22  C   UNL     1       8.226  20.292  54.082  1.00  0.00     0.117 A 
HETATM   23  N   UNL     1       8.477  20.407  55.400  1.00  0.00    -0.271 NA
HETATM   24  C   UNL     1       8.626  21.666  55.870  1.00  0.00     0.146 A 
ENDBRANCH   1  18
TORSDOF 5
ENDMDL
MODEL 5
REMARK VINA RESULT:      -7.9      2.397      3.600
REMARK  5 active torsions:
REMARK  status: ('A' for Active; 'I' for Inactive)
REMARK    1  A    between atoms: C_3  and  N_4 
REMARK       I    between atoms: N_4  and  C_5 
REMARK       I    between atoms: C_5  and  N_6 
REMARK    2  A    between atoms: N_6  and  C_7 
REMARK    3  A    between atoms: C_7  and  C_8 
REMARK    4  A    between atoms: C_8  and  O_9 
REMARK    5  A    between atoms: O_9  and  C_10 
ROOT
HETATM    1  N   UNL     1       8.302  23.631  53.700  1.00  0.00    -0.307 N 
HETATM    2  C   UNL     1       7.190  24.409  53.452  1.00  0.00     0.320 C 
HETATM    3  N   UNL     1       7.502  25.441  52.598  1.00  0.00    -0.340 N 
HETATM    4  O   UNL     1       6.063  24.211  53.880  1.00  0.00    -0.247 OA
HETATM    5  H   UNL     1       8.844  23.476  52.860  1.00  0.00     0.170 HD
HETATM    6  H   UNL     1       8.472  25.722  52.567  1.00  0.00     0.164 HD
ENDROOT
BRANCH   3   7
HETATM    7  C   UNL     1       6.501  26.388  52.135  1.00  0.00     0.156 C 
BRANCH   7   8
HETATM    8  C   UNL     1       6.216  27.546  53.112  1.00  0.00     0.142 C 
HETATM    9  C   UNL     1       5.471  28.703  52.448  1.00  0.00     0.042 C 
BRANCH   8  10
HETATM   10  O   UNL     1       7.469  28.094  53.558  1.00  0.00    -0.345 OA
BRANCH  10  11
HETATM   11  C   UNL     1       7.708  28.207  54.898  1.00  0.00     0.070 A 
HETATM   12  C   UNL     1       8.702  28.979  55.497  1.00  0.00     0.060 A 
HETATM   13  C   UNL     1       8.826  28.988  56.890  1.00  0.00     0.036 A 
HETATM   14 CL   UNL     1      10.064  29.933  57.624  1.00  0.00    -0.084 Cl
HETATM   15  C   UNL     1       7.961  28.245  57.691  1.00  0.00     0.024 A 
HETATM   16  C   UNL     1       6.955  27.489  57.095  1.00  0.00     0.004 A 
HETATM   17  C   UNL     1       6.831  27.474  55.705  1.00  0.00     0.037 A 
ENDBRANCH  10  11
ENDBRANCH   8  10
ENDBRANCH   7   8
ENDBRANCH   3   7
BRANCH   1  18
HETATM   18  C   UNL     1       8.327  22.587  54.654  1.00  0.00     0.059 A 
HETATM   19  C   UNL     1       8.225  21.223  54.342  1.00  0.00    -0.032 A 
HETATM   20  C   UNL     1       8.016  20.692  52.952  1.00  0.00     0.050 C 
HETATM   21  C   UNL     1       8.298  20.295  55.393  1.00  0.00     0.028 A 
HETATM   22  C   UNL     1       8.407  20.749  56.698  1.00  0.00     0.117 A 
HETATM   23  N   UNL     1       8.442  22.053  57.033  1.00  0.00    -0.271 NA
HETATM   24  C   UNL     1       8.400  22.934  56.007  1.00  0.00     0.146 A 
ENDBRANCH   1  18
TORSDOF 5
ENDMDL
MODEL 6
REMARK VINA RESULT:      -7.9      5.244      7.728
REMARK  5 active torsions:
REMARK  status: ('A' for Active; 'I' for Inactive)
REMARK    1  A    between atoms: C_3  and  N_4 
REMARK       I    between atoms: N_4  and  C_5 
REMARK       I    between atoms: C_5  and  N_6 
REMARK    2  A    between atoms: N_6  and  C_7 
REMARK    3  A    between atoms: C_7  and  C_8 
REMARK    4  A    between atoms: C_8  and  O_9 
REMARK    5  A    between atoms: O_9  and  C_10 
ROOT
HETATM    1  N   UNL     1       4.264  27.177  51.670  1.00  0.00    -0.307 N 
HETATM    2  C   UNL     1       5.223  27.073  52.655  1.00  0.00     0.320 C 
HETATM    3  N   UNL     1       4.638  27.038  53.899  1.00  0.00    -0.340 N 
HETATM    4  O   UNL     1       6.429  26.979  52.479  1.00  0.00    -0.247 OA
HETATM    5  H   UNL     1       3.466  26.586  51.861  1.00  0.00     0.170 HD
HETATM    6  H   UNL     1       3.716  27.445  53.974  1.00  0.00     0.164 HD
ENDROOT
BRANCH   3   7
HETATM    7  C   UNL     1       5.419  26.885  55.115  1.00  0.00     0.156 C 
BRANCH   7   8
HETATM    8  C   UNL     1       5.516  25.436  55.635  1.00  0.00     0.142 C 
HETATM    9  C   UNL     1       5.007  25.294  57.069  1.00  0.00     0.042 C 
BRANCH   8  10
HETATM   10  O   UNL     1       6.901  25.050  55.672  1.00  0.00    -0.345 OA
BRANCH  10  11
HETATM   11  C   UNL     1       7.270  23.839  55.160  1.00  0.00     0.070 A 
HETATM   12  C   UNL     1       7.562  22.688  55.890  1.00  0.00     0.060 A 
HETATM   13  C   UNL     1       7.933  21.519  55.219  1.00  0.00     0.036 A 
HETATM   14 CL   UNL     1       8.306  20.104  56.126  1.00  0.00    -0.084 Cl
HETATM   15  C   UNL     1       8.002  21.482  53.828  1.00  0.00     0.024 A 
HETATM   16  C   UNL     1       7.691  22.626  53.096  1.00  0.00     0.004 A 
HETATM   17  C   UNL     1       7.325  23.796  53.762  1.00  0.00     0.037 A 
ENDBRANCH  10  11
ENDBRANCH   8  10
ENDBRANCH   7   8
ENDBRANCH   3   7
BRANCH   1  18
HETATM   18  C   UNL     1       4.567  27.384  50.303  1.00  0.00     0.059 A 
HETATM   19  C   UNL     1       4.969  28.611  49.755  1.00  0.00    -0.032 A 
HETATM   20  C   UNL     1       5.075  29.887  50.540  1.00  0.00     0.050 C 
HETATM   21  C   UNL     1       5.267  28.658  48.384  1.00  0.00     0.028 A 
HETATM   22  C   UNL     1       5.101  27.521  47.609  1.00  0.00     0.117 A 
HETATM   23  N   UNL     1       4.656  26.346  48.095  1.00  0.00    -0.271 NA
HETATM   24  C   UNL     1       4.400  26.310  49.423  1.00  0.00     0.146 A 
ENDBRANCH   1  18
TORSDOF 5
ENDMDL
MODEL 7
REMARK VINA RESULT:      -7.8      7.060      9.395
REMARK  5 active torsions:
REMARK  status: ('A' for Active; 'I' for Inactive)
REMARK    1  A    between atoms: C_3  and  N_4 
REMARK       I    between atoms: N_4  and  C_5 
REMARK       I    between atoms: C_5  and  N_6 
REMARK    2  A    between atoms: N_6  and  C_7 
REMARK    3  A    between atoms: C_7  and  C_8 
REMARK    4  A    between atoms: C_8  and  O_9 
REMARK    5  A    between atoms: O_9  and  C_10 
ROOT
HETATM    1  N   UNL     1       4.019  27.002  48.482  1.00  0.00    -0.307 N 
HETATM    2  C   UNL     1       4.363  27.247  49.794  1.00  0.00     0.320 C 
HETATM    3  N   UNL     1       5.422  26.455  50.173  1.00  0.00    -0.340 N 
HETATM    4  O   UNL     1       3.849  28.076  50.531  1.00  0.00    -0.247 OA
HETATM    5  H   UNL     1       4.836  26.896  47.895  1.00  0.00     0.170 HD
HETATM    6  H   UNL     1       5.557  25.603  49.648  1.00  0.00     0.164 HD
ENDROOT
BRANCH   3   7
HETATM    7  C   UNL     1       6.017  26.544  51.497  1.00  0.00     0.156 C 
BRANCH   7   8
HETATM    8  C   UNL     1       6.047  25.213  52.274  1.00  0.00     0.142 C 
HETATM    9  C   UNL     1       4.796  25.004  53.126  1.00  0.00     0.042 C 
BRANCH   8  10
HETATM   10  O   UNL     1       7.148  25.243  53.200  1.00  0.00    -0.345 OA
BRANCH  10  11
HETATM   11  C   UNL     1       7.645  24.068  53.685  1.00  0.00     0.070 A 
HETATM   12  C   UNL     1       7.807  22.882  52.971  1.00  0.00     0.060 A 
HETATM   13  C   UNL     1       8.327  21.753  53.611  1.00  0.00     0.036 A 
HETATM   14 CL   UNL     1       8.512  20.287  52.728  1.00  0.00    -0.084 Cl
HETATM   15  C   UNL     1       8.700  21.799  54.954  1.00  0.00     0.024 A 
HETATM   16  C   UNL     1       8.557  22.989  55.664  1.00  0.00     0.004 A 
HETATM   17  C   UNL     1       8.034  24.116  55.029  1.00  0.00     0.037 A 
ENDBRANCH  10  11
ENDBRANCH   8  10
ENDBRANCH   7   8
ENDBRANCH   3   7
BRANCH   1  18
HETATM   18  C   UNL     1       2.877  27.555  47.857  1.00  0.00     0.059 A 
HETATM   19  C   UNL     1       2.847  28.805  47.221  1.00  0.00    -0.032 A 
HETATM   20  C   UNL     1       4.013  29.750  47.169  1.00  0.00     0.050 C 
HETATM   21  C   UNL     1       1.647  29.212  46.616  1.00  0.00     0.028 A 
HETATM   22  C   UNL     1       0.525  28.405  46.714  1.00  0.00     0.117 A 
HETATM   23  N   UNL     1       0.507  27.230  47.373  1.00  0.00    -0.271 NA
HETATM   24  C   UNL     1       1.678  26.840  47.926  1.00  0.00     0.146 A 
ENDBRANCH   1  18
TORSDOF 5
ENDMDL
MODEL 8
REMARK VINA RESULT:      -7.8      2.779      4.294
REMARK  5 active torsions:
REMARK  status: ('A' for Active; 'I' for Inactive)
REMARK    1  A    between atoms: C_3  and  N_4 
REMARK       I    between atoms: N_4  and  C_5 
REMARK       I    between atoms: C_5  and  N_6 
REMARK    2  A    between atoms: N_6  and  C_7 
REMARK    3  A    between atoms: C_7  and  C_8 
REMARK    4  A    between atoms: C_8  and  O_9 
REMARK    5  A    between atoms: O_9  and  C_10 
ROOT
HETATM    1  N   UNL     1       7.211  22.859  55.950  1.00  0.00    -0.307 N 
HETATM    2  C   UNL     1       7.902  23.955  56.420  1.00  0.00     0.320 C 
HETATM    3  N   UNL     1       7.087  24.745  57.198  1.00  0.00    -0.340 N 
HETATM    4  O   UNL     1       9.084  24.199  56.227  1.00  0.00    -0.247 OA
HETATM    5  H   UNL     1       6.614  22.460  56.663  1.00  0.00     0.170 HD
HETATM    6  H   UNL     1       6.094  24.664  57.034  1.00  0.00     0.164 HD
ENDROOT
BRANCH   3   7
HETATM    7  C   UNL     1       7.576  25.945  57.857  1.00  0.00     0.156 C 
BRANCH   7   8
HETATM    8  C   UNL     1       7.252  27.258  57.116  1.00  0.00     0.142 C 
HETATM    9  C   UNL     1       7.691  28.495  57.899  1.00  0.00     0.042 C 
BRANCH   8  10
HETATM   10  O   UNL     1       5.825  27.370  56.977  1.00  0.00    -0.345 OA
BRANCH  10  11
HETATM   11  C   UNL     1       5.287  27.537  55.734  1.00  0.00     0.070 A 
HETATM   12  C   UNL     1       5.442  26.682  54.644  1.00  0.00     0.060 A 
HETATM   13  C   UNL     1       4.830  26.994  53.426  1.00  0.00     0.036 A 
HETATM   14 CL   UNL     1       5.036  25.942  52.080  1.00  0.00    -0.084 Cl
HETATM   15  C   UNL     1       4.054  28.144  53.289  1.00  0.00     0.024 A 
HETATM   16  C   UNL     1       3.881  28.990  54.382  1.00  0.00     0.004 A 
HETATM   17  C   UNL     1       4.495  28.683  55.597  1.00  0.00     0.037 A 
ENDBRANCH  10  11
ENDBRANCH   8  10
ENDBRANCH   7   8
ENDBRANCH   3   7
BRANCH   1  18
HETATM   18  C   UNL     1       7.740  21.947  55.006  1.00  0.00     0.059 A 
HETATM   19  C   UNL     1       7.828  22.192  53.628  1.00  0.00    -0.032 A 
HETATM   20  C   UNL     1       7.316  23.437  52.961  1.00  0.00     0.050 C 
HETATM   21  C   UNL     1       8.406  21.205  52.815  1.00  0.00     0.028 A 
HETATM   22  C   UNL     1       8.815  20.007  53.381  1.00  0.00     0.117 A 
HETATM   23  N   UNL     1       8.685  19.719  54.690  1.00  0.00    -0.271 NA
HETATM   24  C   UNL     1       8.151  20.691  55.464  1.00  0.00     0.146 A 
ENDBRANCH   1  18
TORSDOF 5
ENDMDL
MODEL 9
REMARK VINA RESULT:      -7.7      4.080      8.106
REMARK  5 active torsions:
REMARK  status: ('A' for Active; 'I' for Inactive)
REMARK    1  A    between atoms: C_3  and  N_4 
REMARK       I    between atoms: N_4  and  C_5 
REMARK       I    between atoms: C_5  and  N_6 
REMARK    2  A    between atoms: N_6  and  C_7 
REMARK    3  A    between atoms: C_7  and  C_8 
REMARK    4  A    between atoms: C_8  and  O_9 
REMARK    5  A    between atoms: O_9  and  C_10 
ROOT
HETATM    1  N   UNL     1       5.424  28.239  56.496  1.00  0.00    -0.307 N 
HETATM    2  C   UNL     1       5.538  28.135  55.126  1.00  0.00     0.320 C 
HETATM    3  N   UNL     1       4.686  27.170  54.641  1.00  0.00    -0.340 N 
HETATM    4  O   UNL     1       6.253  28.818  54.408  1.00  0.00    -0.247 OA
HETATM    5  H   UNL     1       4.460  28.188  56.796  1.00  0.00     0.170 HD
HETATM    6  H   UNL     1       4.400  26.454  55.294  1.00  0.00     0.164 HD
ENDROOT
BRANCH   3   7
HETATM    7  C   UNL     1       4.571  26.885  53.220  1.00  0.00     0.156 C 
BRANCH   7   8
HETATM    8  C   UNL     1       5.686  25.981  52.657  1.00  0.00     0.142 C 
HETATM    9  C   UNL     1       5.623  25.852  51.136  1.00  0.00     0.042 C 
BRANCH   8  10
HETATM   10  O   UNL     1       5.503  24.649  53.169  1.00  0.00    -0.345 OA
BRANCH  10  11
HETATM   11  C   UNL     1       6.578  23.972  53.669  1.00  0.00     0.070 A 
HETATM   12  C   UNL     1       7.136  22.806  53.149  1.00  0.00     0.060 A 
HETATM   13  C   UNL     1       8.239  22.224  53.780  1.00  0.00     0.036 A 
HETATM   14 CL   UNL     1       8.915  20.775  53.142  1.00  0.00    -0.084 Cl
HETATM   15  C   UNL     1       8.801  22.803  54.917  1.00  0.00     0.024 A 
HETATM   16  C   UNL     1       8.258  23.980  55.427  1.00  0.00     0.004 A 
HETATM   17  C   UNL     1       7.154  24.560  54.802  1.00  0.00     0.037 A 
ENDBRANCH  10  11
ENDBRANCH   8  10
ENDBRANCH   7   8
ENDBRANCH   3   7
BRANCH   1  18
HETATM   18  C   UNL     1       6.277  29.040  57.292  1.00  0.00     0.059 A 
HETATM   19  C   UNL     1       7.545  28.644  57.744  1.00  0.00    -0.032 A 
HETATM   20  C   UNL     1       8.142  27.289  57.490  1.00  0.00     0.050 C 
HETATM   21  C   UNL     1       8.293  29.558  58.502  1.00  0.00     0.028 A 
HETATM   22  C   UNL     1       7.742  30.788  58.828  1.00  0.00     0.117 A 
HETATM   23  N   UNL     1       6.504  31.170  58.462  1.00  0.00    -0.271 NA
HETATM   24  C   UNL     1       5.806  30.289  57.709  1.00  0.00     0.146 A 
ENDBRANCH   1  18
TORSDOF 5
ENDMDL
MODEL 10
REMARK VINA RESULT:      -7.4      2.012      2.729
REMARK  5 active torsions:
REMARK  status: ('A' for Active; 'I' for Inactive)
REMARK    1  A    between atoms: C_3  and  N_4 
REMARK       I    between atoms: N_4  and  C_5 
REMARK       I    between atoms: C_5  and  N_6 
REMARK    2  A    between atoms: N_6  and  C_7 
REMARK    3  A    between atoms: C_7  and  C_8 
REMARK    4  A    between atoms: C_8  and  O_9 
REMARK    5  A    between atoms: O_9  and  C_10 
ROOT
HETATM    1  N   UNL     1       6.170  24.587  55.203  1.00  0.00    -0.307 N 
HETATM    2  C   UNL     1       6.151  25.922  54.858  1.00  0.00     0.320 C 
HETATM    3  N   UNL     1       4.964  26.504  55.240  1.00  0.00    -0.340 N 
HETATM    4  O   UNL     1       7.059  26.542  54.326  1.00  0.00    -0.247 OA
HETATM    5  H   UNL     1       5.779  24.434  56.123  1.00  0.00     0.170 HD
HETATM    6  H   UNL     1       4.175  25.884  55.354  1.00  0.00     0.164 HD
ENDROOT
BRANCH   3   7
HETATM    7  C   UNL     1       4.698  27.919  55.037  1.00  0.00     0.156 C 
BRANCH   7   8
HETATM    8  C   UNL     1       5.129  28.824  56.208  1.00  0.00     0.142 C 
HETATM    9  C   UNL     1       4.038  29.813  56.616  1.00  0.00     0.042 C 
BRANCH   8  10
HETATM   10  O   UNL     1       6.244  29.628  55.783  1.00  0.00    -0.345 OA
BRANCH  10  11
HETATM   11  C   UNL     1       7.365  29.678  56.561  1.00  0.00     0.070 A 
HETATM   12  C   UNL     1       7.420  30.010  57.913  1.00  0.00     0.060 A 
HETATM   13  C   UNL     1       8.651  30.022  58.575  1.00  0.00     0.036 A 
HETATM   14 CL   UNL     1       8.714  30.448  60.242  1.00  0.00    -0.084 Cl
HETATM   15  C   UNL     1       9.827  29.693  57.904  1.00  0.00     0.024 A 
HETATM   16  C   UNL     1       9.773  29.340  56.557  1.00  0.00     0.004 A 
HETATM   17  C   UNL     1       8.546  29.332  55.893  1.00  0.00     0.037 A 
ENDBRANCH  10  11
ENDBRANCH   8  10
ENDBRANCH   7   8
ENDBRANCH   3   7
BRANCH   1  18
HETATM   18  C   UNL     1       7.194  23.694  54.809  1.00  0.00     0.059 A 
HETATM   19  C   UNL     1       8.305  23.361  55.597  1.00  0.00    -0.032 A 
HETATM   20  C   UNL     1       8.586  23.957  56.947  1.00  0.00     0.050 C 
HETATM   21  C   UNL     1       9.227  22.433  55.087  1.00  0.00     0.028 A 
HETATM   22  C   UNL     1       9.046  21.924  53.810  1.00  0.00     0.117 A 
HETATM   23  N   UNL     1       8.024  22.273  53.006  1.00  0.00    -0.271 NA
HETATM   24  C   UNL     1       7.130  23.147  53.523  1.00  0.00     0.146 A 
ENDBRANCH   1  18
TORSDOF 5
ENDMDL
