MODEL 1
REMARK VINA RESULT:      -7.3      0.000      0.000
REMARK  5 active torsions:
REMARK  status: ('A' for Active; 'I' for Inactive)
REMARK    1  A    between atoms: C_7  and  C_8 
REMARK    2  A    between atoms: C_8  and  N_9 
REMARK    3  A    between atoms: C_12  and  C_13 
REMARK    4  A    between atoms: C_13  and  C_14 
REMARK    5  A    between atoms: C_14  and  O_15 
ROOT
HETATM    1  C   UNL     1       8.362  23.019  57.098  1.00  0.00     0.020 A 
HETATM    2  C   UNL     1       8.139  24.377  57.129  1.00  0.00     0.117 A 
HETATM    3  N   UNL     1       7.877  25.122  56.028  1.00  0.00    -0.260 NA
HETATM    4  C   UNL     1       7.866  24.502  54.826  1.00  0.00     0.076 A 
HETATM    5  C   UNL     1       8.067  23.110  54.682  1.00  0.00     0.011 A 
HETATM    6  C   UNL     1       8.318  22.382  55.864  1.00  0.00     0.016 A 
HETATM    7  C   UNL     1       7.621  25.280  53.690  1.00  0.00    -0.003 A 
HETATM    8  C   UNL     1       7.571  24.699  52.414  1.00  0.00     0.012 A 
HETATM    9  C   UNL     1       7.755  23.331  52.265  1.00  0.00     0.020 A 
HETATM   10  C   UNL     1       8.004  22.539  53.385  1.00  0.00     0.023 A 
HETATM   11 BR   UNL     1       8.242  20.676  53.073  1.00  0.00    -0.050 Br
ENDROOT
BRANCH   7  12
HETATM   12  C   UNL     1       7.448  26.773  53.830  1.00  0.00     0.275 C 
BRANCH  12  13
HETATM   13  N   UNL     1       6.126  27.186  54.425  1.00  0.00    -0.067 N 
HETATM   14  H   UNL     1       6.172  26.776  55.379  1.00  0.00     0.280 HD
HETATM   15  C   UNL     1       4.902  26.617  53.752  1.00  0.00     0.240 C 
HETATM   16  C   UNL     1       4.221  27.816  53.098  1.00  0.00     0.015 C 
HETATM   17  C   UNL     1       4.502  28.916  54.120  1.00  0.00     0.034 C 
HETATM   18  C   UNL     1       5.941  28.676  54.549  1.00  0.00     0.235 C 
BRANCH  16  19
HETATM   19  C   UNL     1       4.780  28.171  51.711  1.00  0.00     0.032 C 
BRANCH  19  20
HETATM   20  C   UNL     1       5.055  26.957  50.829  1.00  0.00     0.164 C 
BRANCH  20  21
HETATM   21  O   UNL     1       3.945  26.771  49.965  1.00  0.00    -0.401 OA
HETATM   22  H   UNL     1       4.201  26.130  49.277  1.00  0.00     0.209 HD
ENDBRANCH  20  21
ENDBRANCH  19  20
ENDBRANCH  16  19
ENDBRANCH  12  13
ENDBRANCH   7  12
TORSDOF 5
ENDMDL
MODEL 2
REMARK VINA RESULT:      -7.2      1.885      3.182
REMARK  5 active torsions:
REMARK  status: ('A' for Active; 'I' for Inactive)
REMARK    1  A    between atoms: C_7  and  C_8 
REMARK    2  A    between atoms: C_8  and  N_9 
REMARK    3  A    between atoms: C_12  and  C_13 
REMARK    4  A    between atoms: C_13  and  C_14 
REMARK    5  A    between atoms: C_14  and  O_15 
ROOT
HETATM    1  C   UNL     1       7.713  23.375  52.522  1.00  0.00     0.020 A 
HETATM    2  C   UNL     1       7.554  24.737  52.641  1.00  0.00     0.117 A 
HETATM    3  N   UNL     1       7.647  25.405  53.815  1.00  0.00    -0.260 NA
HETATM    4  C   UNL     1       7.878  24.691  54.940  1.00  0.00     0.076 A 
HETATM    5  C   UNL     1       8.073  23.290  54.929  1.00  0.00     0.011 A 
HETATM    6  C   UNL     1       7.982  22.649  53.675  1.00  0.00     0.016 A 
HETATM    7  C   UNL     1       7.947  25.382  56.153  1.00  0.00    -0.003 A 
HETATM    8  C   UNL     1       8.208  24.708  57.356  1.00  0.00     0.012 A 
HETATM    9  C   UNL     1       8.413  23.335  57.352  1.00  0.00     0.020 A 
HETATM   10  C   UNL     1       8.345  22.626  56.153  1.00  0.00     0.023 A 
HETATM   11 BR   UNL     1       8.641  20.749  56.256  1.00  0.00    -0.050 Br
ENDROOT
BRANCH   7  12
HETATM   12  C   UNL     1       7.697  26.871  56.180  1.00  0.00     0.275 C 
BRANCH  12  13
HETATM   13  N   UNL     1       6.501  27.279  57.001  1.00  0.00    -0.067 N 
HETATM   14  H   UNL     1       6.646  26.751  57.884  1.00  0.00     0.280 HD
HETATM   15  C   UNL     1       5.160  26.868  56.448  1.00  0.00     0.240 C 
HETATM   16  C   UNL     1       4.485  28.176  56.042  1.00  0.00     0.015 C 
HETATM   17  C   UNL     1       4.982  29.122  57.135  1.00  0.00     0.034 C 
HETATM   18  C   UNL     1       6.444  28.749  57.324  1.00  0.00     0.235 C 
BRANCH  16  19
HETATM   19  C   UNL     1       4.877  28.671  54.641  1.00  0.00     0.032 C 
BRANCH  19  20
HETATM   20  C   UNL     1       4.773  27.601  53.559  1.00  0.00     0.164 C 
BRANCH  20  21
HETATM   21  O   UNL     1       3.402  27.296  53.361  1.00  0.00    -0.401 OA
HETATM   22  H   UNL     1       3.108  27.738  52.544  1.00  0.00     0.209 HD
ENDBRANCH  20  21
ENDBRANCH  19  20
ENDBRANCH  16  19
ENDBRANCH  12  13
ENDBRANCH   7  12
TORSDOF 5
ENDMDL
MODEL 3
REMARK VINA RESULT:      -7.0      3.689      5.157
REMARK  5 active torsions:
REMARK  status: ('A' for Active; 'I' for Inactive)
REMARK    1  A    between atoms: C_7  and  C_8 
REMARK    2  A    between atoms: C_8  and  N_9 
REMARK    3  A    between atoms: C_12  and  C_13 
REMARK    4  A    between atoms: C_13  and  C_14 
REMARK    5  A    between atoms: C_14  and  O_15 
ROOT
HETATM    1  C   UNL     1       5.376  24.798  52.475  1.00  0.00     0.020 A 
HETATM    2  C   UNL     1       4.908  25.802  53.292  1.00  0.00     0.117 A 
HETATM    3  N   UNL     1       5.415  26.069  54.520  1.00  0.00    -0.260 NA
HETATM    4  C   UNL     1       6.415  25.286  54.982  1.00  0.00     0.076 A 
HETATM    5  C   UNL     1       6.981  24.237  54.219  1.00  0.00     0.011 A 
HETATM    6  C   UNL     1       6.425  24.015  52.941  1.00  0.00     0.016 A 
HETATM    7  C   UNL     1       6.917  25.550  56.261  1.00  0.00    -0.003 A 
HETATM    8  C   UNL     1       7.971  24.792  56.794  1.00  0.00     0.012 A 
HETATM    9  C   UNL     1       8.540  23.769  56.047  1.00  0.00     0.020 A 
HETATM   10  C   UNL     1       8.052  23.488  54.771  1.00  0.00     0.023 A 
HETATM   11 BR   UNL     1       8.900  22.068  53.830  1.00  0.00    -0.050 Br
ENDROOT
BRANCH   7  12
HETATM   12  C   UNL     1       6.291  26.638  57.099  1.00  0.00     0.275 C 
BRANCH  12  13
HETATM   13  N   UNL     1       6.294  27.996  56.446  1.00  0.00    -0.067 N 
HETATM   14  H   UNL     1       5.829  27.808  55.535  1.00  0.00     0.280 HD
HETATM   15  C   UNL     1       7.656  28.570  56.142  1.00  0.00     0.240 C 
HETATM   16  C   UNL     1       7.797  29.764  57.082  1.00  0.00     0.015 C 
HETATM   17  C   UNL     1       6.363  30.292  57.116  1.00  0.00     0.034 C 
HETATM   18  C   UNL     1       5.500  29.041  57.184  1.00  0.00     0.235 C 
BRANCH  16  19
HETATM   19  C   UNL     1       8.300  29.395  58.487  1.00  0.00     0.032 C 
BRANCH  19  20
HETATM   20  C   UNL     1       8.130  30.510  59.514  1.00  0.00     0.164 C 
BRANCH  20  21
HETATM   21  O   UNL     1       8.607  30.044  60.765  1.00  0.00    -0.401 OA
HETATM   22  H   UNL     1       8.400  30.717  61.439  1.00  0.00     0.209 HD
ENDBRANCH  20  21
ENDBRANCH  19  20
ENDBRANCH  16  19
ENDBRANCH  12  13
ENDBRANCH   7  12
TORSDOF 5
ENDMDL
MODEL 4
REMARK VINA RESULT:      -6.9      1.551      2.112
REMARK  5 active torsions:
REMARK  status: ('A' for Active; 'I' for Inactive)
REMARK    1  A    between atoms: C_7  and  C_8 
REMARK    2  A    between atoms: C_8  and  N_9 
REMARK    3  A    between atoms: C_12  and  C_13 
REMARK    4  A    between atoms: C_13  and  C_14 
REMARK    5  A    between atoms: C_14  and  O_15 
ROOT
HETATM    1  C   UNL     1       8.027  25.284  57.346  1.00  0.00     0.020 A 
HETATM    2  C   UNL     1       7.616  26.292  56.503  1.00  0.00     0.117 A 
HETATM    3  N   UNL     1       7.444  26.133  55.169  1.00  0.00    -0.260 NA
HETATM    4  C   UNL     1       7.722  24.925  54.628  1.00  0.00     0.076 A 
HETATM    5  C   UNL     1       8.136  23.817  55.405  1.00  0.00     0.011 A 
HETATM    6  C   UNL     1       8.282  24.036  56.791  1.00  0.00     0.016 A 
HETATM    7  C   UNL     1       7.568  24.773  53.247  1.00  0.00    -0.003 A 
HETATM    8  C   UNL     1       7.816  23.541  52.623  1.00  0.00     0.012 A 
HETATM    9  C   UNL     1       8.210  22.446  53.379  1.00  0.00     0.020 A 
HETATM   10  C   UNL     1       8.373  22.577  54.757  1.00  0.00     0.023 A 
HETATM   11 BR   UNL     1       8.915  21.016  55.702  1.00  0.00    -0.050 Br
ENDROOT
BRANCH   7  12
HETATM   12  C   UNL     1       7.169  25.962  52.405  1.00  0.00     0.275 C 
BRANCH  12  13
HETATM   13  N   UNL     1       5.685  26.220  52.371  1.00  0.00    -0.067 N 
HETATM   14  H   UNL     1       5.336  25.630  53.152  1.00  0.00     0.280 HD
HETATM   15  C   UNL     1       4.974  25.771  51.119  1.00  0.00     0.240 C 
HETATM   16  C   UNL     1       4.536  27.062  50.432  1.00  0.00     0.015 C 
HETATM   17  C   UNL     1       4.197  27.943  51.634  1.00  0.00     0.034 C 
HETATM   18  C   UNL     1       5.299  27.651  52.640  1.00  0.00     0.235 C 
BRANCH  16  19
HETATM   19  C   UNL     1       5.622  27.698  49.550  1.00  0.00     0.032 C 
BRANCH  19  20
HETATM   20  C   UNL     1       5.185  27.928  48.106  1.00  0.00     0.164 C 
BRANCH  20  21
HETATM   21  O   UNL     1       5.517  26.775  47.349  1.00  0.00    -0.401 OA
HETATM   22  H   UNL     1       5.074  26.843  46.483  1.00  0.00     0.209 HD
ENDBRANCH  20  21
ENDBRANCH  19  20
ENDBRANCH  16  19
ENDBRANCH  12  13
ENDBRANCH   7  12
TORSDOF 5
ENDMDL
MODEL 5
REMARK VINA RESULT:      -6.9      2.647      3.421
REMARK  5 active torsions:
REMARK  status: ('A' for Active; 'I' for Inactive)
REMARK    1  A    between atoms: C_7  and  C_8 
REMARK    2  A    between atoms: C_8  and  N_9 
REMARK    3  A    between atoms: C_12  and  C_13 
REMARK    4  A    between atoms: C_13  and  C_14 
REMARK    5  A    between atoms: C_14  and  O_15 
ROOT
HETATM    1  C   UNL     1       8.567  21.064  57.116  1.00  0.00     0.020 A 
HETATM    2  C   UNL     1       8.335  22.298  57.682  1.00  0.00     0.117 A 
HETATM    3  N   UNL     1       8.017  23.404  56.969  1.00  0.00    -0.260 NA
HETATM    4  C   UNL     1       7.954  23.300  55.622  1.00  0.00     0.076 A 
HETATM    5  C   UNL     1       8.159  22.078  54.940  1.00  0.00     0.011 A 
HETATM    6  C   UNL     1       8.471  20.955  55.735  1.00  0.00     0.016 A 
HETATM    7  C   UNL     1       7.651  24.451  54.889  1.00  0.00    -0.003 A 
HETATM    8  C   UNL     1       7.545  24.411  53.490  1.00  0.00     0.012 A 
HETATM    9  C   UNL     1       7.733  23.213  52.814  1.00  0.00     0.020 A 
HETATM   10  C   UNL     1       8.040  22.055  53.526  1.00  0.00     0.023 A 
HETATM   11 BR   UNL     1       8.276  20.466  52.506  1.00  0.00    -0.050 Br
ENDROOT
BRANCH   7  12
HETATM   12  C   UNL     1       7.473  25.768  55.606  1.00  0.00     0.275 C 
BRANCH  12  13
HETATM   13  N   UNL     1       6.889  26.861  54.749  1.00  0.00    -0.067 N 
HETATM   14  H   UNL     1       7.146  26.556  53.790  1.00  0.00     0.280 HD
HETATM   15  C   UNL     1       7.478  28.235  54.953  1.00  0.00     0.240 C 
HETATM   16  C   UNL     1       6.355  29.053  55.586  1.00  0.00     0.015 C 
HETATM   17  C   UNL     1       5.128  28.475  54.882  1.00  0.00     0.034 C 
HETATM   18  C   UNL     1       5.389  26.978  54.831  1.00  0.00     0.235 C 
BRANCH  16  19
HETATM   19  C   UNL     1       6.258  28.901  57.113  1.00  0.00     0.032 C 
BRANCH  19  20
HETATM   20  C   UNL     1       7.606  28.960  57.824  1.00  0.00     0.164 C 
BRANCH  20  21
HETATM   21  O   UNL     1       7.820  27.721  58.480  1.00  0.00    -0.401 OA
HETATM   22  H   UNL     1       7.146  27.626  59.177  1.00  0.00     0.209 HD
ENDBRANCH  20  21
ENDBRANCH  19  20
ENDBRANCH  16  19
ENDBRANCH  12  13
ENDBRANCH   7  12
TORSDOF 5
ENDMDL
MODEL 6
REMARK VINA RESULT:      -6.7      1.955      2.652
REMARK  5 active torsions:
REMARK  status: ('A' for Active; 'I' for Inactive)
REMARK    1  A    between atoms: C_7  and  C_8 
REMARK    2  A    between atoms: C_8  and  N_9 
REMARK    3  A    between atoms: C_12  and  C_13 
REMARK    4  A    between atoms: C_13  and  C_14 
REMARK    5  A    between atoms: C_14  and  O_15 
ROOT
HETATM    1  C   UNL     1       8.328  24.405  57.423  1.00  0.00     0.020 A 
HETATM    2  C   UNL     1       8.084  25.426  56.532  1.00  0.00     0.117 A 
HETATM    3  N   UNL     1       7.943  25.242  55.197  1.00  0.00    -0.260 NA
HETATM    4  C   UNL     1       8.081  23.989  54.707  1.00  0.00     0.076 A 
HETATM    5  C   UNL     1       8.317  22.866  55.535  1.00  0.00     0.011 A 
HETATM    6  C   UNL     1       8.437  23.115  56.918  1.00  0.00     0.016 A 
HETATM    7  C   UNL     1       7.960  23.808  53.326  1.00  0.00    -0.003 A 
HETATM    8  C   UNL     1       8.068  22.532  52.752  1.00  0.00     0.012 A 
HETATM    9  C   UNL     1       8.287  21.423  53.558  1.00  0.00     0.020 A 
HETATM   10  C   UNL     1       8.414  21.583  54.937  1.00  0.00     0.023 A 
HETATM   11 BR   UNL     1       8.711  20.001  55.953  1.00  0.00    -0.050 Br
ENDROOT
BRANCH   7  12
HETATM   12  C   UNL     1       7.752  25.006  52.431  1.00  0.00     0.275 C 
BRANCH  12  13
HETATM   13  N   UNL     1       6.332  25.181  51.958  1.00  0.00    -0.067 N 
HETATM   14  H   UNL     1       6.301  24.574  51.115  1.00  0.00     0.280 HD
HETATM   15  C   UNL     1       5.959  26.575  51.518  1.00  0.00     0.240 C 
HETATM   16  C   UNL     1       4.961  27.062  52.565  1.00  0.00     0.015 C 
HETATM   17  C   UNL     1       4.208  25.772  52.887  1.00  0.00     0.034 C 
HETATM   18  C   UNL     1       5.290  24.704  52.935  1.00  0.00     0.235 C 
BRANCH  16  19
HETATM   19  C   UNL     1       5.615  27.666  53.818  1.00  0.00     0.032 C 
BRANCH  19  20
HETATM   20  C   UNL     1       6.859  28.499  53.521  1.00  0.00     0.164 C 
BRANCH  20  21
HETATM   21  O   UNL     1       7.907  28.054  54.366  1.00  0.00    -0.401 OA
HETATM   22  H   UNL     1       8.009  28.700  55.089  1.00  0.00     0.209 HD
ENDBRANCH  20  21
ENDBRANCH  19  20
ENDBRANCH  16  19
ENDBRANCH  12  13
ENDBRANCH   7  12
TORSDOF 5
ENDMDL
MODEL 7
REMARK VINA RESULT:      -6.5      3.436      5.994
REMARK  5 active torsions:
REMARK  status: ('A' for Active; 'I' for Inactive)
REMARK    1  A    between atoms: C_7  and  C_8 
REMARK    2  A    between atoms: C_8  and  N_9 
REMARK    3  A    between atoms: C_12  and  C_13 
REMARK    4  A    between atoms: C_13  and  C_14 
REMARK    5  A    between atoms: C_14  and  O_15 
ROOT
HETATM    1  C   UNL     1       4.232  30.528  55.615  1.00  0.00     0.020 A 
HETATM    2  C   UNL     1       4.042  29.305  55.012  1.00  0.00     0.117 A 
HETATM    3  N   UNL     1       4.801  28.213  55.269  1.00  0.00    -0.260 NA
HETATM    4  C   UNL     1       5.824  28.338  56.144  1.00  0.00     0.076 A 
HETATM    5  C   UNL     1       6.099  29.544  56.832  1.00  0.00     0.011 A 
HETATM    6  C   UNL     1       5.265  30.643  56.537  1.00  0.00     0.016 A 
HETATM    7  C   UNL     1       6.621  27.215  56.387  1.00  0.00    -0.003 A 
HETATM    8  C   UNL     1       7.684  27.267  57.301  1.00  0.00     0.012 A 
HETATM    9  C   UNL     1       7.953  28.442  57.988  1.00  0.00     0.020 A 
HETATM   10  C   UNL     1       7.172  29.575  57.759  1.00  0.00     0.023 A 
HETATM   11 BR   UNL     1       7.622  31.134  58.752  1.00  0.00    -0.050 Br
ENDROOT
BRANCH   7  12
HETATM   12  C   UNL     1       6.362  25.937  55.625  1.00  0.00     0.275 C 
BRANCH  12  13
HETATM   13  N   UNL     1       7.494  25.519  54.722  1.00  0.00    -0.067 N 
HETATM   14  H   UNL     1       8.331  25.746  55.294  1.00  0.00     0.280 HD
HETATM   15  C   UNL     1       7.613  26.287  53.429  1.00  0.00     0.240 C 
HETATM   16  C   UNL     1       7.261  25.278  52.340  1.00  0.00     0.015 C 
HETATM   17  C   UNL     1       7.856  23.993  52.915  1.00  0.00     0.034 C 
HETATM   18  C   UNL     1       7.516  24.049  54.397  1.00  0.00     0.235 C 
BRANCH  16  19
HETATM   19  C   UNL     1       5.752  25.140  52.082  1.00  0.00     0.032 C 
BRANCH  19  20
HETATM   20  C   UNL     1       4.999  26.466  52.112  1.00  0.00     0.164 C 
BRANCH  20  21
HETATM   21  O   UNL     1       3.950  26.363  53.061  1.00  0.00    -0.401 OA
HETATM   22  H   UNL     1       3.130  26.687  52.644  1.00  0.00     0.209 HD
ENDBRANCH  20  21
ENDBRANCH  19  20
ENDBRANCH  16  19
ENDBRANCH  12  13
ENDBRANCH   7  12
TORSDOF 5
ENDMDL
MODEL 8
REMARK VINA RESULT:      -6.4      3.747      6.102
REMARK  5 active torsions:
REMARK  status: ('A' for Active; 'I' for Inactive)
REMARK    1  A    between atoms: C_7  and  C_8 
REMARK    2  A    between atoms: C_8  and  N_9 
REMARK    3  A    between atoms: C_12  and  C_13 
REMARK    4  A    between atoms: C_13  and  C_14 
REMARK    5  A    between atoms: C_14  and  O_15 
ROOT
HETATM    1  C   UNL     1       7.786  29.391  58.132  1.00  0.00     0.020 A 
HETATM    2  C   UNL     1       8.618  28.574  57.399  1.00  0.00     0.117 A 
HETATM    3  N   UNL     1       8.263  27.998  56.226  1.00  0.00    -0.260 NA
HETATM    4  C   UNL     1       7.010  28.209  55.764  1.00  0.00     0.076 A 
HETATM    5  C   UNL     1       6.080  29.042  56.429  1.00  0.00     0.011 A 
HETATM    6  C   UNL     1       6.510  29.630  57.637  1.00  0.00     0.016 A 
HETATM    7  C   UNL     1       6.640  27.590  54.565  1.00  0.00    -0.003 A 
HETATM    8  C   UNL     1       5.364  27.785  54.015  1.00  0.00     0.012 A 
HETATM    9  C   UNL     1       4.450  28.611  54.655  1.00  0.00     0.020 A 
HETATM   10  C   UNL     1       4.798  29.235  55.852  1.00  0.00     0.023 A 
HETATM   11 BR   UNL     1       3.474  30.347  56.649  1.00  0.00    -0.050 Br
ENDROOT
BRANCH   7  12
HETATM   12  C   UNL     1       7.611  26.665  53.872  1.00  0.00     0.275 C 
BRANCH  12  13
HETATM   13  N   UNL     1       7.000  25.367  53.409  1.00  0.00    -0.067 N 
HETATM   14  H   UNL     1       6.195  25.690  52.837  1.00  0.00     0.280 HD
HETATM   15  C   UNL     1       6.448  24.482  54.499  1.00  0.00     0.240 C 
HETATM   16  C   UNL     1       7.369  23.265  54.520  1.00  0.00     0.015 C 
HETATM   17  C   UNL     1       7.696  23.109  53.035  1.00  0.00     0.034 C 
HETATM   18  C   UNL     1       7.904  24.532  52.541  1.00  0.00     0.235 C 
BRANCH  16  19
HETATM   19  C   UNL     1       8.639  23.459  55.364  1.00  0.00     0.032 C 
BRANCH  19  20
HETATM   20  C   UNL     1       8.363  23.716  56.842  1.00  0.00     0.164 C 
BRANCH  20  21
HETATM   21  O   UNL     1       8.736  25.051  57.142  1.00  0.00    -0.401 OA
HETATM   22  H   UNL     1       7.997  25.635  56.892  1.00  0.00     0.209 HD
ENDBRANCH  20  21
ENDBRANCH  19  20
ENDBRANCH  16  19
ENDBRANCH  12  13
ENDBRANCH   7  12
TORSDOF 5
ENDMDL
MODEL 9
REMARK VINA RESULT:      -6.4      8.031     10.159
REMARK  5 active torsions:
REMARK  status: ('A' for Active; 'I' for Inactive)
REMARK    1  A    between atoms: C_7  and  C_8 
REMARK    2  A    between atoms: C_8  and  N_9 
REMARK    3  A    between atoms: C_12  and  C_13 
REMARK    4  A    between atoms: C_13  and  C_14 
REMARK    5  A    between atoms: C_14  and  O_15 
ROOT
HETATM    1  C   UNL     1       7.713  32.606  63.611  1.00  0.00     0.020 A 
HETATM    2  C   UNL     1       8.464  32.136  62.557  1.00  0.00     0.117 A 
HETATM    3  N   UNL     1       8.006  32.054  61.285  1.00  0.00    -0.260 NA
HETATM    4  C   UNL     1       6.728  32.425  61.041  1.00  0.00     0.076 A 
HETATM    5  C   UNL     1       5.875  32.937  62.047  1.00  0.00     0.011 A 
HETATM    6  C   UNL     1       6.411  33.016  63.350  1.00  0.00     0.016 A 
HETATM    7  C   UNL     1       6.252  32.314  59.731  1.00  0.00    -0.003 A 
HETATM    8  C   UNL     1       4.945  32.703  59.402  1.00  0.00     0.012 A 
HETATM    9  C   UNL     1       4.105  33.218  60.380  1.00  0.00     0.020 A 
HETATM   10  C   UNL     1       4.560  33.334  61.693  1.00  0.00     0.023 A 
HETATM   11 BR   UNL     1       3.333  34.052  62.958  1.00  0.00    -0.050 Br
ENDROOT
BRANCH   7  12
HETATM   12  C   UNL     1       7.141  31.728  58.660  1.00  0.00     0.275 C 
BRANCH  12  13
HETATM   13  N   UNL     1       7.040  30.230  58.528  1.00  0.00    -0.067 N 
HETATM   14  H   UNL     1       6.330  29.989  59.248  1.00  0.00     0.280 HD
HETATM   15  C   UNL     1       8.294  29.460  58.862  1.00  0.00     0.240 C 
HETATM   16  C   UNL     1       8.759  28.874  57.532  1.00  0.00     0.015 C 
HETATM   17  C   UNL     1       7.424  28.563  56.856  1.00  0.00     0.034 C 
HETATM   18  C   UNL     1       6.545  29.759  57.186  1.00  0.00     0.235 C 
BRANCH  16  19
HETATM   19  C   UNL     1       9.612  29.836  56.690  1.00  0.00     0.032 C 
BRANCH  19  20
HETATM   20  C   UNL     1      10.779  30.453  57.454  1.00  0.00     0.164 C 
BRANCH  20  21
HETATM   21  O   UNL     1      11.971  29.797  57.056  1.00  0.00    -0.401 OA
HETATM   22  H   UNL     1      12.139  30.014  56.121  1.00  0.00     0.209 HD
ENDBRANCH  20  21
ENDBRANCH  19  20
ENDBRANCH  16  19
ENDBRANCH  12  13
ENDBRANCH   7  12
TORSDOF 5
ENDMDL
MODEL 10
REMARK VINA RESULT:      -6.4     10.731     12.789
REMARK  5 active torsions:
REMARK  status: ('A' for Active; 'I' for Inactive)
REMARK    1  A    between atoms: C_7  and  C_8 
REMARK    2  A    between atoms: C_8  and  N_9 
REMARK    3  A    between atoms: C_12  and  C_13 
REMARK    4  A    between atoms: C_13  and  C_14 
REMARK    5  A    between atoms: C_14  and  O_15 
ROOT
HETATM    1  C   UNL     1       5.224  32.088  58.504  1.00  0.00     0.020 A 
HETATM    2  C   UNL     1       4.421  32.310  59.599  1.00  0.00     0.117 A 
HETATM    3  N   UNL     1       4.889  32.415  60.866  1.00  0.00    -0.260 NA
HETATM    4  C   UNL     1       6.217  32.263  61.071  1.00  0.00     0.076 A 
HETATM    5  C   UNL     1       7.134  32.047  60.016  1.00  0.00     0.011 A 
HETATM    6  C   UNL     1       6.592  31.963  58.715  1.00  0.00     0.016 A 
HETATM    7  C   UNL     1       6.692  32.347  62.384  1.00  0.00    -0.003 A 
HETATM    8  C   UNL     1       8.061  32.222  62.666  1.00  0.00     0.012 A 
HETATM    9  C   UNL     1       8.968  32.022  61.635  1.00  0.00     0.020 A 
HETATM   10  C   UNL     1       8.515  31.932  60.320  1.00  0.00     0.023 A 
HETATM   11 BR   UNL     1       9.839  31.659  58.980  1.00  0.00    -0.050 Br
ENDROOT
BRANCH   7  12
HETATM   12  C   UNL     1       5.716  32.533  63.520  1.00  0.00     0.275 C 
BRANCH  12  13
HETATM   13  N   UNL     1       5.154  33.927  63.626  1.00  0.00    -0.067 N 
HETATM   14  H   UNL     1       5.088  34.219  62.631  1.00  0.00     0.280 HD
HETATM   15  C   UNL     1       6.032  34.932  64.329  1.00  0.00     0.240 C 
HETATM   16  C   UNL     1       5.295  35.259  65.625  1.00  0.00     0.015 C 
HETATM   17  C   UNL     1       3.839  35.202  65.165  1.00  0.00     0.034 C 
HETATM   18  C   UNL     1       3.780  33.997  64.240  1.00  0.00     0.235 C 
BRANCH  16  19
HETATM   19  C   UNL     1       5.570  34.267  66.766  1.00  0.00     0.032 C 
BRANCH  19  20
HETATM   20  C   UNL     1       4.401  34.101  67.732  1.00  0.00     0.164 C 
BRANCH  20  21
HETATM   21  O   UNL     1       4.833  33.309  68.826  1.00  0.00    -0.401 OA
HETATM   22  H   UNL     1       4.705  33.826  69.643  1.00  0.00     0.209 HD
ENDBRANCH  20  21
ENDBRANCH  19  20
ENDBRANCH  16  19
ENDBRANCH  12  13
ENDBRANCH   7  12
TORSDOF 5
ENDMDL
