MODEL 1
REMARK VINA RESULT:     -11.1      0.000      0.000
REMARK  9 active torsions:
REMARK  status: ('A' for Active; 'I' for Inactive)
REMARK    1  A    between atoms: C_8  and  C_9 
REMARK    2  A    between atoms: C_9  and  C_10 
REMARK    3  A    between atoms: N_14  and  C_15 
REMARK    4  A    between atoms: C_15  and  C_16 
REMARK    5  A    between atoms: C_27  and  N_28 
REMARK    6  A    between atoms: N_28  and  C_29 
REMARK    7  A    between atoms: C_29  and  C_30 
REMARK    8  A    between atoms: C_30  and  O_31 
REMARK    9  A    between atoms: C_30  and  C_32 
ROOT
HETATM    1  C   UNL     1       3.075  25.246  47.182  1.00  0.00     0.052 C 
HETATM    2  C   UNL     1       2.531  26.494  47.803  1.00  0.00    -0.015 A 
HETATM    3  C   UNL     1       3.289  27.086  48.961  1.00  0.00     0.144 A 
HETATM    4  N   UNL     1       4.313  26.452  49.437  1.00  0.00    -0.217 NA
HETATM    5  N   UNL     1       2.839  28.297  49.459  1.00  0.00    -0.272 N 
HETATM    6  C   UNL     1       3.529  28.913  50.489  1.00  0.00     0.266 A 
HETATM    7  O   UNL     1       3.176  29.967  51.026  1.00  0.00    -0.267 OA
HETATM    8  C   UNL     1       4.769  28.229  50.957  1.00  0.00     0.074 A 
HETATM    9  C   UNL     1       5.045  27.005  50.450  1.00  0.00     0.121 A 
HETATM   10  C   UNL     1       1.685  28.894  48.963  1.00  0.00     0.102 A 
HETATM   11  C   UNL     1       0.982  28.347  47.965  1.00  0.00     0.018 A 
HETATM   12  C   UNL     1       1.432  27.124  47.358  1.00  0.00     0.012 A 
ENDROOT
BRANCH   8  13
HETATM   13  C   UNL     1       5.607  28.925  51.926  1.00  0.00     0.045 C 
BRANCH  13  14
HETATM   14  C   UNL     1       5.563  28.764  53.255  1.00  0.00     0.077 A 
HETATM   15  S   UNL     1       4.312  29.244  54.329  1.00  0.00    -0.055 SA
HETATM   16  C   UNL     1       5.244  28.815  55.756  1.00  0.00     0.149 A 
HETATM   17  S   UNL     1       4.690  29.159  57.292  1.00  0.00    -0.052 SA
HETATM   18  N   UNL     1       6.429  28.220  55.379  1.00  0.00    -0.294 N 
HETATM   19  C   UNL     1       6.684  28.158  54.018  1.00  0.00     0.266 A 
HETATM   20  O   UNL     1       7.704  27.736  53.491  1.00  0.00    -0.266 OA
BRANCH  18  21
HETATM   21  C   UNL     1       7.440  27.716  56.305  1.00  0.00     0.172 C 
BRANCH  21  22
HETATM   22  C   UNL     1       8.317  28.819  56.859  1.00  0.00    -0.037 A 
HETATM   23  C   UNL     1       7.978  29.451  58.069  1.00  0.00     0.048 A 
HETATM   24  C   UNL     1       8.805  30.451  58.537  1.00  0.00     0.105 A 
HETATM   25  C   UNL     1       9.931  30.840  57.853  1.00  0.00     0.105 A 
HETATM   26  O   UNL     1       8.630  31.152  59.689  1.00  0.00    -0.323 OA
HETATM   27  O   UNL     1      10.606  31.838  58.486  1.00  0.00    -0.323 OA
HETATM   28  C   UNL     1      10.296  30.252  56.664  1.00  0.00     0.040 A 
HETATM   29  C   UNL     1       9.779  32.024  59.654  1.00  0.00     0.352 A 
HETATM   30  C   UNL     1       9.480  29.229  56.167  1.00  0.00     0.012 A 
ENDBRANCH  21  22
ENDBRANCH  18  21
ENDBRANCH  13  14
ENDBRANCH   8  13
BRANCH   9  31
HETATM   31  N   UNL     1       6.120  26.234  50.876  1.00  0.00    -0.274 NA
HETATM   32  H   UNL     1       6.626  25.927  50.039  1.00  0.00     0.129 HD
BRANCH  31  33
HETATM   33  C   UNL     1       6.001  25.149  51.860  1.00  0.00     0.130 C 
BRANCH  33  34
HETATM   34  C   UNL     1       7.352  24.414  52.054  1.00  0.00     0.164 C 
BRANCH  34  35
HETATM   35  O   UNL     1       8.423  25.367  52.136  1.00  0.00    -0.390 OA
HETATM   36  H   UNL     1       8.027  26.254  52.197  1.00  0.00     0.210 HD
ENDBRANCH  34  35
BRANCH  34  37
HETATM   37  C   UNL     1       7.475  23.472  53.236  1.00  0.00    -0.029 A 
HETATM   38  C   UNL     1       7.826  22.119  53.121  1.00  0.00     0.010 A 
HETATM   39  C   UNL     1       7.928  21.305  54.253  1.00  0.00     0.001 A 
HETATM   40  C   UNL     1       7.679  21.829  55.519  1.00  0.00     0.000 A 
HETATM   41  C   UNL     1       7.320  23.168  55.654  1.00  0.00     0.001 A 
HETATM   42  C   UNL     1       7.217  23.980  54.523  1.00  0.00     0.010 A 
ENDBRANCH  34  37
ENDBRANCH  33  34
ENDBRANCH  31  33
ENDBRANCH   9  31
TORSDOF 9
ENDMDL
MODEL 2
REMARK VINA RESULT:     -10.2      1.839      2.306
REMARK  9 active torsions:
REMARK  status: ('A' for Active; 'I' for Inactive)
REMARK    1  A    between atoms: C_8  and  C_9 
REMARK    2  A    between atoms: C_9  and  C_10 
REMARK    3  A    between atoms: N_14  and  C_15 
REMARK    4  A    between atoms: C_15  and  C_16 
REMARK    5  A    between atoms: C_27  and  N_28 
REMARK    6  A    between atoms: N_28  and  C_29 
REMARK    7  A    between atoms: C_29  and  C_30 
REMARK    8  A    between atoms: C_30  and  O_31 
REMARK    9  A    between atoms: C_30  and  C_32 
ROOT
HETATM    1  C   UNL     1       3.211  25.177  47.454  1.00  0.00     0.052 C 
HETATM    2  C   UNL     1       2.480  26.465  47.674  1.00  0.00    -0.015 A 
HETATM    3  C   UNL     1       2.989  27.381  48.755  1.00  0.00     0.144 A 
HETATM    4  N   UNL     1       3.964  26.987  49.511  1.00  0.00    -0.217 NA
HETATM    5  N   UNL     1       2.374  28.615  48.879  1.00  0.00    -0.272 N 
HETATM    6  C   UNL     1       2.836  29.519  49.821  1.00  0.00     0.266 A 
HETATM    7  O   UNL     1       2.322  30.620  50.035  1.00  0.00    -0.267 OA
HETATM    8  C   UNL     1       4.028  29.098  50.612  1.00  0.00     0.074 A 
HETATM    9  C   UNL     1       4.474  27.830  50.458  1.00  0.00     0.121 A 
HETATM   10  C   UNL     1       1.278  28.954  48.094  1.00  0.00     0.102 A 
HETATM   11  C   UNL     1       0.793  28.123  47.164  1.00  0.00     0.018 A 
HETATM   12  C   UNL     1       1.427  26.853  46.938  1.00  0.00     0.012 A 
ENDROOT
BRANCH   8  13
HETATM   13  C   UNL     1       4.640  30.082  51.498  1.00  0.00     0.045 C 
BRANCH  13  14
HETATM   14  C   UNL     1       4.158  30.468  52.688  1.00  0.00     0.077 A 
HETATM   15  S   UNL     1       3.508  31.999  53.110  1.00  0.00    -0.055 SA
HETATM   16  C   UNL     1       3.383  31.581  54.812  1.00  0.00     0.149 A 
HETATM   17  S   UNL     1       2.931  32.712  55.954  1.00  0.00    -0.052 SA
HETATM   18  N   UNL     1       3.731  30.260  54.996  1.00  0.00    -0.294 N 
HETATM   19  C   UNL     1       4.177  29.577  53.876  1.00  0.00     0.266 A 
HETATM   20  O   UNL     1       4.595  28.428  53.847  1.00  0.00    -0.266 OA
BRANCH  18  21
HETATM   21  C   UNL     1       3.721  29.567  56.282  1.00  0.00     0.172 C 
BRANCH  21  22
HETATM   22  C   UNL     1       5.088  29.530  56.931  1.00  0.00    -0.037 A 
HETATM   23  C   UNL     1       5.665  30.711  57.433  1.00  0.00     0.048 A 
HETATM   24  C   UNL     1       6.912  30.631  58.015  1.00  0.00     0.105 A 
HETATM   25  C   UNL     1       7.596  29.443  58.107  1.00  0.00     0.105 A 
HETATM   26  O   UNL     1       7.603  31.670  58.558  1.00  0.00    -0.323 OA
HETATM   27  O   UNL     1       8.804  29.583  58.716  1.00  0.00    -0.323 OA
HETATM   28  C   UNL     1       7.071  28.267  57.624  1.00  0.00     0.040 A 
HETATM   29  C   UNL     1       8.797  30.997  59.007  1.00  0.00     0.352 A 
HETATM   30  C   UNL     1       5.803  28.314  57.034  1.00  0.00     0.012 A 
ENDBRANCH  21  22
ENDBRANCH  18  21
ENDBRANCH  13  14
ENDBRANCH   8  13
BRANCH   9  31
HETATM   31  N   UNL     1       5.518  27.298  51.206  1.00  0.00    -0.274 NA
HETATM   32  H   UNL     1       6.386  27.721  50.863  1.00  0.00     0.129 HD
BRANCH  31  33
HETATM   33  C   UNL     1       5.684  25.860  51.458  1.00  0.00     0.130 C 
BRANCH  33  34
HETATM   34  C   UNL     1       5.577  25.537  52.970  1.00  0.00     0.164 C 
BRANCH  34  35
HETATM   35  O   UNL     1       4.217  25.233  53.313  1.00  0.00    -0.390 OA
HETATM   36  H   UNL     1       3.726  25.092  52.484  1.00  0.00     0.210 HD
ENDBRANCH  34  35
BRANCH  34  37
HETATM   37  C   UNL     1       6.454  24.425  53.514  1.00  0.00    -0.029 A 
HETATM   38  C   UNL     1       7.188  23.547  52.704  1.00  0.00     0.010 A 
HETATM   39  C   UNL     1       7.983  22.545  53.268  1.00  0.00     0.001 A 
HETATM   40  C   UNL     1       8.055  22.402  54.651  1.00  0.00     0.000 A 
HETATM   41  C   UNL     1       7.326  23.258  55.473  1.00  0.00     0.001 A 
HETATM   42  C   UNL     1       6.532  24.258  54.908  1.00  0.00     0.010 A 
ENDBRANCH  34  37
ENDBRANCH  33  34
ENDBRANCH  31  33
ENDBRANCH   9  31
TORSDOF 9
ENDMDL
MODEL 3
REMARK VINA RESULT:     -10.1      2.449      9.196
REMARK  9 active torsions:
REMARK  status: ('A' for Active; 'I' for Inactive)
REMARK    1  A    between atoms: C_8  and  C_9 
REMARK    2  A    between atoms: C_9  and  C_10 
REMARK    3  A    between atoms: N_14  and  C_15 
REMARK    4  A    between atoms: C_15  and  C_16 
REMARK    5  A    between atoms: C_27  and  N_28 
REMARK    6  A    between atoms: N_28  and  C_29 
REMARK    7  A    between atoms: C_29  and  C_30 
REMARK    8  A    between atoms: C_30  and  O_31 
REMARK    9  A    between atoms: C_30  and  C_32 
ROOT
HETATM    1  C   UNL     1       8.844  24.452  57.396  1.00  0.00     0.052 C 
HETATM    2  C   UNL     1       8.483  23.816  56.090  1.00  0.00    -0.015 A 
HETATM    3  C   UNL     1       7.375  24.446  55.289  1.00  0.00     0.144 A 
HETATM    4  N   UNL     1       6.716  25.440  55.794  1.00  0.00    -0.217 NA
HETATM    5  N   UNL     1       7.121  23.915  54.036  1.00  0.00    -0.272 N 
HETATM    6  C   UNL     1       6.149  24.489  53.234  1.00  0.00     0.266 A 
HETATM    7  O   UNL     1       5.822  24.056  52.125  1.00  0.00    -0.267 OA
HETATM    8  C   UNL     1       5.471  25.700  53.779  1.00  0.00     0.074 A 
HETATM    9  C   UNL     1       5.747  26.059  55.054  1.00  0.00     0.121 A 
HETATM   10  C   UNL     1       7.804  22.795  53.578  1.00  0.00     0.102 A 
HETATM   11  C   UNL     1       8.757  22.203  54.307  1.00  0.00     0.018 A 
HETATM   12  C   UNL     1       9.117  22.744  55.589  1.00  0.00     0.012 A 
ENDROOT
BRANCH   8  13
HETATM   13  C   UNL     1       4.560  26.424  52.901  1.00  0.00     0.045 C 
BRANCH  13  14
HETATM   14  C   UNL     1       4.918  27.326  51.975  1.00  0.00     0.077 A 
HETATM   15  S   UNL     1       5.377  28.961  52.226  1.00  0.00    -0.055 SA
HETATM   16  C   UNL     1       5.431  29.308  50.504  1.00  0.00     0.149 A 
HETATM   17  S   UNL     1       5.687  30.856  49.937  1.00  0.00    -0.052 SA
HETATM   18  N   UNL     1       5.208  28.151  49.787  1.00  0.00    -0.294 N 
HETATM   19  C   UNL     1       4.912  27.015  50.523  1.00  0.00     0.266 A 
HETATM   20  O   UNL     1       4.616  25.917  50.072  1.00  0.00    -0.266 OA
BRANCH  18  21
HETATM   21  C   UNL     1       5.204  28.063  48.329  1.00  0.00     0.172 C 
BRANCH  21  22
HETATM   22  C   UNL     1       3.856  28.407  47.733  1.00  0.00    -0.037 A 
HETATM   23  C   UNL     1       2.814  27.461  47.748  1.00  0.00     0.048 A 
HETATM   24  C   UNL     1       1.603  27.816  47.193  1.00  0.00     0.105 A 
HETATM   25  C   UNL     1       1.397  29.052  46.629  1.00  0.00     0.105 A 
HETATM   26  O   UNL     1       0.494  27.030  47.136  1.00  0.00    -0.323 OA
HETATM   27  O   UNL     1       0.135  29.199  46.142  1.00  0.00    -0.323 OA
HETATM   28  C   UNL     1       2.390  30.003  46.588  1.00  0.00     0.040 A 
HETATM   29  C   UNL     1      -0.434  27.915  46.476  1.00  0.00     0.352 A 
HETATM   30  C   UNL     1       3.629  29.675  47.150  1.00  0.00     0.012 A 
ENDBRANCH  21  22
ENDBRANCH  18  21
ENDBRANCH  13  14
ENDBRANCH   8  13
BRANCH   9  31
HETATM   31  N   UNL     1       5.111  27.113  55.699  1.00  0.00    -0.274 NA
HETATM   32  H   UNL     1       4.549  27.606  54.998  1.00  0.00     0.129 HD
BRANCH  31  33
HETATM   33  C   UNL     1       5.801  28.054  56.592  1.00  0.00     0.130 C 
BRANCH  33  34
HETATM   34  C   UNL     1       6.717  29.018  55.795  1.00  0.00     0.164 C 
BRANCH  34  35
HETATM   35  O   UNL     1       6.009  30.230  55.493  1.00  0.00    -0.390 OA
HETATM   36  H   UNL     1       6.620  30.822  55.022  1.00  0.00     0.210 HD
ENDBRANCH  34  35
BRANCH  34  37
HETATM   37  C   UNL     1       8.046  29.399  56.418  1.00  0.00    -0.029 A 
HETATM   38  C   UNL     1       9.267  29.361  55.730  1.00  0.00     0.010 A 
HETATM   39  C   UNL     1      10.459  29.730  56.361  1.00  0.00     0.001 A 
HETATM   40  C   UNL     1      10.450  30.142  57.691  1.00  0.00     0.000 A 
HETATM   41  C   UNL     1       9.249  30.177  58.396  1.00  0.00     0.001 A 
HETATM   42  C   UNL     1       8.059  29.807  57.764  1.00  0.00     0.010 A 
ENDBRANCH  34  37
ENDBRANCH  33  34
ENDBRANCH  31  33
ENDBRANCH   9  31
TORSDOF 9
ENDMDL
MODEL 4
REMARK VINA RESULT:     -10.1      2.534      6.369
REMARK  9 active torsions:
REMARK  status: ('A' for Active; 'I' for Inactive)
REMARK    1  A    between atoms: C_8  and  C_9 
REMARK    2  A    between atoms: C_9  and  C_10 
REMARK    3  A    between atoms: N_14  and  C_15 
REMARK    4  A    between atoms: C_15  and  C_16 
REMARK    5  A    between atoms: C_27  and  N_28 
REMARK    6  A    between atoms: N_28  and  C_29 
REMARK    7  A    between atoms: C_29  and  C_30 
REMARK    8  A    between atoms: C_30  and  O_31 
REMARK    9  A    between atoms: C_30  and  C_32 
ROOT
HETATM    1  C   UNL     1       7.671  24.390  51.764  1.00  0.00     0.052 C 
HETATM    2  C   UNL     1       7.905  24.072  53.207  1.00  0.00    -0.015 A 
HETATM    3  C   UNL     1       7.315  25.003  54.232  1.00  0.00     0.144 A 
HETATM    4  N   UNL     1       6.720  26.083  53.838  1.00  0.00    -0.217 NA
HETATM    5  N   UNL     1       7.446  24.642  55.563  1.00  0.00    -0.272 N 
HETATM    6  C   UNL     1       6.876  25.434  56.546  1.00  0.00     0.266 A 
HETATM    7  O   UNL     1       6.980  25.219  57.757  1.00  0.00    -0.267 OA
HETATM    8  C   UNL     1       6.099  26.617  56.074  1.00  0.00     0.074 A 
HETATM    9  C   UNL     1       6.128  26.908  54.754  1.00  0.00     0.121 A 
HETATM   10  C   UNL     1       8.167  23.513  55.935  1.00  0.00     0.102 A 
HETATM   11  C   UNL     1       8.733  22.709  55.028  1.00  0.00     0.018 A 
HETATM   12  C   UNL     1       8.579  22.989  53.627  1.00  0.00     0.012 A 
ENDROOT
BRANCH   8  13
HETATM   13  C   UNL     1       5.352  27.381  57.067  1.00  0.00     0.045 C 
BRANCH  13  14
HETATM   14  C   UNL     1       5.547  28.673  57.367  1.00  0.00     0.077 A 
HETATM   15  S   UNL     1       4.441  29.972  57.179  1.00  0.00    -0.055 SA
HETATM   16  C   UNL     1       5.641  31.180  57.615  1.00  0.00     0.149 A 
HETATM   17  S   UNL     1       5.309  32.812  57.509  1.00  0.00    -0.052 SA
HETATM   18  N   UNL     1       6.811  30.560  57.998  1.00  0.00    -0.294 N 
HETATM   19  C   UNL     1       6.844  29.179  57.885  1.00  0.00     0.266 A 
HETATM   20  O   UNL     1       7.807  28.457  58.105  1.00  0.00    -0.266 OA
BRANCH  18  21
HETATM   21  C   UNL     1       8.014  31.255  58.446  1.00  0.00     0.172 C 
BRANCH  21  22
HETATM   22  C   UNL     1       8.015  31.506  59.939  1.00  0.00    -0.037 A 
HETATM   23  C   UNL     1       7.327  32.611  60.471  1.00  0.00     0.048 A 
HETATM   24  C   UNL     1       7.355  32.801  61.837  1.00  0.00     0.105 A 
HETATM   25  C   UNL     1       8.036  31.952  62.675  1.00  0.00     0.105 A 
HETATM   26  O   UNL     1       6.735  33.807  62.511  1.00  0.00    -0.323 OA
HETATM   27  O   UNL     1       7.935  32.316  63.981  1.00  0.00    -0.323 OA
HETATM   28  C   UNL     1       8.727  30.862  62.195  1.00  0.00     0.040 A 
HETATM   29  C   UNL     1       7.101  33.488  63.870  1.00  0.00     0.352 A 
HETATM   30  C   UNL     1       8.711  30.638  60.814  1.00  0.00     0.012 A 
ENDBRANCH  21  22
ENDBRANCH  18  21
ENDBRANCH  13  14
ENDBRANCH   8  13
BRANCH   9  31
HETATM   31  N   UNL     1       5.519  28.033  54.211  1.00  0.00    -0.274 NA
HETATM   32  H   UNL     1       5.199  28.614  54.994  1.00  0.00     0.129 HD
BRANCH  31  33
HETATM   33  C   UNL     1       4.517  27.977  53.138  1.00  0.00     0.130 C 
BRANCH  33  34
HETATM   34  C   UNL     1       4.968  28.796  51.902  1.00  0.00     0.164 C 
BRANCH  34  35
HETATM   35  O   UNL     1       6.313  29.265  52.088  1.00  0.00    -0.390 OA
HETATM   36  H   UNL     1       6.555  29.114  53.018  1.00  0.00     0.210 HD
ENDBRANCH  34  35
BRANCH  34  37
HETATM   37  C   UNL     1       4.894  28.120  50.547  1.00  0.00    -0.029 A 
HETATM   38  C   UNL     1       4.724  26.739  50.375  1.00  0.00     0.010 A 
HETATM   39  C   UNL     1       4.657  26.177  49.096  1.00  0.00     0.001 A 
HETATM   40  C   UNL     1       4.761  26.987  47.968  1.00  0.00     0.000 A 
HETATM   41  C   UNL     1       4.940  28.360  48.117  1.00  0.00     0.001 A 
HETATM   42  C   UNL     1       5.007  28.920  49.395  1.00  0.00     0.010 A 
ENDBRANCH  34  37
ENDBRANCH  33  34
ENDBRANCH  31  33
ENDBRANCH   9  31
TORSDOF 9
ENDMDL
MODEL 5
REMARK VINA RESULT:     -10.0      2.488      8.729
REMARK  9 active torsions:
REMARK  status: ('A' for Active; 'I' for Inactive)
REMARK    1  A    between atoms: C_8  and  C_9 
REMARK    2  A    between atoms: C_9  and  C_10 
REMARK    3  A    between atoms: N_14  and  C_15 
REMARK    4  A    between atoms: C_15  and  C_16 
REMARK    5  A    between atoms: C_27  and  N_28 
REMARK    6  A    between atoms: N_28  and  C_29 
REMARK    7  A    between atoms: C_29  and  C_30 
REMARK    8  A    between atoms: C_30  and  O_31 
REMARK    9  A    between atoms: C_30  and  C_32 
ROOT
HETATM    1  C   UNL     1       8.224  26.346  57.364  1.00  0.00     0.052 C 
HETATM    2  C   UNL     1       7.635  27.718  57.275  1.00  0.00    -0.015 A 
HETATM    3  C   UNL     1       6.720  28.012  56.116  1.00  0.00     0.144 A 
HETATM    4  N   UNL     1       6.554  27.114  55.197  1.00  0.00    -0.217 NA
HETATM    5  N   UNL     1       6.097  29.248  56.100  1.00  0.00    -0.272 N 
HETATM    6  C   UNL     1       5.203  29.551  55.087  1.00  0.00     0.266 A 
HETATM    7  O   UNL     1       4.638  30.642  54.965  1.00  0.00    -0.267 OA
HETATM    8  C   UNL     1       4.937  28.470  54.094  1.00  0.00     0.074 A 
HETATM    9  C   UNL     1       5.682  27.344  54.171  1.00  0.00     0.121 A 
HETATM   10  C   UNL     1       6.374  30.206  57.069  1.00  0.00     0.102 A 
HETATM   11  C   UNL     1       7.224  29.965  58.074  1.00  0.00     0.018 A 
HETATM   12  C   UNL     1       7.854  28.678  58.187  1.00  0.00     0.012 A 
ENDROOT
BRANCH   8  13
HETATM   13  C   UNL     1       3.885  28.694  53.109  1.00  0.00     0.045 C 
BRANCH  13  14
HETATM   14  C   UNL     1       4.038  29.317  51.932  1.00  0.00     0.077 A 
HETATM   15  S   UNL     1       3.907  30.998  51.609  1.00  0.00    -0.055 SA
HETATM   16  C   UNL     1       4.049  30.770  49.872  1.00  0.00     0.149 A 
HETATM   17  S   UNL     1       3.853  32.043  48.811  1.00  0.00    -0.052 SA
HETATM   18  N   UNL     1       4.301  29.444  49.593  1.00  0.00    -0.294 N 
HETATM   19  C   UNL     1       4.305  28.575  50.673  1.00  0.00     0.266 A 
HETATM   20  O   UNL     1       4.438  27.360  50.624  1.00  0.00    -0.266 OA
BRANCH  18  21
HETATM   21  C   UNL     1       4.498  28.898  48.253  1.00  0.00     0.172 C 
BRANCH  21  22
HETATM   22  C   UNL     1       3.207  28.408  47.632  1.00  0.00    -0.037 A 
HETATM   23  C   UNL     1       2.228  29.329  47.217  1.00  0.00     0.048 A 
HETATM   24  C   UNL     1       1.067  28.839  46.658  1.00  0.00     0.105 A 
HETATM   25  C   UNL     1       0.847  27.492  46.505  1.00  0.00     0.105 A 
HETATM   26  O   UNL     1       0.030  29.589  46.195  1.00  0.00    -0.323 OA
HETATM   27  O   UNL     1      -0.356  27.222  45.931  1.00  0.00    -0.323 OA
HETATM   28  C   UNL     1       1.776  26.557  46.902  1.00  0.00     0.040 A 
HETATM   29  C   UNL     1      -0.864  28.557  45.730  1.00  0.00     0.352 A 
HETATM   30  C   UNL     1       2.968  27.024  47.467  1.00  0.00     0.012 A 
ENDBRANCH  21  22
ENDBRANCH  18  21
ENDBRANCH  13  14
ENDBRANCH   8  13
BRANCH   9  31
HETATM   31  N   UNL     1       5.587  26.308  53.249  1.00  0.00    -0.274 NA
HETATM   32  H   UNL     1       4.761  26.491  52.668  1.00  0.00     0.129 HD
BRANCH  31  33
HETATM   33  C   UNL     1       5.685  24.887  53.611  1.00  0.00     0.130 C 
BRANCH  33  34
HETATM   34  C   UNL     1       6.977  24.249  53.040  1.00  0.00     0.164 C 
BRANCH  34  35
HETATM   35  O   UNL     1       8.069  25.177  53.140  1.00  0.00    -0.390 OA
HETATM   36  H   UNL     1       8.886  24.699  52.915  1.00  0.00     0.210 HD
ENDBRANCH  34  35
BRANCH  34  37
HETATM   37  C   UNL     1       7.431  22.931  53.637  1.00  0.00    -0.029 A 
HETATM   38  C   UNL     1       7.909  21.855  52.875  1.00  0.00     0.010 A 
HETATM   39  C   UNL     1       8.318  20.667  53.488  1.00  0.00     0.001 A 
HETATM   40  C   UNL     1       8.253  20.533  54.873  1.00  0.00     0.000 A 
HETATM   41  C   UNL     1       7.773  21.586  55.647  1.00  0.00     0.001 A 
HETATM   42  C   UNL     1       7.364  22.772  55.033  1.00  0.00     0.010 A 
ENDBRANCH  34  37
ENDBRANCH  33  34
ENDBRANCH  31  33
ENDBRANCH   9  31
TORSDOF 9
ENDMDL
MODEL 6
REMARK VINA RESULT:      -9.6      2.666      8.794
REMARK  9 active torsions:
REMARK  status: ('A' for Active; 'I' for Inactive)
REMARK    1  A    between atoms: C_8  and  C_9 
REMARK    2  A    between atoms: C_9  and  C_10 
REMARK    3  A    between atoms: N_14  and  C_15 
REMARK    4  A    between atoms: C_15  and  C_16 
REMARK    5  A    between atoms: C_27  and  N_28 
REMARK    6  A    between atoms: N_28  and  C_29 
REMARK    7  A    between atoms: C_29  and  C_30 
REMARK    8  A    between atoms: C_30  and  O_31 
REMARK    9  A    between atoms: C_30  and  C_32 
ROOT
HETATM    1  C   UNL     1       9.165  30.473  60.106  1.00  0.00     0.052 C 
HETATM    2  C   UNL     1       7.894  31.082  59.605  1.00  0.00    -0.015 A 
HETATM    3  C   UNL     1       7.095  30.301  58.596  1.00  0.00     0.144 A 
HETATM    4  N   UNL     1       7.575  29.192  58.131  1.00  0.00    -0.217 NA
HETATM    5  N   UNL     1       5.869  30.823  58.220  1.00  0.00    -0.272 N 
HETATM    6  C   UNL     1       5.068  30.120  57.336  1.00  0.00     0.266 A 
HETATM    7  O   UNL     1       3.984  30.528  56.908  1.00  0.00    -0.267 OA
HETATM    8  C   UNL     1       5.581  28.792  56.890  1.00  0.00     0.074 A 
HETATM    9  C   UNL     1       6.835  28.443  57.259  1.00  0.00     0.121 A 
HETATM   10  C   UNL     1       5.439  32.059  58.689  1.00  0.00     0.102 A 
HETATM   11  C   UNL     1       6.168  32.778  59.549  1.00  0.00     0.018 A 
HETATM   12  C   UNL     1       7.420  32.263  60.033  1.00  0.00     0.012 A 
ENDROOT
BRANCH   8  13
HETATM   13  C   UNL     1       4.697  27.954  56.089  1.00  0.00     0.045 C 
BRANCH  13  14
HETATM   14  C   UNL     1       4.899  27.603  54.811  1.00  0.00     0.077 A 
HETATM   15  S   UNL     1       5.349  26.062  54.204  1.00  0.00    -0.055 SA
HETATM   16  C   UNL     1       5.555  26.663  52.566  1.00  0.00     0.149 A 
HETATM   17  S   UNL     1       6.167  25.691  51.355  1.00  0.00    -0.052 SA
HETATM   18  N   UNL     1       5.170  27.985  52.501  1.00  0.00    -0.294 N 
HETATM   19  C   UNL     1       4.801  28.581  53.696  1.00  0.00     0.266 A 
HETATM   20  O   UNL     1       4.499  29.755  53.857  1.00  0.00    -0.266 OA
BRANCH  18  21
HETATM   21  C   UNL     1       5.187  28.799  51.288  1.00  0.00     0.172 C 
BRANCH  21  22
HETATM   22  C   UNL     1       3.991  28.536  50.399  1.00  0.00    -0.037 A 
HETATM   23  C   UNL     1       4.130  27.754  49.238  1.00  0.00     0.048 A 
HETATM   24  C   UNL     1       3.014  27.542  48.456  1.00  0.00     0.105 A 
HETATM   25  C   UNL     1       1.789  28.074  48.779  1.00  0.00     0.105 A 
HETATM   26  O   UNL     1       2.973  26.804  47.314  1.00  0.00    -0.323 OA
HETATM   27  O   UNL     1       0.824  27.743  47.881  1.00  0.00    -0.323 OA
HETATM   28  C   UNL     1       1.610  28.848  49.903  1.00  0.00     0.040 A 
HETATM   29  C   UNL     1       1.580  26.930  46.959  1.00  0.00     0.352 A 
HETATM   30  C   UNL     1       2.723  29.077  50.720  1.00  0.00     0.012 A 
ENDBRANCH  21  22
ENDBRANCH  18  21
ENDBRANCH  13  14
ENDBRANCH   8  13
BRANCH   9  31
HETATM   31  N   UNL     1       7.453  27.274  56.830  1.00  0.00    -0.274 NA
HETATM   32  H   UNL     1       7.323  27.215  55.815  1.00  0.00     0.129 HD
BRANCH  31  33
HETATM   33  C   UNL     1       7.257  25.968  57.474  1.00  0.00     0.130 C 
BRANCH  33  34
HETATM   34  C   UNL     1       8.487  25.047  57.266  1.00  0.00     0.164 C 
BRANCH  34  35
HETATM   35  O   UNL     1       8.923  24.519  58.528  1.00  0.00    -0.390 OA
HETATM   36  H   UNL     1       9.751  24.032  58.375  1.00  0.00     0.210 HD
ENDBRANCH  34  35
BRANCH  34  37
HETATM   37  C   UNL     1       8.338  23.887  56.301  1.00  0.00    -0.029 A 
HETATM   38  C   UNL     1       8.195  24.041  54.915  1.00  0.00     0.010 A 
HETATM   39  C   UNL     1       8.069  22.929  54.078  1.00  0.00     0.001 A 
HETATM   40  C   UNL     1       8.080  21.643  54.613  1.00  0.00     0.000 A 
HETATM   41  C   UNL     1       8.211  21.468  55.989  1.00  0.00     0.001 A 
HETATM   42  C   UNL     1       8.337  22.581  56.824  1.00  0.00     0.010 A 
ENDBRANCH  34  37
ENDBRANCH  33  34
ENDBRANCH  31  33
ENDBRANCH   9  31
TORSDOF 9
ENDMDL
MODEL 7
REMARK VINA RESULT:      -9.4      2.669      8.721
REMARK  9 active torsions:
REMARK  status: ('A' for Active; 'I' for Inactive)
REMARK    1  A    between atoms: C_8  and  C_9 
REMARK    2  A    between atoms: C_9  and  C_10 
REMARK    3  A    between atoms: N_14  and  C_15 
REMARK    4  A    between atoms: C_15  and  C_16 
REMARK    5  A    between atoms: C_27  and  N_28 
REMARK    6  A    between atoms: N_28  and  C_29 
REMARK    7  A    between atoms: C_29  and  C_30 
REMARK    8  A    between atoms: C_30  and  O_31 
REMARK    9  A    between atoms: C_30  and  C_32 
ROOT
HETATM    1  C   UNL     1       8.623  30.309  59.510  1.00  0.00     0.052 C 
HETATM    2  C   UNL     1       7.397  31.136  59.284  1.00  0.00    -0.015 A 
HETATM    3  C   UNL     1       6.610  30.888  58.025  1.00  0.00     0.144 A 
HETATM    4  N   UNL     1       7.066  30.052  57.148  1.00  0.00    -0.217 NA
HETATM    5  N   UNL     1       5.420  31.581  57.876  1.00  0.00    -0.272 N 
HETATM    6  C   UNL     1       4.629  31.352  56.763  1.00  0.00     0.266 A 
HETATM    7  O   UNL     1       3.580  31.956  56.523  1.00  0.00    -0.267 OA
HETATM    8  C   UNL     1       5.110  30.307  55.813  1.00  0.00     0.074 A 
HETATM    9  C   UNL     1       6.334  29.773  56.028  1.00  0.00     0.121 A 
HETATM   10  C   UNL     1       5.018  32.528  58.811  1.00  0.00     0.102 A 
HETATM   11  C   UNL     1       5.739  32.786  59.908  1.00  0.00     0.018 A 
HETATM   12  C   UNL     1       6.951  32.053  60.157  1.00  0.00     0.012 A 
ENDROOT
BRANCH   8  13
HETATM   13  C   UNL     1       4.227  29.925  54.717  1.00  0.00     0.045 C 
BRANCH  13  14
HETATM   14  C   UNL     1       4.298  30.386  53.460  1.00  0.00     0.077 A 
HETATM   15  S   UNL     1       3.531  31.775  52.806  1.00  0.00    -0.055 SA
HETATM   16  C   UNL     1       4.042  31.402  51.167  1.00  0.00     0.149 A 
HETATM   17  S   UNL     1       3.509  32.300  49.865  1.00  0.00    -0.052 SA
HETATM   18  N   UNL     1       4.870  30.299  51.175  1.00  0.00    -0.294 N 
HETATM   19  C   UNL     1       5.058  29.677  52.399  1.00  0.00     0.266 A 
HETATM   20  O   UNL     1       5.695  28.652  52.599  1.00  0.00    -0.266 OA
BRANCH  18  21
HETATM   21  C   UNL     1       5.499  29.721  49.990  1.00  0.00     0.172 C 
BRANCH  21  22
HETATM   22  C   UNL     1       4.646  28.647  49.349  1.00  0.00    -0.037 A 
HETATM   23  C   UNL     1       3.598  29.001  48.481  1.00  0.00     0.048 A 
HETATM   24  C   UNL     1       2.847  27.989  47.919  1.00  0.00     0.105 A 
HETATM   25  C   UNL     1       3.092  26.665  48.191  1.00  0.00     0.105 A 
HETATM   26  O   UNL     1       1.810  28.156  47.054  1.00  0.00    -0.323 OA
HETATM   27  O   UNL     1       2.241  25.832  47.536  1.00  0.00    -0.323 OA
HETATM   28  C   UNL     1       4.104  26.276  49.039  1.00  0.00     0.040 A 
HETATM   29  C   UNL     1       1.436  26.784  46.810  1.00  0.00     0.352 A 
HETATM   30  C   UNL     1       4.889  27.280  49.619  1.00  0.00     0.012 A 
ENDBRANCH  21  22
ENDBRANCH  18  21
ENDBRANCH  13  14
ENDBRANCH   8  13
BRANCH   9  31
HETATM   31  N   UNL     1       6.925  28.860  55.162  1.00  0.00    -0.274 NA
HETATM   32  H   UNL     1       6.276  28.715  54.381  1.00  0.00     0.129 HD
BRANCH  31  33
HETATM   33  C   UNL     1       7.524  27.593  55.603  1.00  0.00     0.130 C 
BRANCH  33  34
HETATM   34  C   UNL     1       6.579  26.396  55.327  1.00  0.00     0.164 C 
BRANCH  34  35
HETATM   35  O   UNL     1       5.325  26.868  54.811  1.00  0.00    -0.390 OA
HETATM   36  H   UNL     1       4.652  26.739  55.502  1.00  0.00     0.210 HD
ENDBRANCH  34  35
BRANCH  34  37
HETATM   37  C   UNL     1       7.082  25.305  54.401  1.00  0.00    -0.029 A 
HETATM   38  C   UNL     1       7.495  25.534  53.081  1.00  0.00     0.010 A 
HETATM   39  C   UNL     1       7.955  24.484  52.280  1.00  0.00     0.001 A 
HETATM   40  C   UNL     1       8.006  23.187  52.785  1.00  0.00     0.000 A 
HETATM   41  C   UNL     1       7.591  22.937  54.090  1.00  0.00     0.001 A 
HETATM   42  C   UNL     1       7.132  23.986  54.889  1.00  0.00     0.010 A 
ENDBRANCH  34  37
ENDBRANCH  33  34
ENDBRANCH  31  33
ENDBRANCH   9  31
TORSDOF 9
ENDMDL
MODEL 8
REMARK VINA RESULT:      -9.2      4.721      9.823
REMARK  9 active torsions:
REMARK  status: ('A' for Active; 'I' for Inactive)
REMARK    1  A    between atoms: C_8  and  C_9 
REMARK    2  A    between atoms: C_9  and  C_10 
REMARK    3  A    between atoms: N_14  and  C_15 
REMARK    4  A    between atoms: C_15  and  C_16 
REMARK    5  A    between atoms: C_27  and  N_28 
REMARK    6  A    between atoms: N_28  and  C_29 
REMARK    7  A    between atoms: C_29  and  C_30 
REMARK    8  A    between atoms: C_30  and  O_31 
REMARK    9  A    between atoms: C_30  and  C_32 
ROOT
HETATM    1  C   UNL     1       1.900  35.925  58.995  1.00  0.00     0.052 C 
HETATM    2  C   UNL     1       2.089  35.375  57.616  1.00  0.00    -0.015 A 
HETATM    3  C   UNL     1       2.749  34.028  57.486  1.00  0.00     0.144 A 
HETATM    4  N   UNL     1       3.211  33.445  58.546  1.00  0.00    -0.217 NA
HETATM    5  N   UNL     1       2.823  33.480  56.216  1.00  0.00    -0.272 N 
HETATM    6  C   UNL     1       3.371  32.220  56.045  1.00  0.00     0.266 A 
HETATM    7  O   UNL     1       3.521  31.673  54.949  1.00  0.00    -0.267 OA
HETATM    8  C   UNL     1       3.801  31.512  57.285  1.00  0.00     0.074 A 
HETATM    9  C   UNL     1       3.760  32.196  58.451  1.00  0.00     0.121 A 
HETATM   10  C   UNL     1       2.383  34.186  55.102  1.00  0.00     0.102 A 
HETATM   11  C   UNL     1       1.840  35.404  55.209  1.00  0.00     0.018 A 
HETATM   12  C   UNL     1       1.672  36.002  56.505  1.00  0.00     0.012 A 
ENDROOT
BRANCH   8  13
HETATM   13  C   UNL     1       4.233  30.124  57.162  1.00  0.00     0.045 C 
BRANCH  13  14
HETATM   14  C   UNL     1       5.460  29.717  56.810  1.00  0.00     0.077 A 
HETATM   15  S   UNL     1       6.940  30.017  57.626  1.00  0.00    -0.055 SA
HETATM   16  C   UNL     1       7.902  29.304  56.341  1.00  0.00     0.149 A 
HETATM   17  S   UNL     1       9.570  29.367  56.367  1.00  0.00    -0.052 SA
HETATM   18  N   UNL     1       7.074  28.760  55.383  1.00  0.00    -0.294 N 
HETATM   19  C   UNL     1       5.713  28.949  55.563  1.00  0.00     0.266 A 
HETATM   20  O   UNL     1       4.826  28.608  54.794  1.00  0.00    -0.266 OA
BRANCH  18  21
HETATM   21  C   UNL     1       7.532  28.066  54.183  1.00  0.00     0.172 C 
BRANCH  21  22
HETATM   22  C   UNL     1       7.509  26.560  54.341  1.00  0.00    -0.037 A 
HETATM   23  C   UNL     1       7.742  25.728  53.231  1.00  0.00     0.048 A 
HETATM   24  C   UNL     1       7.711  24.363  53.422  1.00  0.00     0.105 A 
HETATM   25  C   UNL     1       7.454  23.806  54.651  1.00  0.00     0.105 A 
HETATM   26  O   UNL     1       7.927  23.422  52.462  1.00  0.00    -0.323 OA
HETATM   27  O   UNL     1       7.472  22.447  54.622  1.00  0.00    -0.323 OA
HETATM   28  C   UNL     1       7.215  24.583  55.761  1.00  0.00     0.040 A 
HETATM   29  C   UNL     1       7.781  22.211  53.232  1.00  0.00     0.352 A 
HETATM   30  C   UNL     1       7.247  25.974  55.602  1.00  0.00     0.012 A 
ENDBRANCH  21  22
ENDBRANCH  18  21
ENDBRANCH  13  14
ENDBRANCH   8  13
BRANCH   9  31
HETATM   31  N   UNL     1       4.219  31.673  59.654  1.00  0.00    -0.274 NA
HETATM   32  H   UNL     1       3.408  31.286  60.148  1.00  0.00     0.129 HD
BRANCH  31  33
HETATM   33  C   UNL     1       5.109  32.401  60.569  1.00  0.00     0.130 C 
BRANCH  33  34
HETATM   34  C   UNL     1       4.515  32.465  62.000  1.00  0.00     0.164 C 
BRANCH  34  35
HETATM   35  O   UNL     1       3.920  31.204  62.342  1.00  0.00    -0.390 OA
HETATM   36  H   UNL     1       4.026  31.075  63.300  1.00  0.00     0.210 HD
ENDBRANCH  34  35
BRANCH  34  37
HETATM   37  C   UNL     1       5.448  32.861  63.129  1.00  0.00    -0.029 A 
HETATM   38  C   UNL     1       5.010  33.398  64.348  1.00  0.00     0.010 A 
HETATM   39  C   UNL     1       5.921  33.737  65.352  1.00  0.00     0.001 A 
HETATM   40  C   UNL     1       7.287  33.547  65.153  1.00  0.00     0.000 A 
HETATM   41  C   UNL     1       7.743  33.023  63.946  1.00  0.00     0.001 A 
HETATM   42  C   UNL     1       6.831  32.686  62.944  1.00  0.00     0.010 A 
ENDBRANCH  34  37
ENDBRANCH  33  34
ENDBRANCH  31  33
ENDBRANCH   9  31
TORSDOF 9
ENDMDL
MODEL 9
REMARK VINA RESULT:      -9.1      5.265     10.704
REMARK  9 active torsions:
REMARK  status: ('A' for Active; 'I' for Inactive)
REMARK    1  A    between atoms: C_8  and  C_9 
REMARK    2  A    between atoms: C_9  and  C_10 
REMARK    3  A    between atoms: N_14  and  C_15 
REMARK    4  A    between atoms: C_15  and  C_16 
REMARK    5  A    between atoms: C_27  and  N_28 
REMARK    6  A    between atoms: N_28  and  C_29 
REMARK    7  A    between atoms: C_29  and  C_30 
REMARK    8  A    between atoms: C_30  and  O_31 
REMARK    9  A    between atoms: C_30  and  C_32 
ROOT
HETATM    1  C   UNL     1       9.718  31.956  59.403  1.00  0.00     0.052 C 
HETATM    2  C   UNL     1       9.554  30.968  58.292  1.00  0.00    -0.015 A 
HETATM    3  C   UNL     1       8.151  30.599  57.887  1.00  0.00     0.144 A 
HETATM    4  N   UNL     1       7.153  31.066  58.567  1.00  0.00    -0.217 NA
HETATM    5  N   UNL     1       8.009  29.767  56.789  1.00  0.00    -0.272 N 
HETATM    6  C   UNL     1       6.741  29.438  56.340  1.00  0.00     0.266 A 
HETATM    7  O   UNL     1       6.516  28.668  55.402  1.00  0.00    -0.267 OA
HETATM    8  C   UNL     1       5.598  30.068  57.063  1.00  0.00     0.074 A 
HETATM    9  C   UNL     1       5.874  30.787  58.176  1.00  0.00     0.121 A 
HETATM   10  C   UNL     1       9.117  29.229  56.146  1.00  0.00     0.102 A 
HETATM   11  C   UNL     1      10.365  29.516  56.533  1.00  0.00     0.018 A 
HETATM   12  C   UNL     1      10.585  30.427  57.623  1.00  0.00     0.012 A 
ENDROOT
BRANCH   8  13
HETATM   13  C   UNL     1       4.259  29.874  56.521  1.00  0.00     0.045 C 
BRANCH  13  14
HETATM   14  C   UNL     1       3.730  30.545  55.488  1.00  0.00     0.077 A 
HETATM   15  S   UNL     1       3.774  30.117  53.826  1.00  0.00    -0.055 SA
HETATM   16  C   UNL     1       3.053  31.638  53.319  1.00  0.00     0.149 A 
HETATM   17  S   UNL     1       2.903  32.032  51.704  1.00  0.00    -0.052 SA
HETATM   18  N   UNL     1       2.698  32.379  54.426  1.00  0.00    -0.294 N 
HETATM   19  C   UNL     1       3.042  31.850  55.660  1.00  0.00     0.266 A 
HETATM   20  O   UNL     1       2.878  32.385  56.747  1.00  0.00    -0.266 OA
BRANCH  18  21
HETATM   21  C   UNL     1       2.052  33.688  54.379  1.00  0.00     0.172 C 
BRANCH  21  22
HETATM   22  C   UNL     1       0.541  33.588  54.400  1.00  0.00    -0.037 A 
HETATM   23  C   UNL     1      -0.156  33.674  55.618  1.00  0.00     0.048 A 
HETATM   24  C   UNL     1      -1.532  33.577  55.590  1.00  0.00     0.105 A 
HETATM   25  C   UNL     1      -2.223  33.395  54.418  1.00  0.00     0.105 A 
HETATM   26  O   UNL     1      -2.355  33.651  56.671  1.00  0.00    -0.323 OA
HETATM   27  O   UNL     1      -3.568  33.328  54.611  1.00  0.00    -0.323 OA
HETATM   28  C   UNL     1      -1.580  33.301  53.205  1.00  0.00     0.040 A 
HETATM   29  C   UNL     1      -3.644  33.500  56.041  1.00  0.00     0.352 A 
HETATM   30  C   UNL     1      -0.184  33.403  53.200  1.00  0.00     0.012 A 
ENDBRANCH  21  22
ENDBRANCH  18  21
ENDBRANCH  13  14
ENDBRANCH   8  13
BRANCH   9  31
HETATM   31  N   UNL     1       4.887  31.344  58.982  1.00  0.00    -0.274 NA
HETATM   32  H   UNL     1       3.997  31.254  58.481  1.00  0.00     0.129 HD
BRANCH  31  33
HETATM   33  C   UNL     1       5.012  32.658  59.625  1.00  0.00     0.130 C 
BRANCH  33  34
HETATM   34  C   UNL     1       4.606  32.595  61.120  1.00  0.00     0.164 C 
BRANCH  34  35
HETATM   35  O   UNL     1       3.875  31.386  61.380  1.00  0.00    -0.390 OA
HETATM   36  H   UNL     1       3.230  31.269  60.661  1.00  0.00     0.210 HD
ENDBRANCH  34  35
BRANCH  34  37
HETATM   37  C   UNL     1       5.712  32.701  62.152  1.00  0.00    -0.029 A 
HETATM   38  C   UNL     1       7.051  32.374  61.894  1.00  0.00     0.010 A 
HETATM   39  C   UNL     1       8.025  32.500  62.889  1.00  0.00     0.001 A 
HETATM   40  C   UNL     1       7.677  32.952  64.159  1.00  0.00     0.000 A 
HETATM   41  C   UNL     1       6.351  33.272  64.439  1.00  0.00     0.001 A 
HETATM   42  C   UNL     1       5.378  33.146  63.444  1.00  0.00     0.010 A 
ENDBRANCH  34  37
ENDBRANCH  33  34
ENDBRANCH  31  33
ENDBRANCH   9  31
TORSDOF 9
ENDMDL
MODEL 10
REMARK VINA RESULT:      -8.9      3.054      6.723
REMARK  9 active torsions:
REMARK  status: ('A' for Active; 'I' for Inactive)
REMARK    1  A    between atoms: C_8  and  C_9 
REMARK    2  A    between atoms: C_9  and  C_10 
REMARK    3  A    between atoms: N_14  and  C_15 
REMARK    4  A    between atoms: C_15  and  C_16 
REMARK    5  A    between atoms: C_27  and  N_28 
REMARK    6  A    between atoms: N_28  and  C_29 
REMARK    7  A    between atoms: C_29  and  C_30 
REMARK    8  A    between atoms: C_30  and  O_31 
REMARK    9  A    between atoms: C_30  and  C_32 
ROOT
HETATM    1  C   UNL     1       7.871  23.323  52.561  1.00  0.00     0.052 C 
HETATM    2  C   UNL     1       7.967  23.692  54.008  1.00  0.00    -0.015 A 
HETATM    3  C   UNL     1       7.092  24.813  54.503  1.00  0.00     0.144 A 
HETATM    4  N   UNL     1       6.372  25.475  53.654  1.00  0.00    -0.217 NA
HETATM    5  N   UNL     1       7.110  25.076  55.862  1.00  0.00    -0.272 N 
HETATM    6  C   UNL     1       6.285  26.061  56.379  1.00  0.00     0.266 A 
HETATM    7  O   UNL     1       6.267  26.396  57.567  1.00  0.00    -0.267 OA
HETATM    8  C   UNL     1       5.379  26.742  55.409  1.00  0.00     0.074 A 
HETATM    9  C   UNL     1       5.530  26.457  54.096  1.00  0.00     0.121 A 
HETATM   10  C   UNL     1       7.964  24.389  56.717  1.00  0.00     0.102 A 
HETATM   11  C   UNL     1       8.777  23.424  56.273  1.00  0.00     0.018 A 
HETATM   12  C   UNL     1       8.760  23.055  54.884  1.00  0.00     0.012 A 
ENDROOT
BRANCH   8  13
HETATM   13  C   UNL     1       4.386  27.669  55.941  1.00  0.00     0.045 C 
BRANCH  13  14
HETATM   14  C   UNL     1       4.494  29.005  55.957  1.00  0.00     0.077 A 
HETATM   15  S   UNL     1       3.843  30.124  54.830  1.00  0.00    -0.055 SA
HETATM   16  C   UNL     1       4.670  31.489  55.565  1.00  0.00     0.149 A 
HETATM   17  S   UNL     1       4.626  33.007  54.873  1.00  0.00    -0.052 SA
HETATM   18  N   UNL     1       5.327  31.078  56.706  1.00  0.00    -0.294 N 
HETATM   19  C   UNL     1       5.284  29.723  56.990  1.00  0.00     0.266 A 
HETATM   20  O   UNL     1       5.858  29.157  57.910  1.00  0.00    -0.266 OA
BRANCH  18  21
HETATM   21  C   UNL     1       6.100  31.954  57.583  1.00  0.00     0.172 C 
BRANCH  21  22
HETATM   22  C   UNL     1       5.450  32.137  58.938  1.00  0.00    -0.037 A 
HETATM   23  C   UNL     1       6.244  32.292  60.088  1.00  0.00     0.048 A 
HETATM   24  C   UNL     1       5.610  32.454  61.302  1.00  0.00     0.105 A 
HETATM   25  C   UNL     1       4.241  32.461  61.410  1.00  0.00     0.105 A 
HETATM   26  O   UNL     1       6.226  32.628  62.502  1.00  0.00    -0.323 OA
HETATM   27  O   UNL     1       3.820  32.637  62.692  1.00  0.00    -0.323 OA
HETATM   28  C   UNL     1       3.427  32.308  60.311  1.00  0.00     0.040 A 
HETATM   29  C   UNL     1       5.085  32.750  63.377  1.00  0.00     0.352 A 
HETATM   30  C   UNL     1       4.041  32.147  59.064  1.00  0.00     0.012 A 
ENDBRANCH  21  22
ENDBRANCH  18  21
ENDBRANCH  13  14
ENDBRANCH   8  13
BRANCH   9  31
HETATM   31  N   UNL     1       4.807  27.094  53.094  1.00  0.00    -0.274 NA
HETATM   32  H   UNL     1       4.227  26.383  52.636  1.00  0.00     0.129 HD
BRANCH  31  33
HETATM   33  C   UNL     1       5.411  28.008  52.114  1.00  0.00     0.130 C 
BRANCH  33  34
HETATM   34  C   UNL     1       5.452  27.372  50.701  1.00  0.00     0.164 C 
BRANCH  34  35
HETATM   35  O   UNL     1       5.817  25.987  50.797  1.00  0.00    -0.390 OA
HETATM   36  H   UNL     1       6.498  25.906  51.486  1.00  0.00     0.210 HD
ENDBRANCH  34  35
BRANCH  34  37
HETATM   37  C   UNL     1       4.198  27.466  49.853  1.00  0.00    -0.029 A 
HETATM   38  C   UNL     1       3.243  28.484  49.986  1.00  0.00     0.010 A 
HETATM   39  C   UNL     1       2.110  28.518  49.168  1.00  0.00     0.001 A 
HETATM   40  C   UNL     1       1.911  27.531  48.205  1.00  0.00     0.000 A 
HETATM   41  C   UNL     1       2.842  26.506  48.063  1.00  0.00     0.001 A 
HETATM   42  C   UNL     1       3.973  26.473  48.882  1.00  0.00     0.010 A 
ENDBRANCH  34  37
ENDBRANCH  33  34
ENDBRANCH  31  33
ENDBRANCH   9  31
TORSDOF 9
ENDMDL
