MODEL 1
REMARK VINA RESULT:     -11.2      0.000      0.000
REMARK  7 active torsions:
REMARK  status: ('A' for Active; 'I' for Inactive)
REMARK    1  A    between atoms: C_5  and  C_6 
REMARK    2  A    between atoms: C_10  and  C_11 
REMARK       I    between atoms: C_11  and  N_12 
REMARK    3  A    between atoms: N_12  and  N_13 
REMARK       I    between atoms: N_13  and  C_14 
REMARK       I    between atoms: C_14  and  N_15 
REMARK    4  A    between atoms: N_15  and  C_16 
REMARK    5  A    between atoms: C_16  and  C_17 
REMARK    6  A    between atoms: C_17  and  C_18 
REMARK    7  A    between atoms: C_21  and  O_22 
ROOT
HETATM    1  C   UNL     1       9.234  29.704  57.110  1.00  0.00     0.288 C 
HETATM    2  N   UNL     1       8.146  29.651  56.267  1.00  0.00    -0.261 N 
HETATM    3  O   UNL     1      10.257  29.054  56.903  1.00  0.00    -0.264 OA
HETATM    4  H   UNL     1       7.245  30.068  56.488  1.00  0.00     0.190 HD
ENDROOT
BRANCH   2   5
HETATM    5  N   UNL     1       8.157  28.740  55.202  1.00  0.00    -0.249 N 
HETATM    6  C   UNL     1       7.501  27.543  55.383  1.00  0.00     0.335 C 
HETATM    7  N   UNL     1       7.479  26.791  54.235  1.00  0.00    -0.337 N 
HETATM    8  O   UNL     1       7.022  27.202  56.459  1.00  0.00    -0.246 OA
HETATM    9  H   UNL     1       8.251  26.989  53.611  1.00  0.00     0.164 HD
HETATM   10  H   UNL     1       8.248  29.142  54.275  1.00  0.00     0.192 HD
BRANCH   7  11
HETATM   11  C   UNL     1       7.008  25.405  54.253  1.00  0.00     0.086 C 
HETATM   12  C   UNL     1       5.515  25.329  53.920  1.00  0.00     0.032 C 
BRANCH  11  13
HETATM   13  C   UNL     1       7.800  24.527  53.254  1.00  0.00     0.063 C 
BRANCH  13  14
HETATM   14  C   UNL     1       8.129  23.126  53.728  1.00  0.00    -0.056 A 
HETATM   15  C   UNL     1       8.679  22.880  54.995  1.00  0.00     0.010 A 
HETATM   16  C   UNL     1       8.991  21.576  55.396  1.00  0.00     0.037 A 
HETATM   17  C   UNL     1       8.730  20.514  54.538  1.00  0.00     0.065 A 
HETATM   18  C   UNL     1       8.159  20.733  53.292  1.00  0.00     0.037 A 
HETATM   19  C   UNL     1       7.855  22.034  52.889  1.00  0.00     0.010 A 
BRANCH  17  20
HETATM   20  O   UNL     1       9.024  19.230  54.886  1.00  0.00    -0.361 OA
HETATM   21  H   UNL     1       8.825  19.110  55.829  1.00  0.00     0.217 HD
ENDBRANCH  17  20
ENDBRANCH  13  14
ENDBRANCH  11  13
ENDBRANCH   7  11
ENDBRANCH   2   5
BRANCH   1  22
HETATM   22  C   UNL     1       9.091  30.572  58.246  1.00  0.00     0.121 A 
HETATM   23  N   UNL     1       9.889  31.668  58.417  1.00  0.00    -0.272 N 
HETATM   24  N   UNL     1       9.621  32.377  59.521  1.00  0.00    -0.174 NA
HETATM   25  H   UNL     1      10.637  31.977  57.804  1.00  0.00     0.189 HD
HETATM   26  C   UNL     1       8.582  31.745  60.091  1.00  0.00     0.089 A 
HETATM   27  C   UNL     1       8.235  30.591  59.329  1.00  0.00     0.071 A 
BRANCH  26  28
HETATM   28  C   UNL     1       7.951  32.248  61.315  1.00  0.00    -0.006 A 
HETATM   29  C   UNL     1       6.690  32.860  61.284  1.00  0.00     0.014 A 
HETATM   30  C   UNL     1       6.106  33.357  62.456  1.00  0.00     0.007 A 
HETATM   31  C   UNL     1       6.774  33.258  63.680  1.00  0.00    -0.062 A 
HETATM   32  C   UNL     1       6.153  33.777  64.943  1.00  0.00     0.048 C 
HETATM   33  C   UNL     1       8.026  32.636  63.719  1.00  0.00     0.007 A 
HETATM   34  C   UNL     1       8.610  32.143  62.548  1.00  0.00     0.014 A 
ENDBRANCH  26  28
ENDBRANCH   1  22
TORSDOF 7
ENDMDL
MODEL 2
REMARK VINA RESULT:     -10.7      1.215      1.743
REMARK  7 active torsions:
REMARK  status: ('A' for Active; 'I' for Inactive)
REMARK    1  A    between atoms: C_5  and  C_6 
REMARK    2  A    between atoms: C_10  and  C_11 
REMARK       I    between atoms: C_11  and  N_12 
REMARK    3  A    between atoms: N_12  and  N_13 
REMARK       I    between atoms: N_13  and  C_14 
REMARK       I    between atoms: C_14  and  N_15 
REMARK    4  A    between atoms: N_15  and  C_16 
REMARK    5  A    between atoms: C_16  and  C_17 
REMARK    6  A    between atoms: C_17  and  C_18 
REMARK    7  A    between atoms: C_21  and  O_22 
ROOT
HETATM    1  C   UNL     1       8.178  29.333  56.750  1.00  0.00     0.288 C 
HETATM    2  N   UNL     1       7.408  29.341  55.608  1.00  0.00    -0.261 N 
HETATM    3  O   UNL     1       9.170  28.616  56.868  1.00  0.00    -0.264 OA
HETATM    4  H   UNL     1       6.513  29.819  55.540  1.00  0.00     0.190 HD
ENDROOT
BRANCH   2   5
HETATM    5  N   UNL     1       7.692  28.419  54.592  1.00  0.00    -0.249 N 
HETATM    6  C   UNL     1       6.943  27.265  54.555  1.00  0.00     0.335 C 
HETATM    7  N   UNL     1       7.230  26.501  53.451  1.00  0.00    -0.337 N 
HETATM    8  O   UNL     1       6.138  26.964  55.429  1.00  0.00    -0.246 OA
HETATM    9  H   UNL     1       8.167  26.647  53.095  1.00  0.00     0.164 HD
HETATM   10  H   UNL     1       8.087  28.804  53.741  1.00  0.00     0.192 HD
BRANCH   7  11
HETATM   11  C   UNL     1       6.697  25.146  53.313  1.00  0.00     0.086 C 
HETATM   12  C   UNL     1       5.393  25.149  52.510  1.00  0.00     0.032 C 
BRANCH  11  13
HETATM   13  C   UNL     1       7.716  24.204  52.629  1.00  0.00     0.063 C 
BRANCH  13  14
HETATM   14  C   UNL     1       8.050  22.935  53.387  1.00  0.00    -0.056 A 
HETATM   15  C   UNL     1       7.961  21.667  52.793  1.00  0.00     0.010 A 
HETATM   16  C   UNL     1       8.258  20.513  53.525  1.00  0.00     0.037 A 
HETATM   17  C   UNL     1       8.668  20.628  54.848  1.00  0.00     0.065 A 
HETATM   18  C   UNL     1       8.792  21.873  55.447  1.00  0.00     0.037 A 
HETATM   19  C   UNL     1       8.489  23.024  54.718  1.00  0.00     0.010 A 
BRANCH  17  20
HETATM   20  O   UNL     1       8.961  19.529  55.600  1.00  0.00    -0.361 OA
HETATM   21  H   UNL     1       9.840  19.649  55.995  1.00  0.00     0.217 HD
ENDBRANCH  17  20
ENDBRANCH  13  14
ENDBRANCH  11  13
ENDBRANCH   7  11
ENDBRANCH   2   5
BRANCH   1  22
HETATM   22  C   UNL     1       7.745  30.222  57.792  1.00  0.00     0.121 A 
HETATM   23  N   UNL     1       6.656  31.033  57.638  1.00  0.00    -0.272 N 
HETATM   24  N   UNL     1       6.381  31.793  58.706  1.00  0.00    -0.174 NA
HETATM   25  H   UNL     1       6.064  31.107  56.817  1.00  0.00     0.189 HD
HETATM   26  C   UNL     1       7.304  31.450  59.619  1.00  0.00     0.089 A 
HETATM   27  C   UNL     1       8.195  30.481  59.072  1.00  0.00     0.071 A 
BRANCH  26  28
HETATM   28  C   UNL     1       7.312  32.034  60.964  1.00  0.00    -0.006 A 
HETATM   29  C   UNL     1       8.347  31.760  61.869  1.00  0.00     0.014 A 
HETATM   30  C   UNL     1       8.334  32.304  63.159  1.00  0.00     0.007 A 
HETATM   31  C   UNL     1       7.282  33.128  63.572  1.00  0.00    -0.062 A 
HETATM   32  C   UNL     1       7.263  33.725  64.947  1.00  0.00     0.048 C 
HETATM   33  C   UNL     1       6.253  33.416  62.669  1.00  0.00     0.007 A 
HETATM   34  C   UNL     1       6.266  32.869  61.382  1.00  0.00     0.014 A 
ENDBRANCH  26  28
ENDBRANCH   1  22
TORSDOF 7
ENDMDL
MODEL 3
REMARK VINA RESULT:     -10.1      1.589      2.209
REMARK  7 active torsions:
REMARK  status: ('A' for Active; 'I' for Inactive)
REMARK    1  A    between atoms: C_5  and  C_6 
REMARK    2  A    between atoms: C_10  and  C_11 
REMARK       I    between atoms: C_11  and  N_12 
REMARK    3  A    between atoms: N_12  and  N_13 
REMARK       I    between atoms: N_13  and  C_14 
REMARK       I    between atoms: C_14  and  N_15 
REMARK    4  A    between atoms: N_15  and  C_16 
REMARK    5  A    between atoms: C_16  and  C_17 
REMARK    6  A    between atoms: C_17  and  C_18 
REMARK    7  A    between atoms: C_21  and  O_22 
ROOT
HETATM    1  C   UNL     1       8.381  30.226  58.883  1.00  0.00     0.288 C 
HETATM    2  N   UNL     1       7.554  29.212  58.451  1.00  0.00    -0.261 N 
HETATM    3  O   UNL     1       9.240  30.725  58.158  1.00  0.00    -0.264 OA
HETATM    4  H   UNL     1       6.935  28.693  59.070  1.00  0.00     0.190 HD
ENDROOT
BRANCH   2   5
HETATM    5  N   UNL     1       7.773  28.650  57.186  1.00  0.00    -0.249 N 
HETATM    6  C   UNL     1       6.740  27.936  56.622  1.00  0.00     0.335 C 
HETATM    7  N   UNL     1       7.030  27.540  55.340  1.00  0.00    -0.337 N 
HETATM    8  O   UNL     1       5.703  27.677  57.222  1.00  0.00    -0.246 OA
HETATM    9  H   UNL     1       8.022  27.442  55.165  1.00  0.00     0.164 HD
HETATM   10  H   UNL     1       8.451  29.126  56.600  1.00  0.00     0.192 HD
BRANCH   7  11
HETATM   11  C   UNL     1       6.159  26.606  54.626  1.00  0.00     0.086 C 
HETATM   12  C   UNL     1       4.976  27.340  53.985  1.00  0.00     0.032 C 
BRANCH  11  13
HETATM   13  C   UNL     1       6.934  25.835  53.531  1.00  0.00     0.063 C 
BRANCH  13  14
HETATM   14  C   UNL     1       7.264  24.390  53.853  1.00  0.00    -0.056 A 
HETATM   15  C   UNL     1       7.162  23.876  55.154  1.00  0.00     0.010 A 
HETATM   16  C   UNL     1       7.491  22.544  55.422  1.00  0.00     0.037 A 
HETATM   17  C   UNL     1       7.902  21.716  54.383  1.00  0.00     0.065 A 
HETATM   18  C   UNL     1       7.981  22.197  53.084  1.00  0.00     0.037 A 
HETATM   19  C   UNL     1       7.659  23.528  52.817  1.00  0.00     0.010 A 
BRANCH  17  20
HETATM   20  O   UNL     1       8.238  20.414  54.601  1.00  0.00    -0.361 OA
HETATM   21  H   UNL     1       7.426  19.905  54.757  1.00  0.00     0.217 HD
ENDBRANCH  17  20
ENDBRANCH  13  14
ENDBRANCH  11  13
ENDBRANCH   7  11
ENDBRANCH   2   5
BRANCH   1  22
HETATM   22  C   UNL     1       8.170  30.660  60.236  1.00  0.00     0.121 A 
HETATM   23  N   UNL     1       8.938  30.198  61.267  1.00  0.00    -0.272 N 
HETATM   24  N   UNL     1       8.618  30.709  62.463  1.00  0.00    -0.174 NA
HETATM   25  H   UNL     1       9.698  29.527  61.207  1.00  0.00     0.189 HD
HETATM   26  C   UNL     1       7.619  31.571  62.212  1.00  0.00     0.089 A 
HETATM   27  C   UNL     1       7.293  31.550  60.824  1.00  0.00     0.071 A 
BRANCH  26  28
HETATM   28  C   UNL     1       7.016  32.382  63.274  1.00  0.00    -0.006 A 
HETATM   29  C   UNL     1       7.809  33.104  64.176  1.00  0.00     0.014 A 
HETATM   30  C   UNL     1       7.224  33.859  65.201  1.00  0.00     0.007 A 
HETATM   31  C   UNL     1       5.834  33.901  65.346  1.00  0.00    -0.062 A 
HETATM   32  C   UNL     1       5.196  34.714  66.433  1.00  0.00     0.048 C 
HETATM   33  C   UNL     1       5.037  33.194  64.440  1.00  0.00     0.007 A 
HETATM   34  C   UNL     1       5.622  32.439  63.420  1.00  0.00     0.014 A 
ENDBRANCH  26  28
ENDBRANCH   1  22
TORSDOF 7
ENDMDL
MODEL 4
REMARK VINA RESULT:      -9.8      2.611     11.499
REMARK  7 active torsions:
REMARK  status: ('A' for Active; 'I' for Inactive)
REMARK    1  A    between atoms: C_5  and  C_6 
REMARK    2  A    between atoms: C_10  and  C_11 
REMARK       I    between atoms: C_11  and  N_12 
REMARK    3  A    between atoms: N_12  and  N_13 
REMARK       I    between atoms: N_13  and  C_14 
REMARK       I    between atoms: C_14  and  N_15 
REMARK    4  A    between atoms: N_15  and  C_16 
REMARK    5  A    between atoms: C_16  and  C_17 
REMARK    6  A    between atoms: C_17  and  C_18 
REMARK    7  A    between atoms: C_21  and  O_22 
ROOT
HETATM    1  C   UNL     1       5.916  28.627  56.540  1.00  0.00     0.288 C 
HETATM    2  N   UNL     1       7.068  29.371  56.664  1.00  0.00    -0.261 N 
HETATM    3  O   UNL     1       4.857  28.964  57.066  1.00  0.00    -0.264 OA
HETATM    4  H   UNL     1       7.982  29.045  56.356  1.00  0.00     0.190 HD
ENDROOT
BRANCH   2   5
HETATM    5  N   UNL     1       7.068  30.486  57.513  1.00  0.00    -0.249 N 
HETATM    6  C   UNL     1       7.671  30.349  58.742  1.00  0.00     0.335 C 
HETATM    7  N   UNL     1       7.713  31.537  59.429  1.00  0.00    -0.337 N 
HETATM    8  O   UNL     1       8.093  29.277  59.162  1.00  0.00    -0.246 OA
HETATM    9  H   UNL     1       6.975  32.178  59.167  1.00  0.00     0.164 HD
HETATM   10  H   UNL     1       7.029  31.392  57.056  1.00  0.00     0.192 HD
BRANCH   7  11
HETATM   11  C   UNL     1       8.131  31.581  60.831  1.00  0.00     0.086 C 
HETATM   12  C   UNL     1       9.575  31.095  60.988  1.00  0.00     0.032 C 
BRANCH  11  13
HETATM   13  C   UNL     1       8.007  33.009  61.413  1.00  0.00     0.063 C 
BRANCH  13  14
HETATM   14  C   UNL     1       7.198  33.132  62.689  1.00  0.00    -0.056 A 
HETATM   15  C   UNL     1       7.806  33.217  63.950  1.00  0.00     0.010 A 
HETATM   16  C   UNL     1       7.032  33.310  65.111  1.00  0.00     0.037 A 
HETATM   17  C   UNL     1       5.645  33.340  65.010  1.00  0.00     0.065 A 
HETATM   18  C   UNL     1       5.023  33.287  63.770  1.00  0.00     0.037 A 
HETATM   19  C   UNL     1       5.797  33.187  62.612  1.00  0.00     0.010 A 
BRANCH  17  20
HETATM   20  O   UNL     1       4.853  33.424  66.115  1.00  0.00    -0.361 OA
HETATM   21  H   UNL     1       4.680  32.525  66.442  1.00  0.00     0.217 HD
ENDBRANCH  17  20
ENDBRANCH  13  14
ENDBRANCH  11  13
ENDBRANCH   7  11
ENDBRANCH   2   5
BRANCH   1  22
HETATM   22  C   UNL     1       6.036  27.432  55.752  1.00  0.00     0.121 A 
HETATM   23  N   UNL     1       5.363  27.279  54.573  1.00  0.00    -0.272 N 
HETATM   24  N   UNL     1       5.591  26.112  53.956  1.00  0.00    -0.174 NA
HETATM   25  H   UNL     1       4.729  27.946  54.143  1.00  0.00     0.189 HD
HETATM   26  C   UNL     1       6.477  25.477  54.741  1.00  0.00     0.089 A 
HETATM   27  C   UNL     1       6.764  26.266  55.893  1.00  0.00     0.071 A 
BRANCH  26  28
HETATM   28  C   UNL     1       7.025  24.165  54.380  1.00  0.00    -0.006 A 
HETATM   29  C   UNL     1       7.253  23.181  55.351  1.00  0.00     0.014 A 
HETATM   30  C   UNL     1       7.798  21.939  54.999  1.00  0.00     0.007 A 
HETATM   31  C   UNL     1       8.131  21.661  53.670  1.00  0.00    -0.062 A 
HETATM   32  C   UNL     1       8.705  20.332  53.280  1.00  0.00     0.048 C 
HETATM   33  C   UNL     1       7.893  22.635  52.694  1.00  0.00     0.007 A 
HETATM   34  C   UNL     1       7.352  23.875  53.047  1.00  0.00     0.014 A 
ENDBRANCH  26  28
ENDBRANCH   1  22
TORSDOF 7
ENDMDL
MODEL 5
REMARK VINA RESULT:      -9.5      3.407     11.291
REMARK  7 active torsions:
REMARK  status: ('A' for Active; 'I' for Inactive)
REMARK    1  A    between atoms: C_5  and  C_6 
REMARK    2  A    between atoms: C_10  and  C_11 
REMARK       I    between atoms: C_11  and  N_12 
REMARK    3  A    between atoms: N_12  and  N_13 
REMARK       I    between atoms: N_13  and  C_14 
REMARK       I    between atoms: C_14  and  N_15 
REMARK    4  A    between atoms: N_15  and  C_16 
REMARK    5  A    between atoms: C_16  and  C_17 
REMARK    6  A    between atoms: C_17  and  C_18 
REMARK    7  A    between atoms: C_21  and  O_22 
ROOT
HETATM    1  C   UNL     1       4.814  28.238  56.478  1.00  0.00     0.288 C 
HETATM    2  N   UNL     1       5.016  28.865  57.688  1.00  0.00    -0.261 N 
HETATM    3  O   UNL     1       3.953  28.610  55.683  1.00  0.00    -0.264 OA
HETATM    4  H   UNL     1       5.623  28.495  58.416  1.00  0.00     0.190 HD
ENDROOT
BRANCH   2   5
HETATM    5  N   UNL     1       4.139  29.885  58.079  1.00  0.00    -0.249 N 
HETATM    6  C   UNL     1       4.683  31.117  58.361  1.00  0.00     0.335 C 
HETATM    7  N   UNL     1       3.717  32.060  58.613  1.00  0.00    -0.337 N 
HETATM    8  O   UNL     1       5.892  31.318  58.401  1.00  0.00    -0.246 OA
HETATM    9  H   UNL     1       2.855  31.665  58.966  1.00  0.00     0.164 HD
HETATM   10  H   UNL     1       3.188  29.809  57.733  1.00  0.00     0.192 HD
BRANCH   7  11
HETATM   11  C   UNL     1       4.074  33.383  59.127  1.00  0.00     0.086 C 
HETATM   12  C   UNL     1       3.447  34.489  58.272  1.00  0.00     0.032 C 
BRANCH  11  13
HETATM   13  C   UNL     1       3.624  33.558  60.597  1.00  0.00     0.063 C 
BRANCH  13  14
HETATM   14  C   UNL     1       4.708  33.379  61.642  1.00  0.00    -0.056 A 
HETATM   15  C   UNL     1       4.414  33.290  63.010  1.00  0.00     0.010 A 
HETATM   16  C   UNL     1       5.439  33.143  63.951  1.00  0.00     0.037 A 
HETATM   17  C   UNL     1       6.758  33.063  63.521  1.00  0.00     0.065 A 
HETATM   18  C   UNL     1       7.069  33.119  62.170  1.00  0.00     0.037 A 
HETATM   19  C   UNL     1       6.047  33.272  61.232  1.00  0.00     0.010 A 
BRANCH  17  20
HETATM   20  O   UNL     1       7.787  32.926  64.404  1.00  0.00    -0.361 OA
HETATM   21  H   UNL     1       8.279  33.763  64.440  1.00  0.00     0.217 HD
ENDBRANCH  17  20
ENDBRANCH  13  14
ENDBRANCH  11  13
ENDBRANCH   7  11
ENDBRANCH   2   5
BRANCH   1  22
HETATM   22  C   UNL     1       5.679  27.122  56.209  1.00  0.00     0.121 A 
HETATM   23  N   UNL     1       6.753  26.839  57.004  1.00  0.00    -0.272 N 
HETATM   24  N   UNL     1       7.451  25.761  56.622  1.00  0.00    -0.174 NA
HETATM   25  H   UNL     1       7.057  27.354  57.825  1.00  0.00     0.189 HD
HETATM   26  C   UNL     1       6.795  25.290  55.549  1.00  0.00     0.089 A 
HETATM   27  C   UNL     1       5.687  26.134  55.244  1.00  0.00     0.071 A 
BRANCH  26  28
HETATM   28  C   UNL     1       7.222  24.070  54.858  1.00  0.00    -0.006 A 
HETATM   29  C   UNL     1       7.417  24.050  53.470  1.00  0.00     0.014 A 
HETATM   30  C   UNL     1       7.804  22.873  52.817  1.00  0.00     0.007 A 
HETATM   31  C   UNL     1       7.998  21.692  53.538  1.00  0.00    -0.062 A 
HETATM   32  C   UNL     1       8.423  20.429  52.850  1.00  0.00     0.048 C 
HETATM   33  C   UNL     1       7.819  21.708  54.925  1.00  0.00     0.007 A 
HETATM   34  C   UNL     1       7.430  22.883  55.576  1.00  0.00     0.014 A 
ENDBRANCH  26  28
ENDBRANCH   1  22
TORSDOF 7
ENDMDL
MODEL 6
REMARK VINA RESULT:      -9.5      3.647     11.040
REMARK  7 active torsions:
REMARK  status: ('A' for Active; 'I' for Inactive)
REMARK    1  A    between atoms: C_5  and  C_6 
REMARK    2  A    between atoms: C_10  and  C_11 
REMARK       I    between atoms: C_11  and  N_12 
REMARK    3  A    between atoms: N_12  and  N_13 
REMARK       I    between atoms: N_13  and  C_14 
REMARK       I    between atoms: C_14  and  N_15 
REMARK    4  A    between atoms: N_15  and  C_16 
REMARK    5  A    between atoms: C_16  and  C_17 
REMARK    6  A    between atoms: C_17  and  C_18 
REMARK    7  A    between atoms: C_21  and  O_22 
ROOT
HETATM    1  C   UNL     1       9.164  31.445  59.718  1.00  0.00     0.288 C 
HETATM    2  N   UNL     1       9.120  31.011  61.024  1.00  0.00    -0.261 N 
HETATM    3  O   UNL     1       9.229  32.638  59.424  1.00  0.00    -0.264 OA
HETATM    4  H   UNL     1       8.929  30.047  61.288  1.00  0.00     0.190 HD
ENDROOT
BRANCH   2   5
HETATM    5  N   UNL     1       9.029  31.959  62.052  1.00  0.00    -0.249 N 
HETATM    6  C   UNL     1       7.806  32.116  62.664  1.00  0.00     0.335 C 
HETATM    7  N   UNL     1       7.871  32.980  63.728  1.00  0.00    -0.337 N 
HETATM    8  O   UNL     1       6.788  31.557  62.272  1.00  0.00    -0.246 OA
HETATM    9  H   UNL     1       8.619  33.659  63.648  1.00  0.00     0.164 HD
HETATM   10  H   UNL     1       9.887  32.148  62.559  1.00  0.00     0.192 HD
BRANCH   7  11
HETATM   11  C   UNL     1       6.655  33.443  64.398  1.00  0.00     0.086 C 
HETATM   12  C   UNL     1       6.927  33.758  65.872  1.00  0.00     0.032 C 
BRANCH  11  13
HETATM   13  C   UNL     1       6.073  34.699  63.707  1.00  0.00     0.063 C 
BRANCH  13  14
HETATM   14  C   UNL     1       4.833  34.471  62.865  1.00  0.00    -0.056 A 
HETATM   15  C   UNL     1       4.882  34.433  61.463  1.00  0.00     0.010 A 
HETATM   16  C   UNL     1       3.717  34.240  60.714  1.00  0.00     0.037 A 
HETATM   17  C   UNL     1       2.503  34.061  61.367  1.00  0.00     0.065 A 
HETATM   18  C   UNL     1       2.437  34.066  62.754  1.00  0.00     0.037 A 
HETATM   19  C   UNL     1       3.598  34.266  63.501  1.00  0.00     0.010 A 
BRANCH  17  20
HETATM   20  O   UNL     1       1.344  33.876  60.676  1.00  0.00    -0.361 OA
HETATM   21  H   UNL     1       1.206  32.923  60.549  1.00  0.00     0.217 HD
ENDBRANCH  17  20
ENDBRANCH  13  14
ENDBRANCH  11  13
ENDBRANCH   7  11
ENDBRANCH   2   5
BRANCH   1  22
HETATM   22  C   UNL     1       9.131  30.410  58.722  1.00  0.00     0.121 A 
HETATM   23  N   UNL     1      10.169  30.214  57.855  1.00  0.00    -0.272 N 
HETATM   24  N   UNL     1       9.985  29.202  56.997  1.00  0.00    -0.174 NA
HETATM   25  H   UNL     1      11.031  30.748  57.807  1.00  0.00     0.189 HD
HETATM   26  C   UNL     1       8.791  28.684  57.328  1.00  0.00     0.089 A 
HETATM   27  C   UNL     1       8.212  29.432  58.394  1.00  0.00     0.071 A 
BRANCH  26  28
HETATM   28  C   UNL     1       8.244  27.509  56.642  1.00  0.00    -0.006 A 
HETATM   29  C   UNL     1       8.217  26.253  57.262  1.00  0.00     0.014 A 
HETATM   30  C   UNL     1       7.712  25.132  56.591  1.00  0.00     0.007 A 
HETATM   31  C   UNL     1       7.231  25.245  55.283  1.00  0.00    -0.062 A 
HETATM   32  C   UNL     1       6.679  24.054  54.558  1.00  0.00     0.048 C 
HETATM   33  C   UNL     1       7.243  26.499  54.663  1.00  0.00     0.007 A 
HETATM   34  C   UNL     1       7.750  27.617  55.334  1.00  0.00     0.014 A 
ENDBRANCH  26  28
ENDBRANCH   1  22
TORSDOF 7
ENDMDL
MODEL 7
REMARK VINA RESULT:      -9.4      3.300     11.799
REMARK  7 active torsions:
REMARK  status: ('A' for Active; 'I' for Inactive)
REMARK    1  A    between atoms: C_5  and  C_6 
REMARK    2  A    between atoms: C_10  and  C_11 
REMARK       I    between atoms: C_11  and  N_12 
REMARK    3  A    between atoms: N_12  and  N_13 
REMARK       I    between atoms: N_13  and  C_14 
REMARK       I    between atoms: C_14  and  N_15 
REMARK    4  A    between atoms: N_15  and  C_16 
REMARK    5  A    between atoms: C_16  and  C_17 
REMARK    6  A    between atoms: C_17  and  C_18 
REMARK    7  A    between atoms: C_21  and  O_22 
ROOT
HETATM    1  C   UNL     1       5.762  29.470  57.412  1.00  0.00     0.288 C 
HETATM    2  N   UNL     1       6.265  30.257  58.424  1.00  0.00    -0.261 N 
HETATM    3  O   UNL     1       4.742  29.769  56.794  1.00  0.00    -0.264 OA
HETATM    4  H   UNL     1       7.023  29.965  59.037  1.00  0.00     0.190 HD
ENDROOT
BRANCH   2   5
HETATM    5  N   UNL     1       5.531  31.374  58.844  1.00  0.00    -0.249 N 
HETATM    6  C   UNL     1       5.960  32.026  59.978  1.00  0.00     0.335 C 
HETATM    7  N   UNL     1       5.237  33.168  60.218  1.00  0.00    -0.337 N 
HETATM    8  O   UNL     1       6.868  31.605  60.686  1.00  0.00    -0.246 OA
HETATM    9  H   UNL     1       4.300  33.138  59.834  1.00  0.00     0.164 HD
HETATM   10  H   UNL     1       5.034  31.878  58.117  1.00  0.00     0.192 HD
BRANCH   7  11
HETATM   11  C   UNL     1       5.391  33.907  61.472  1.00  0.00     0.086 C 
HETATM   12  C   UNL     1       4.725  35.284  61.382  1.00  0.00     0.032 C 
BRANCH  11  13
HETATM   13  C   UNL     1       4.792  33.126  62.665  1.00  0.00     0.063 C 
BRANCH  13  14
HETATM   14  C   UNL     1       5.352  33.478  64.029  1.00  0.00    -0.056 A 
HETATM   15  C   UNL     1       4.522  33.771  65.122  1.00  0.00     0.010 A 
HETATM   16  C   UNL     1       5.070  34.111  66.362  1.00  0.00     0.037 A 
HETATM   17  C   UNL     1       6.452  34.135  66.519  1.00  0.00     0.065 A 
HETATM   18  C   UNL     1       7.291  33.820  65.459  1.00  0.00     0.037 A 
HETATM   19  C   UNL     1       6.744  33.488  64.219  1.00  0.00     0.010 A 
BRANCH  17  20
HETATM   20  O   UNL     1       7.028  34.467  67.708  1.00  0.00    -0.361 OA
HETATM   21  H   UNL     1       7.938  34.762  67.542  1.00  0.00     0.217 HD
ENDBRANCH  17  20
ENDBRANCH  13  14
ENDBRANCH  11  13
ENDBRANCH   7  11
ENDBRANCH   2   5
BRANCH   1  22
HETATM   22  C   UNL     1       6.512  28.278  57.127  1.00  0.00     0.121 A 
HETATM   23  N   UNL     1       7.583  27.904  57.888  1.00  0.00    -0.272 N 
HETATM   24  N   UNL     1       8.166  26.764  57.496  1.00  0.00    -0.174 NA
HETATM   25  H   UNL     1       7.961  28.397  58.692  1.00  0.00     0.189 HD
HETATM   26  C   UNL     1       7.433  26.346  56.451  1.00  0.00     0.089 A 
HETATM   27  C   UNL     1       6.396  27.285  56.174  1.00  0.00     0.071 A 
BRANCH  26  28
HETATM   28  C   UNL     1       7.723  25.085  55.760  1.00  0.00    -0.006 A 
HETATM   29  C   UNL     1       8.581  24.130  56.322  1.00  0.00     0.014 A 
HETATM   30  C   UNL     1       8.870  22.939  55.644  1.00  0.00     0.007 A 
HETATM   31  C   UNL     1       8.311  22.683  54.388  1.00  0.00    -0.062 A 
HETATM   32  C   UNL     1       8.604  21.406  53.658  1.00  0.00     0.048 C 
HETATM   33  C   UNL     1       7.443  23.626  53.829  1.00  0.00     0.007 A 
HETATM   34  C   UNL     1       7.158  24.817  54.505  1.00  0.00     0.014 A 
ENDBRANCH  26  28
ENDBRANCH   1  22
TORSDOF 7
ENDMDL
MODEL 8
REMARK VINA RESULT:      -9.4      2.804     11.480
REMARK  7 active torsions:
REMARK  status: ('A' for Active; 'I' for Inactive)
REMARK    1  A    between atoms: C_5  and  C_6 
REMARK    2  A    between atoms: C_10  and  C_11 
REMARK       I    between atoms: C_11  and  N_12 
REMARK    3  A    between atoms: N_12  and  N_13 
REMARK       I    between atoms: N_13  and  C_14 
REMARK       I    between atoms: C_14  and  N_15 
REMARK    4  A    between atoms: N_15  and  C_16 
REMARK    5  A    between atoms: C_16  and  C_17 
REMARK    6  A    between atoms: C_17  and  C_18 
REMARK    7  A    between atoms: C_21  and  O_22 
ROOT
HETATM    1  C   UNL     1       7.387  28.753  57.458  1.00  0.00     0.288 C 
HETATM    2  N   UNL     1       6.817  29.954  57.097  1.00  0.00    -0.261 N 
HETATM    3  O   UNL     1       8.007  28.612  58.511  1.00  0.00    -0.264 OA
HETATM    4  H   UNL     1       6.421  30.131  56.177  1.00  0.00     0.190 HD
ENDROOT
BRANCH   2   5
HETATM    5  N   UNL     1       7.048  31.082  57.895  1.00  0.00    -0.249 N 
HETATM    6  C   UNL     1       6.031  31.490  58.728  1.00  0.00     0.335 C 
HETATM    7  N   UNL     1       6.418  32.526  59.541  1.00  0.00    -0.337 N 
HETATM    8  O   UNL     1       4.913  30.989  58.709  1.00  0.00    -0.246 OA
HETATM    9  H   UNL     1       7.164  33.087  59.149  1.00  0.00     0.164 HD
HETATM   10  H   UNL     1       8.017  31.263  58.138  1.00  0.00     0.192 HD
BRANCH   7  11
HETATM   11  C   UNL     1       5.441  33.243  60.362  1.00  0.00     0.086 C 
HETATM   12  C   UNL     1       4.182  33.572  59.554  1.00  0.00     0.032 C 
BRANCH  11  13
HETATM   13  C   UNL     1       5.045  32.424  61.614  1.00  0.00     0.063 C 
BRANCH  13  14
HETATM   14  C   UNL     1       5.646  32.893  62.924  1.00  0.00    -0.056 A 
HETATM   15  C   UNL     1       7.024  32.826  63.177  1.00  0.00     0.010 A 
HETATM   16  C   UNL     1       7.545  33.248  64.404  1.00  0.00     0.037 A 
HETATM   17  C   UNL     1       6.690  33.762  65.372  1.00  0.00     0.065 A 
HETATM   18  C   UNL     1       5.327  33.864  65.132  1.00  0.00     0.037 A 
HETATM   19  C   UNL     1       4.806  33.436  63.910  1.00  0.00     0.010 A 
BRANCH  17  20
HETATM   20  O   UNL     1       7.155  34.179  66.583  1.00  0.00    -0.361 OA
HETATM   21  H   UNL     1       7.359  33.398  67.124  1.00  0.00     0.217 HD
ENDBRANCH  17  20
ENDBRANCH  13  14
ENDBRANCH  11  13
ENDBRANCH   7  11
ENDBRANCH   2   5
BRANCH   1  22
HETATM   22  C   UNL     1       7.205  27.678  56.523  1.00  0.00     0.121 A 
HETATM   23  N   UNL     1       6.388  27.802  55.436  1.00  0.00    -0.272 N 
HETATM   24  N   UNL     1       6.336  26.713  54.659  1.00  0.00    -0.174 NA
HETATM   25  H   UNL     1       5.838  28.616  55.177  1.00  0.00     0.189 HD
HETATM   26  C   UNL     1       7.178  25.839  55.236  1.00  0.00     0.089 A 
HETATM   27  C   UNL     1       7.727  26.402  56.425  1.00  0.00     0.071 A 
BRANCH  26  28
HETATM   28  C   UNL     1       7.442  24.521  54.650  1.00  0.00    -0.006 A 
HETATM   29  C   UNL     1       7.723  24.375  53.285  1.00  0.00     0.014 A 
HETATM   30  C   UNL     1       7.952  23.109  52.731  1.00  0.00     0.007 A 
HETATM   31  C   UNL     1       7.898  21.964  53.531  1.00  0.00    -0.062 A 
HETATM   32  C   UNL     1       8.152  20.605  52.951  1.00  0.00     0.048 C 
HETATM   33  C   UNL     1       7.632  22.104  54.897  1.00  0.00     0.007 A 
HETATM   34  C   UNL     1       7.400  23.369  55.448  1.00  0.00     0.014 A 
ENDBRANCH  26  28
ENDBRANCH   1  22
TORSDOF 7
ENDMDL
MODEL 9
REMARK VINA RESULT:      -9.1      3.658     12.039
REMARK  7 active torsions:
REMARK  status: ('A' for Active; 'I' for Inactive)
REMARK    1  A    between atoms: C_5  and  C_6 
REMARK    2  A    between atoms: C_10  and  C_11 
REMARK       I    between atoms: C_11  and  N_12 
REMARK    3  A    between atoms: N_12  and  N_13 
REMARK       I    between atoms: N_13  and  C_14 
REMARK       I    between atoms: C_14  and  N_15 
REMARK    4  A    between atoms: N_15  and  C_16 
REMARK    5  A    between atoms: C_16  and  C_17 
REMARK    6  A    between atoms: C_17  and  C_18 
REMARK    7  A    between atoms: C_21  and  O_22 
ROOT
HETATM    1  C   UNL     1       4.930  28.382  56.403  1.00  0.00     0.288 C 
HETATM    2  N   UNL     1       5.034  28.936  57.660  1.00  0.00    -0.261 N 
HETATM    3  O   UNL     1       4.206  28.861  55.532  1.00  0.00    -0.264 OA
HETATM    4  H   UNL     1       5.517  28.484  58.433  1.00  0.00     0.190 HD
ENDROOT
BRANCH   2   5
HETATM    5  N   UNL     1       4.201  30.011  57.998  1.00  0.00    -0.249 N 
HETATM    6  C   UNL     1       4.802  31.216  58.283  1.00  0.00     0.335 C 
HETATM    7  N   UNL     1       3.882  32.215  58.480  1.00  0.00    -0.337 N 
HETATM    8  O   UNL     1       6.018  31.350  58.368  1.00  0.00    -0.246 OA
HETATM    9  H   UNL     1       2.985  31.875  58.804  1.00  0.00     0.164 HD
HETATM   10  H   UNL     1       3.261  29.981  57.616  1.00  0.00     0.192 HD
BRANCH   7  11
HETATM   11  C   UNL     1       4.291  33.526  58.987  1.00  0.00     0.086 C 
HETATM   12  C   UNL     1       4.138  34.602  57.908  1.00  0.00     0.032 C 
BRANCH  11  13
HETATM   13  C   UNL     1       3.469  33.932  60.233  1.00  0.00     0.063 C 
BRANCH  13  14
HETATM   14  C   UNL     1       4.199  34.782  61.254  1.00  0.00    -0.056 A 
HETATM   15  C   UNL     1       5.404  34.369  61.841  1.00  0.00     0.010 A 
HETATM   16  C   UNL     1       6.044  35.167  62.794  1.00  0.00     0.037 A 
HETATM   17  C   UNL     1       5.490  36.393  63.145  1.00  0.00     0.065 A 
HETATM   18  C   UNL     1       4.314  36.835  62.555  1.00  0.00     0.037 A 
HETATM   19  C   UNL     1       3.672  36.034  61.609  1.00  0.00     0.010 A 
BRANCH  17  20
HETATM   20  O   UNL     1       6.077  37.200  64.073  1.00  0.00    -0.361 OA
HETATM   21  H   UNL     1       5.406  37.464  64.724  1.00  0.00     0.217 HD
ENDBRANCH  17  20
ENDBRANCH  13  14
ENDBRANCH  11  13
ENDBRANCH   7  11
ENDBRANCH   2   5
BRANCH   1  22
HETATM   22  C   UNL     1       5.729  27.209  56.179  1.00  0.00     0.121 A 
HETATM   23  N   UNL     1       6.706  26.827  57.054  1.00  0.00    -0.272 N 
HETATM   24  N   UNL     1       7.351  25.706  56.704  1.00  0.00    -0.174 NA
HETATM   25  H   UNL     1       6.975  27.301  57.911  1.00  0.00     0.189 HD
HETATM   26  C   UNL     1       6.757  25.310  55.566  1.00  0.00     0.089 A 
HETATM   27  C   UNL     1       5.746  26.243  55.192  1.00  0.00     0.071 A 
BRANCH  26  28
HETATM   28  C   UNL     1       7.150  24.074  54.882  1.00  0.00    -0.006 A 
HETATM   29  C   UNL     1       7.376  22.888  55.595  1.00  0.00     0.014 A 
HETATM   30  C   UNL     1       7.772  21.719  54.934  1.00  0.00     0.007 A 
HETATM   31  C   UNL     1       7.956  21.714  53.548  1.00  0.00    -0.062 A 
HETATM   32  C   UNL     1       8.370  20.465  52.829  1.00  0.00     0.048 C 
HETATM   33  C   UNL     1       7.719  22.890  52.830  1.00  0.00     0.007 A 
HETATM   34  C   UNL     1       7.326  24.058  53.491  1.00  0.00     0.014 A 
ENDBRANCH  26  28
ENDBRANCH   1  22
TORSDOF 7
ENDMDL
MODEL 10
REMARK VINA RESULT:      -8.9      2.458      2.952
REMARK  7 active torsions:
REMARK  status: ('A' for Active; 'I' for Inactive)
REMARK    1  A    between atoms: C_5  and  C_6 
REMARK    2  A    between atoms: C_10  and  C_11 
REMARK       I    between atoms: C_11  and  N_12 
REMARK    3  A    between atoms: N_12  and  N_13 
REMARK       I    between atoms: N_13  and  C_14 
REMARK       I    between atoms: C_14  and  N_15 
REMARK    4  A    between atoms: N_15  and  C_16 
REMARK    5  A    between atoms: C_16  and  C_17 
REMARK    6  A    between atoms: C_17  and  C_18 
REMARK    7  A    between atoms: C_21  and  O_22 
ROOT
HETATM    1  C   UNL     1       5.486  30.661  56.117  1.00  0.00     0.288 C 
HETATM    2  N   UNL     1       6.574  29.832  56.276  1.00  0.00    -0.261 N 
HETATM    3  O   UNL     1       4.742  30.587  55.141  1.00  0.00    -0.264 OA
HETATM    4  H   UNL     1       7.277  29.964  57.000  1.00  0.00     0.190 HD
ENDROOT
BRANCH   2   5
HETATM    5  N   UNL     1       6.916  28.954  55.239  1.00  0.00    -0.249 N 
HETATM    6  C   UNL     1       6.562  27.632  55.384  1.00  0.00     0.335 C 
HETATM    7  N   UNL     1       6.841  26.899  54.257  1.00  0.00    -0.337 N 
HETATM    8  O   UNL     1       6.078  27.181  56.416  1.00  0.00    -0.246 OA
HETATM    9  H   UNL     1       7.599  27.284  53.706  1.00  0.00     0.164 HD
HETATM   10  H   UNL     1       6.997  29.368  54.316  1.00  0.00     0.192 HD
BRANCH   7  11
HETATM   11  C   UNL     1       6.730  25.440  54.261  1.00  0.00     0.086 C 
HETATM   12  C   UNL     1       5.369  24.993  53.717  1.00  0.00     0.032 C 
BRANCH  11  13
HETATM   13  C   UNL     1       7.854  24.785  53.425  1.00  0.00     0.063 C 
BRANCH  13  14
HETATM   14  C   UNL     1       8.150  23.333  53.743  1.00  0.00    -0.056 A 
HETATM   15  C   UNL     1       7.888  22.302  52.828  1.00  0.00     0.010 A 
HETATM   16  C   UNL     1       8.154  20.970  53.159  1.00  0.00     0.037 A 
HETATM   17  C   UNL     1       8.705  20.668  54.399  1.00  0.00     0.065 A 
HETATM   18  C   UNL     1       8.999  21.675  55.308  1.00  0.00     0.037 A 
HETATM   19  C   UNL     1       8.727  23.004  54.980  1.00  0.00     0.010 A 
BRANCH  17  20
HETATM   20  O   UNL     1       8.974  19.384  54.765  1.00  0.00    -0.361 OA
HETATM   21  H   UNL     1       9.446  18.945  54.038  1.00  0.00     0.217 HD
ENDBRANCH  17  20
ENDBRANCH  13  14
ENDBRANCH  11  13
ENDBRANCH   7  11
ENDBRANCH   2   5
BRANCH   1  22
HETATM   22  C   UNL     1       5.278  31.616  57.171  1.00  0.00     0.121 A 
HETATM   23  N   UNL     1       5.262  32.960  56.929  1.00  0.00    -0.272 N 
HETATM   24  N   UNL     1       5.046  33.712  58.017  1.00  0.00    -0.174 NA
HETATM   25  H   UNL     1       5.395  33.419  56.033  1.00  0.00     0.189 HD
HETATM   26  C   UNL     1       4.881  32.830  59.016  1.00  0.00     0.089 A 
HETATM   27  C   UNL     1       5.042  31.501  58.527  1.00  0.00     0.071 A 
BRANCH  26  28
HETATM   28  C   UNL     1       4.570  33.263  60.382  1.00  0.00    -0.006 A 
HETATM   29  C   UNL     1       3.253  33.263  60.863  1.00  0.00     0.014 A 
HETATM   30  C   UNL     1       2.964  33.700  62.162  1.00  0.00     0.007 A 
HETATM   31  C   UNL     1       3.986  34.150  63.003  1.00  0.00    -0.062 A 
HETATM   32  C   UNL     1       3.690  34.609  64.400  1.00  0.00     0.048 C 
HETATM   33  C   UNL     1       5.303  34.139  62.534  1.00  0.00     0.007 A 
HETATM   34  C   UNL     1       5.590  33.706  61.236  1.00  0.00     0.014 A 
ENDBRANCH  26  28
ENDBRANCH   1  22
TORSDOF 7
ENDMDL
