MODEL 1
REMARK VINA RESULT:     -11.5      0.000      0.000
REMARK  6 active torsions:
REMARK  status: ('A' for Active; 'I' for Inactive)
REMARK    1  A    between atoms: C_4  and  C_5 
REMARK    2  A    between atoms: C_5  and  N_6 
REMARK       I    between atoms: N_6  and  C_7 
REMARK    3  A    between atoms: C_7  and  C_8 
REMARK    4  A    between atoms: C_9  and  N_10 
REMARK    5  A    between atoms: N_11  and  N_12 
REMARK    6  A    between atoms: C_13  and  C_14 
ROOT
HETATM    1  C   UNL     1       5.316  28.310  55.249  1.00  0.00     0.104 C 
HETATM    2  C   UNL     1       4.952  27.071  55.765  1.00  0.00     0.123 C 
HETATM    3  N   UNL     1       5.264  26.128  54.787  1.00  0.00    -0.202 N 
HETATM    4  C   UNL     1       5.176  26.772  53.569  1.00  0.00     0.183 A 
HETATM    5  C   UNL     1       5.303  28.137  53.836  1.00  0.00     0.124 A 
HETATM    6  N   UNL     1       5.428  29.033  52.823  1.00  0.00    -0.242 NA
HETATM    7  C   UNL     1       5.332  28.509  51.589  1.00  0.00     0.086 A 
HETATM    8  C   UNL     1       5.162  27.117  51.353  1.00  0.00     0.088 A 
HETATM    9  N   UNL     1       5.118  26.211  52.341  1.00  0.00    -0.225 NA
HETATM   10  C   UNL     1       5.391  29.368  50.498  1.00  0.00     0.034 A 
HETATM   11  C   UNL     1       5.265  28.899  49.190  1.00  0.00     0.002 A 
HETATM   12  C   UNL     1       5.079  27.544  48.962  1.00  0.00     0.002 A 
HETATM   13  C   UNL     1       5.035  26.666  50.045  1.00  0.00     0.034 A 
ENDROOT
BRANCH   3  14
HETATM   14  N   UNL     1       5.693  24.835  54.995  1.00  0.00    -0.176 NA
HETATM   15  C   UNL     1       6.915  24.805  55.428  1.00  0.00     0.153 C 
BRANCH  15  16
HETATM   16  C   UNL     1       7.631  23.580  55.677  1.00  0.00     0.011 A 
HETATM   17  C   UNL     1       7.892  22.559  54.709  1.00  0.00     0.004 A 
HETATM   18  C   UNL     1       8.493  21.496  55.380  1.00  0.00     0.043 A 
HETATM   19  C   UNL     1       7.651  22.432  53.322  1.00  0.00     0.014 A 
HETATM   20  C   UNL     1       8.847  20.303  54.737  1.00  0.00     0.030 A 
HETATM   21  N   UNL     1       8.628  21.874  56.697  1.00  0.00    -0.364 N 
HETATM   22  C   UNL     1       8.593  20.200  53.367  1.00  0.00     0.002 A 
HETATM   23  C   UNL     1       8.011  21.251  52.664  1.00  0.00     0.001 A 
HETATM   24  H   UNL     1       9.022  21.292  57.423  1.00  0.00     0.165 HD
HETATM   25  C   UNL     1       8.130  23.137  56.884  1.00  0.00     0.102 A 
ENDBRANCH  15  16
ENDBRANCH   3  14
BRANCH   2  26
HETATM   26  N   UNL     1       4.536  26.702  57.017  1.00  0.00    -0.286 NA
HETATM   27  H   UNL     1       4.709  27.377  57.768  1.00  0.00     0.125 HD
HETATM   28  H   UNL     1       3.570  26.365  57.089  1.00  0.00     0.125 HD
ENDBRANCH   2  26
BRANCH   1  29
HETATM   29  C   UNL     1       5.649  29.489  56.044  1.00  0.00     0.257 C 
HETATM   30  N   UNL     1       6.194  29.155  57.268  1.00  0.00    -0.352 N 
HETATM   31  H   UNL     1       6.417  28.176  57.381  1.00  0.00     0.163 HD
HETATM   32  O   UNL     1       5.551  30.642  55.644  1.00  0.00    -0.267 OA
BRANCH  30  33
HETATM   33  C   UNL     1       6.930  30.083  58.089  1.00  0.00     0.161 C 
BRANCH  33  34
HETATM   34  C   UNL     1       8.423  30.086  57.826  1.00  0.00    -0.041 A 
HETATM   35  C   UNL     1       9.080  29.169  56.987  1.00  0.00     0.009 A 
HETATM   36  C   UNL     1      10.461  29.239  56.778  1.00  0.00     0.001 A 
HETATM   37  C   UNL     1      11.209  30.235  57.395  1.00  0.00     0.000 A 
HETATM   38  C   UNL     1      10.577  31.167  58.214  1.00  0.00     0.001 A 
HETATM   39  C   UNL     1       9.198  31.096  58.425  1.00  0.00     0.009 A 
ENDBRANCH  33  34
ENDBRANCH  30  33
ENDBRANCH   1  29
TORSDOF 6
ENDMDL
MODEL 2
REMARK VINA RESULT:     -11.3      2.093      8.255
REMARK  6 active torsions:
REMARK  status: ('A' for Active; 'I' for Inactive)
REMARK    1  A    between atoms: C_4  and  C_5 
REMARK    2  A    between atoms: C_5  and  N_6 
REMARK       I    between atoms: N_6  and  C_7 
REMARK    3  A    between atoms: C_7  and  C_8 
REMARK    4  A    between atoms: C_9  and  N_10 
REMARK    5  A    between atoms: N_11  and  N_12 
REMARK    6  A    between atoms: C_13  and  C_14 
ROOT
HETATM    1  C   UNL     1       5.501  25.890  52.810  1.00  0.00     0.104 C 
HETATM    2  C   UNL     1       4.918  26.525  53.901  1.00  0.00     0.123 C 
HETATM    3  N   UNL     1       5.670  26.164  55.018  1.00  0.00    -0.202 N 
HETATM    4  C   UNL     1       6.209  24.921  54.751  1.00  0.00     0.183 A 
HETATM    5  C   UNL     1       6.196  24.777  53.362  1.00  0.00     0.124 A 
HETATM    6  N   UNL     1       6.818  23.726  52.768  1.00  0.00    -0.242 NA
HETATM    7  C   UNL     1       7.349  22.829  53.618  1.00  0.00     0.086 A 
HETATM    8  C   UNL     1       7.309  22.986  55.030  1.00  0.00     0.088 A 
HETATM    9  N   UNL     1       6.769  24.059  55.628  1.00  0.00    -0.225 NA
HETATM   10  C   UNL     1       7.953  21.695  53.090  1.00  0.00     0.034 A 
HETATM   11  C   UNL     1       8.495  20.705  53.911  1.00  0.00     0.002 A 
HETATM   12  C   UNL     1       8.437  20.850  55.289  1.00  0.00     0.002 A 
HETATM   13  C   UNL     1       7.849  21.991  55.834  1.00  0.00     0.034 A 
ENDROOT
BRANCH   3  14
HETATM   14  N   UNL     1       5.926  26.941  56.126  1.00  0.00    -0.176 NA
HETATM   15  C   UNL     1       6.555  28.029  55.806  1.00  0.00     0.153 C 
BRANCH  15  16
HETATM   16  C   UNL     1       6.996  28.997  56.778  1.00  0.00     0.011 A 
HETATM   17  C   UNL     1       8.335  29.482  56.921  1.00  0.00     0.004 A 
HETATM   18  C   UNL     1       8.362  30.300  58.048  1.00  0.00     0.043 A 
HETATM   19  C   UNL     1       9.536  29.280  56.204  1.00  0.00     0.014 A 
HETATM   20  C   UNL     1       9.536  30.911  58.507  1.00  0.00     0.030 A 
HETATM   21  N   UNL     1       7.079  30.343  58.547  1.00  0.00    -0.364 N 
HETATM   22  C   UNL     1      10.711  30.692  57.784  1.00  0.00     0.002 A 
HETATM   23  C   UNL     1      10.713  29.894  56.643  1.00  0.00     0.001 A 
HETATM   24  H   UNL     1       6.803  30.852  59.375  1.00  0.00     0.165 HD
HETATM   25  C   UNL     1       6.242  29.577  57.778  1.00  0.00     0.102 A 
ENDBRANCH  15  16
ENDBRANCH   3  14
BRANCH   2  26
HETATM   26  N   UNL     1       3.928  27.470  53.972  1.00  0.00    -0.286 NA
HETATM   27  H   UNL     1       3.710  27.827  54.907  1.00  0.00     0.125 HD
HETATM   28  H   UNL     1       4.014  28.261  53.325  1.00  0.00     0.125 HD
ENDBRANCH   2  26
BRANCH   1  29
HETATM   29  C   UNL     1       5.401  26.336  51.423  1.00  0.00     0.257 C 
HETATM   30  N   UNL     1       4.352  27.213  51.233  1.00  0.00    -0.352 N 
HETATM   31  H   UNL     1       3.904  27.531  52.082  1.00  0.00     0.163 HD
HETATM   32  O   UNL     1       6.204  26.049  50.545  1.00  0.00    -0.267 OA
BRANCH  30  33
HETATM   33  C   UNL     1       4.233  28.072  50.082  1.00  0.00     0.161 C 
BRANCH  33  34
HETATM   34  C   UNL     1       3.340  27.517  48.989  1.00  0.00    -0.041 A 
HETATM   35  C   UNL     1       3.724  26.504  48.093  1.00  0.00     0.009 A 
HETATM   36  C   UNL     1       2.843  26.029  47.117  1.00  0.00     0.001 A 
HETATM   37  C   UNL     1       1.557  26.549  47.026  1.00  0.00     0.000 A 
HETATM   38  C   UNL     1       1.148  27.539  47.916  1.00  0.00     0.001 A 
HETATM   39  C   UNL     1       2.029  28.015  48.891  1.00  0.00     0.009 A 
ENDBRANCH  33  34
ENDBRANCH  30  33
ENDBRANCH   1  29
TORSDOF 6
ENDMDL
MODEL 3
REMARK VINA RESULT:     -11.0      1.732      7.796
REMARK  6 active torsions:
REMARK  status: ('A' for Active; 'I' for Inactive)
REMARK    1  A    between atoms: C_4  and  C_5 
REMARK    2  A    between atoms: C_5  and  N_6 
REMARK       I    between atoms: N_6  and  C_7 
REMARK    3  A    between atoms: C_7  and  C_8 
REMARK    4  A    between atoms: C_9  and  N_10 
REMARK    5  A    between atoms: N_11  and  N_12 
REMARK    6  A    between atoms: C_13  and  C_14 
ROOT
HETATM    1  C   UNL     1       5.436  26.787  54.160  1.00  0.00     0.104 C 
HETATM    2  C   UNL     1       5.453  27.344  55.434  1.00  0.00     0.123 C 
HETATM    3  N   UNL     1       6.648  26.939  56.027  1.00  0.00    -0.202 N 
HETATM    4  C   UNL     1       6.985  25.728  55.458  1.00  0.00     0.183 A 
HETATM    5  C   UNL     1       6.305  25.662  54.240  1.00  0.00     0.124 A 
HETATM    6  N   UNL     1       6.559  24.661  53.358  1.00  0.00    -0.242 NA
HETATM    7  C   UNL     1       7.428  23.732  53.790  1.00  0.00     0.086 A 
HETATM    8  C   UNL     1       8.073  23.808  55.055  1.00  0.00     0.088 A 
HETATM    9  N   UNL     1       7.893  24.832  55.904  1.00  0.00    -0.225 NA
HETATM   10  C   UNL     1       7.698  22.645  52.969  1.00  0.00     0.034 A 
HETATM   11  C   UNL     1       8.563  21.624  53.366  1.00  0.00     0.002 A 
HETATM   12  C   UNL     1       9.176  21.689  54.608  1.00  0.00     0.002 A 
HETATM   13  C   UNL     1       8.929  22.783  55.438  1.00  0.00     0.034 A 
ENDROOT
BRANCH   3  14
HETATM   14  N   UNL     1       7.409  27.659  56.921  1.00  0.00    -0.176 NA
HETATM   15  C   UNL     1       8.133  28.550  56.317  1.00  0.00     0.153 C 
BRANCH  15  16
HETATM   16  C   UNL     1       9.065  29.405  57.007  1.00  0.00     0.011 A 
HETATM   17  C   UNL     1       8.738  30.300  58.075  1.00  0.00     0.004 A 
HETATM   18  C   UNL     1       9.888  31.029  58.371  1.00  0.00     0.043 A 
HETATM   19  C   UNL     1       7.559  30.574  58.804  1.00  0.00     0.014 A 
HETATM   20  C   UNL     1       9.913  32.033  59.348  1.00  0.00     0.030 A 
HETATM   21  N   UNL     1      10.886  30.565  57.542  1.00  0.00    -0.364 N 
HETATM   22  C   UNL     1       8.733  32.287  60.051  1.00  0.00     0.002 A 
HETATM   23  C   UNL     1       7.572  31.565  59.791  1.00  0.00     0.001 A 
HETATM   24  H   UNL     1      11.830  30.923  57.526  1.00  0.00     0.165 HD
HETATM   25  C   UNL     1      10.406  29.573  56.728  1.00  0.00     0.102 A 
ENDBRANCH  15  16
ENDBRANCH   3  14
BRANCH   2  26
HETATM   26  N   UNL     1       4.624  28.258  56.030  1.00  0.00    -0.286 NA
HETATM   27  H   UNL     1       4.786  28.433  57.026  1.00  0.00     0.125 HD
HETATM   28  H   UNL     1       4.524  29.157  55.546  1.00  0.00     0.125 HD
ENDBRANCH   2  26
BRANCH   1  29
HETATM   29  C   UNL     1       4.683  27.307  53.022  1.00  0.00     0.257 C 
HETATM   30  N   UNL     1       5.351  27.120  51.827  1.00  0.00    -0.352 N 
HETATM   31  H   UNL     1       6.173  26.536  51.887  1.00  0.00     0.163 HD
HETATM   32  O   UNL     1       3.551  27.768  53.094  1.00  0.00    -0.267 OA
BRANCH  30  33
HETATM   33  C   UNL     1       4.711  27.203  50.539  1.00  0.00     0.161 C 
BRANCH  33  34
HETATM   34  C   UNL     1       4.873  28.547  49.856  1.00  0.00    -0.041 A 
HETATM   35  C   UNL     1       5.600  29.624  50.395  1.00  0.00     0.009 A 
HETATM   36  C   UNL     1       5.722  30.833  49.703  1.00  0.00     0.001 A 
HETATM   37  C   UNL     1       5.127  30.985  48.455  1.00  0.00     0.000 A 
HETATM   38  C   UNL     1       4.419  29.926  47.894  1.00  0.00     0.001 A 
HETATM   39  C   UNL     1       4.296  28.718  48.585  1.00  0.00     0.009 A 
ENDBRANCH  33  34
ENDBRANCH  30  33
ENDBRANCH   1  29
TORSDOF 6
ENDMDL
MODEL 4
REMARK VINA RESULT:     -11.0      1.771      6.578
REMARK  6 active torsions:
REMARK  status: ('A' for Active; 'I' for Inactive)
REMARK    1  A    between atoms: C_4  and  C_5 
REMARK    2  A    between atoms: C_5  and  N_6 
REMARK       I    between atoms: N_6  and  C_7 
REMARK    3  A    between atoms: C_7  and  C_8 
REMARK    4  A    between atoms: C_9  and  N_10 
REMARK    5  A    between atoms: N_11  and  N_12 
REMARK    6  A    between atoms: C_13  and  C_14 
ROOT
HETATM    1  C   UNL     1       7.089  26.417  55.163  1.00  0.00     0.104 C 
HETATM    2  C   UNL     1       7.454  27.116  54.018  1.00  0.00     0.123 C 
HETATM    3  N   UNL     1       7.343  26.220  52.955  1.00  0.00    -0.202 N 
HETATM    4  C   UNL     1       7.562  24.960  53.472  1.00  0.00     0.183 A 
HETATM    5  C   UNL     1       7.313  25.047  54.844  1.00  0.00     0.124 A 
HETATM    6  N   UNL     1       7.278  23.930  55.615  1.00  0.00    -0.242 NA
HETATM    7  C   UNL     1       7.581  22.789  54.972  1.00  0.00     0.086 A 
HETATM    8  C   UNL     1       7.869  22.740  53.581  1.00  0.00     0.088 A 
HETATM    9  N   UNL     1       7.829  23.823  52.791  1.00  0.00    -0.225 NA
HETATM   10  C   UNL     1       7.623  21.609  55.704  1.00  0.00     0.034 A 
HETATM   11  C   UNL     1       7.963  20.392  55.112  1.00  0.00     0.002 A 
HETATM   12  C   UNL     1       8.264  20.349  53.759  1.00  0.00     0.002 A 
HETATM   13  C   UNL     1       8.209  21.522  53.006  1.00  0.00     0.034 A 
ENDROOT
BRANCH   3  14
HETATM   14  N   UNL     1       6.971  26.517  51.662  1.00  0.00    -0.176 NA
HETATM   15  C   UNL     1       5.681  26.560  51.538  1.00  0.00     0.153 C 
BRANCH  15  16
HETATM   16  C   UNL     1       5.019  26.796  50.281  1.00  0.00     0.011 A 
HETATM   17  C   UNL     1       4.970  28.047  49.588  1.00  0.00     0.004 A 
HETATM   18  C   UNL     1       4.131  27.881  48.488  1.00  0.00     0.043 A 
HETATM   19  C   UNL     1       5.547  29.319  49.811  1.00  0.00     0.014 A 
HETATM   20  C   UNL     1       3.824  28.927  47.609  1.00  0.00     0.030 A 
HETATM   21  N   UNL     1       3.719  26.566  48.490  1.00  0.00    -0.364 N 
HETATM   22  C   UNL     1       4.404  30.175  47.854  1.00  0.00     0.002 A 
HETATM   23  C   UNL     1       5.260  30.370  48.934  1.00  0.00     0.001 A 
HETATM   24  H   UNL     1       3.089  26.162  47.812  1.00  0.00     0.165 HD
HETATM   25  C   UNL     1       4.264  25.897  49.555  1.00  0.00     0.102 A 
ENDBRANCH  15  16
ENDBRANCH   3  14
BRANCH   2  26
HETATM   26  N   UNL     1       7.710  28.447  53.816  1.00  0.00    -0.286 NA
HETATM   27  H   UNL     1       7.070  28.941  53.187  1.00  0.00     0.125 HD
HETATM   28  H   UNL     1       7.847  29.012  54.661  1.00  0.00     0.125 HD
ENDBRANCH   2  26
BRANCH   1  29
HETATM   29  C   UNL     1       6.574  27.018  56.390  1.00  0.00     0.257 C 
HETATM   30  N   UNL     1       7.325  28.106  56.791  1.00  0.00    -0.352 N 
HETATM   31  H   UNL     1       8.016  28.416  56.121  1.00  0.00     0.163 HD
HETATM   32  O   UNL     1       5.544  26.670  56.951  1.00  0.00    -0.267 OA
BRANCH  30  33
HETATM   33  C   UNL     1       6.858  29.088  57.736  1.00  0.00     0.161 C 
BRANCH  33  34
HETATM   34  C   UNL     1       7.925  30.068  58.185  1.00  0.00    -0.041 A 
HETATM   35  C   UNL     1       7.729  31.054  59.167  1.00  0.00     0.009 A 
HETATM   36  C   UNL     1       8.763  31.916  59.544  1.00  0.00     0.001 A 
HETATM   37  C   UNL     1      10.017  31.800  58.954  1.00  0.00     0.000 A 
HETATM   38  C   UNL     1      10.240  30.817  57.993  1.00  0.00     0.001 A 
HETATM   39  C   UNL     1       9.206  29.957  57.616  1.00  0.00     0.009 A 
ENDBRANCH  33  34
ENDBRANCH  30  33
ENDBRANCH   1  29
TORSDOF 6
ENDMDL
MODEL 5
REMARK VINA RESULT:     -10.9      2.592      8.235
REMARK  6 active torsions:
REMARK  status: ('A' for Active; 'I' for Inactive)
REMARK    1  A    between atoms: C_4  and  C_5 
REMARK    2  A    between atoms: C_5  and  N_6 
REMARK       I    between atoms: N_6  and  C_7 
REMARK    3  A    between atoms: C_7  and  C_8 
REMARK    4  A    between atoms: C_9  and  N_10 
REMARK    5  A    between atoms: N_11  and  N_12 
REMARK    6  A    between atoms: C_13  and  C_14 
ROOT
HETATM    1  C   UNL     1       7.386  26.462  56.685  1.00  0.00     0.104 C 
HETATM    2  C   UNL     1       7.320  27.701  57.313  1.00  0.00     0.123 C 
HETATM    3  N   UNL     1       6.272  28.395  56.708  1.00  0.00    -0.202 N 
HETATM    4  C   UNL     1       6.172  27.920  55.417  1.00  0.00     0.183 A 
HETATM    5  C   UNL     1       6.784  26.664  55.411  1.00  0.00     0.124 A 
HETATM    6  N   UNL     1       6.702  25.858  54.321  1.00  0.00    -0.242 NA
HETATM    7  C   UNL     1       6.077  26.400  53.262  1.00  0.00     0.086 A 
HETATM    8  C   UNL     1       5.499  27.698  53.288  1.00  0.00     0.088 A 
HETATM    9  N   UNL     1       5.502  28.475  54.383  1.00  0.00    -0.225 NA
HETATM   10  C   UNL     1       6.002  25.660  52.088  1.00  0.00     0.034 A 
HETATM   11  C   UNL     1       5.397  26.171  50.939  1.00  0.00     0.002 A 
HETATM   12  C   UNL     1       4.853  27.447  50.959  1.00  0.00     0.002 A 
HETATM   13  C   UNL     1       4.904  28.195  52.135  1.00  0.00     0.034 A 
ENDROOT
BRANCH   3  14
HETATM   14  N   UNL     1       5.424  29.297  57.312  1.00  0.00    -0.176 NA
HETATM   15  C   UNL     1       5.967  30.471  57.404  1.00  0.00     0.153 C 
BRANCH  15  16
HETATM   16  C   UNL     1       5.322  31.589  58.043  1.00  0.00     0.011 A 
HETATM   17  C   UNL     1       5.735  32.197  59.270  1.00  0.00     0.004 A 
HETATM   18  C   UNL     1       4.777  33.153  59.603  1.00  0.00     0.043 A 
HETATM   19  C   UNL     1       6.830  32.006  60.144  1.00  0.00     0.014 A 
HETATM   20  C   UNL     1       4.848  33.914  60.777  1.00  0.00     0.030 A 
HETATM   21  N   UNL     1       3.839  33.153  58.594  1.00  0.00    -0.364 N 
HETATM   22  C   UNL     1       5.937  33.702  61.626  1.00  0.00     0.002 A 
HETATM   23  C   UNL     1       6.920  32.768  61.314  1.00  0.00     0.001 A 
HETATM   24  H   UNL     1       3.017  33.739  58.576  1.00  0.00     0.165 HD
HETATM   25  C   UNL     1       4.167  32.227  57.638  1.00  0.00     0.102 A 
ENDBRANCH  15  16
ENDBRANCH   3  14
BRANCH   2  26
HETATM   26  N   UNL     1       7.965  28.188  58.420  1.00  0.00    -0.286 NA
HETATM   27  H   UNL     1       8.449  29.083  58.304  1.00  0.00     0.125 HD
HETATM   28  H   UNL     1       7.414  28.217  59.285  1.00  0.00     0.125 HD
ENDBRANCH   2  26
BRANCH   1  29
HETATM   29  C   UNL     1       7.948  25.249  57.272  1.00  0.00     0.257 C 
HETATM   30  N   UNL     1       7.601  24.118  56.559  1.00  0.00    -0.352 N 
HETATM   31  H   UNL     1       7.145  24.295  55.675  1.00  0.00     0.163 HD
HETATM   32  O   UNL     1       8.716  25.233  58.225  1.00  0.00    -0.267 OA
BRANCH  30  33
HETATM   33  C   UNL     1       8.287  22.857  56.689  1.00  0.00     0.161 C 
BRANCH  33  34
HETATM   34  C   UNL     1       8.320  22.040  55.411  1.00  0.00    -0.041 A 
HETATM   35  C   UNL     1       8.681  20.682  55.351  1.00  0.00     0.009 A 
HETATM   36  C   UNL     1       8.676  19.985  54.138  1.00  0.00     0.001 A 
HETATM   37  C   UNL     1       8.299  20.630  52.965  1.00  0.00     0.000 A 
HETATM   38  C   UNL     1       7.919  21.969  53.005  1.00  0.00     0.001 A 
HETATM   39  C   UNL     1       7.925  22.666  54.216  1.00  0.00     0.009 A 
ENDBRANCH  33  34
ENDBRANCH  30  33
ENDBRANCH   1  29
TORSDOF 6
ENDMDL
MODEL 6
REMARK VINA RESULT:     -10.6      3.137      5.229
REMARK  6 active torsions:
REMARK  status: ('A' for Active; 'I' for Inactive)
REMARK    1  A    between atoms: C_4  and  C_5 
REMARK    2  A    between atoms: C_5  and  N_6 
REMARK       I    between atoms: N_6  and  C_7 
REMARK    3  A    between atoms: C_7  and  C_8 
REMARK    4  A    between atoms: C_9  and  N_10 
REMARK    5  A    between atoms: N_11  and  N_12 
REMARK    6  A    between atoms: C_13  and  C_14 
ROOT
HETATM    1  C   UNL     1       7.285  29.867  58.109  1.00  0.00     0.104 C 
HETATM    2  C   UNL     1       7.248  28.544  57.684  1.00  0.00     0.123 C 
HETATM    3  N   UNL     1       6.571  28.539  56.465  1.00  0.00    -0.202 N 
HETATM    4  C   UNL     1       5.699  29.608  56.490  1.00  0.00     0.183 A 
HETATM    5  C   UNL     1       6.189  30.495  57.451  1.00  0.00     0.124 A 
HETATM    6  N   UNL     1       5.645  31.731  57.596  1.00  0.00    -0.242 NA
HETATM    7  C   UNL     1       4.577  31.974  56.817  1.00  0.00     0.086 A 
HETATM    8  C   UNL     1       4.078  31.033  55.875  1.00  0.00     0.088 A 
HETATM    9  N   UNL     1       4.653  29.839  55.664  1.00  0.00    -0.225 NA
HETATM   10  C   UNL     1       3.928  33.196  56.947  1.00  0.00     0.034 A 
HETATM   11  C   UNL     1       2.794  33.505  56.195  1.00  0.00     0.002 A 
HETATM   12  C   UNL     1       2.295  32.578  55.293  1.00  0.00     0.002 A 
HETATM   13  C   UNL     1       2.946  31.354  55.138  1.00  0.00     0.034 A 
ENDROOT
BRANCH   3  14
HETATM   14  N   UNL     1       6.804  27.702  55.396  1.00  0.00    -0.176 NA
HETATM   15  C   UNL     1       6.041  26.655  55.438  1.00  0.00     0.153 C 
BRANCH  15  16
HETATM   16  C   UNL     1       6.114  25.589  54.472  1.00  0.00     0.011 A 
HETATM   17  C   UNL     1       7.059  24.514  54.489  1.00  0.00     0.004 A 
HETATM   18  C   UNL     1       6.874  23.780  53.320  1.00  0.00     0.043 A 
HETATM   19  C   UNL     1       8.075  24.111  55.386  1.00  0.00     0.014 A 
HETATM   20  C   UNL     1       7.667  22.673  52.992  1.00  0.00     0.030 A 
HETATM   21  N   UNL     1       5.829  24.363  52.638  1.00  0.00    -0.364 N 
HETATM   22  C   UNL     1       8.667  22.297  53.893  1.00  0.00     0.002 A 
HETATM   23  C   UNL     1       8.866  23.000  55.078  1.00  0.00     0.001 A 
HETATM   24  H   UNL     1       5.481  24.047  51.744  1.00  0.00     0.165 HD
HETATM   25  C   UNL     1       5.350  25.443  53.332  1.00  0.00     0.102 A 
ENDBRANCH  15  16
ENDBRANCH   3  14
BRANCH   2  26
HETATM   26  N   UNL     1       7.865  27.422  58.173  1.00  0.00    -0.286 NA
HETATM   27  H   UNL     1       8.871  27.346  57.997  1.00  0.00     0.125 HD
HETATM   28  H   UNL     1       7.681  27.200  59.157  1.00  0.00     0.125 HD
ENDBRANCH   2  26
BRANCH   1  29
HETATM   29  C   UNL     1       8.275  30.433  59.021  1.00  0.00     0.257 C 
HETATM   30  N   UNL     1       8.076  31.783  59.232  1.00  0.00    -0.352 N 
HETATM   31  H   UNL     1       7.212  32.150  58.857  1.00  0.00     0.163 HD
HETATM   32  O   UNL     1       9.125  29.779  59.610  1.00  0.00    -0.267 OA
BRANCH  30  33
HETATM   33  C   UNL     1       8.660  32.509  60.333  1.00  0.00     0.161 C 
BRANCH  33  34
HETATM   34  C   UNL     1       7.772  32.584  61.560  1.00  0.00    -0.041 A 
HETATM   35  C   UNL     1       8.252  32.589  62.882  1.00  0.00     0.009 A 
HETATM   36  C   UNL     1       7.377  32.675  63.969  1.00  0.00     0.001 A 
HETATM   37  C   UNL     1       6.006  32.767  63.755  1.00  0.00     0.000 A 
HETATM   38  C   UNL     1       5.510  32.783  62.453  1.00  0.00     0.001 A 
HETATM   39  C   UNL     1       6.384  32.697  61.367  1.00  0.00     0.009 A 
ENDBRANCH  33  34
ENDBRANCH  30  33
ENDBRANCH   1  29
TORSDOF 6
ENDMDL
MODEL 7
REMARK VINA RESULT:     -10.6      1.869      6.509
REMARK  6 active torsions:
REMARK  status: ('A' for Active; 'I' for Inactive)
REMARK    1  A    between atoms: C_4  and  C_5 
REMARK    2  A    between atoms: C_5  and  N_6 
REMARK       I    between atoms: N_6  and  C_7 
REMARK    3  A    between atoms: C_7  and  C_8 
REMARK    4  A    between atoms: C_9  and  N_10 
REMARK    5  A    between atoms: N_11  and  N_12 
REMARK    6  A    between atoms: C_13  and  C_14 
ROOT
HETATM    1  C   UNL     1       6.252  29.294  55.639  1.00  0.00     0.104 C 
HETATM    2  C   UNL     1       7.225  28.386  55.235  1.00  0.00     0.123 C 
HETATM    3  N   UNL     1       7.882  27.969  56.392  1.00  0.00    -0.202 N 
HETATM    4  C   UNL     1       7.794  29.007  57.297  1.00  0.00     0.183 A 
HETATM    5  C   UNL     1       6.714  29.794  56.890  1.00  0.00     0.124 A 
HETATM    6  N   UNL     1       6.259  30.806  57.673  1.00  0.00    -0.242 NA
HETATM    7  C   UNL     1       6.975  31.022  58.790  1.00  0.00     0.086 A 
HETATM    8  C   UNL     1       8.094  30.226  59.156  1.00  0.00     0.088 A 
HETATM    9  N   UNL     1       8.507  29.174  58.433  1.00  0.00    -0.225 NA
HETATM   10  C   UNL     1       6.608  32.077  59.617  1.00  0.00     0.034 A 
HETATM   11  C   UNL     1       7.324  32.383  60.775  1.00  0.00     0.002 A 
HETATM   12  C   UNL     1       8.429  31.619  61.119  1.00  0.00     0.002 A 
HETATM   13  C   UNL     1       8.800  30.545  60.309  1.00  0.00     0.034 A 
ENDROOT
BRANCH   3  14
HETATM   14  N   UNL     1       8.414  26.721  56.633  1.00  0.00    -0.176 NA
HETATM   15  C   UNL     1       7.716  25.790  56.062  1.00  0.00     0.153 C 
BRANCH  15  16
HETATM   16  C   UNL     1       8.017  24.387  56.195  1.00  0.00     0.011 A 
HETATM   17  C   UNL     1       7.970  23.423  55.139  1.00  0.00     0.004 A 
HETATM   18  C   UNL     1       8.202  22.172  55.709  1.00  0.00     0.043 A 
HETATM   19  C   UNL     1       7.727  23.496  53.748  1.00  0.00     0.014 A 
HETATM   20  C   UNL     1       8.184  20.989  54.960  1.00  0.00     0.030 A 
HETATM   21  N   UNL     1       8.422  22.375  57.053  1.00  0.00    -0.364 N 
HETATM   22  C   UNL     1       7.938  21.088  53.588  1.00  0.00     0.002 A 
HETATM   23  C   UNL     1       7.719  22.324  52.986  1.00  0.00     0.001 A 
HETATM   24  H   UNL     1       8.604  21.640  57.722  1.00  0.00     0.165 HD
HETATM   25  C   UNL     1       8.332  23.709  57.355  1.00  0.00     0.102 A 
ENDBRANCH  15  16
ENDBRANCH   3  14
BRANCH   2  26
HETATM   26  N   UNL     1       7.468  27.806  54.017  1.00  0.00    -0.286 NA
HETATM   27  H   UNL     1       7.026  26.896  53.855  1.00  0.00     0.125 HD
HETATM   28  H   UNL     1       7.315  28.402  53.197  1.00  0.00     0.125 HD
ENDBRANCH   2  26
BRANCH   1  29
HETATM   29  C   UNL     1       5.031  29.606  54.901  1.00  0.00     0.257 C 
HETATM   30  N   UNL     1       5.219  29.540  53.534  1.00  0.00    -0.352 N 
HETATM   31  H   UNL     1       6.107  29.153  53.245  1.00  0.00     0.163 HD
HETATM   32  O   UNL     1       3.942  29.807  55.421  1.00  0.00    -0.267 OA
BRANCH  30  33
HETATM   33  C   UNL     1       4.136  29.446  52.588  1.00  0.00     0.161 C 
BRANCH  33  34
HETATM   34  C   UNL     1       4.325  28.366  51.541  1.00  0.00    -0.041 A 
HETATM   35  C   UNL     1       5.017  27.162  51.765  1.00  0.00     0.009 A 
HETATM   36  C   UNL     1       5.142  26.201  50.757  1.00  0.00     0.001 A 
HETATM   37  C   UNL     1       4.568  26.421  49.509  1.00  0.00     0.000 A 
HETATM   38  C   UNL     1       3.862  27.597  49.272  1.00  0.00     0.001 A 
HETATM   39  C   UNL     1       3.738  28.558  50.279  1.00  0.00     0.009 A 
ENDBRANCH  33  34
ENDBRANCH  30  33
ENDBRANCH   1  29
TORSDOF 6
ENDMDL
MODEL 8
REMARK VINA RESULT:     -10.6      2.990      8.477
REMARK  6 active torsions:
REMARK  status: ('A' for Active; 'I' for Inactive)
REMARK    1  A    between atoms: C_4  and  C_5 
REMARK    2  A    between atoms: C_5  and  N_6 
REMARK       I    between atoms: N_6  and  C_7 
REMARK    3  A    between atoms: C_7  and  C_8 
REMARK    4  A    between atoms: C_9  and  N_10 
REMARK    5  A    between atoms: N_11  and  N_12 
REMARK    6  A    between atoms: C_13  and  C_14 
ROOT
HETATM    1  C   UNL     1       7.120  27.570  57.046  1.00  0.00     0.104 C 
HETATM    2  C   UNL     1       7.324  28.732  57.781  1.00  0.00     0.123 C 
HETATM    3  N   UNL     1       6.275  29.593  57.460  1.00  0.00    -0.202 N 
HETATM    4  C   UNL     1       5.877  29.275  56.178  1.00  0.00     0.183 A 
HETATM    5  C   UNL     1       6.318  27.971  55.939  1.00  0.00     0.124 A 
HETATM    6  N   UNL     1       5.935  27.303  54.821  1.00  0.00    -0.242 NA
HETATM    7  C   UNL     1       5.193  28.020  53.960  1.00  0.00     0.086 A 
HETATM    8  C   UNL     1       4.794  29.360  54.215  1.00  0.00     0.088 A 
HETATM    9  N   UNL     1       5.097  30.006  55.351  1.00  0.00    -0.225 NA
HETATM   10  C   UNL     1       4.809  27.426  52.764  1.00  0.00     0.034 A 
HETATM   11  C   UNL     1       4.066  28.120  51.807  1.00  0.00     0.002 A 
HETATM   12  C   UNL     1       3.696  29.434  52.048  1.00  0.00     0.002 A 
HETATM   13  C   UNL     1       4.059  30.039  53.251  1.00  0.00     0.034 A 
ENDROOT
BRANCH   3  14
HETATM   14  N   UNL     1       5.672  30.505  58.298  1.00  0.00    -0.176 NA
HETATM   15  C   UNL     1       6.538  31.324  58.808  1.00  0.00     0.153 C 
BRANCH  15  16
HETATM   16  C   UNL     1       6.188  32.346  59.761  1.00  0.00     0.011 A 
HETATM   17  C   UNL     1       6.775  32.512  61.056  1.00  0.00     0.004 A 
HETATM   18  C   UNL     1       6.072  33.526  61.703  1.00  0.00     0.043 A 
HETATM   19  C   UNL     1       7.830  31.874  61.747  1.00  0.00     0.014 A 
HETATM   20  C   UNL     1       6.358  33.921  63.016  1.00  0.00     0.030 A 
HETATM   21  N   UNL     1       5.120  33.985  60.820  1.00  0.00    -0.364 N 
HETATM   22  C   UNL     1       7.403  33.272  63.679  1.00  0.00     0.002 A 
HETATM   23  C   UNL     1       8.136  32.267  63.054  1.00  0.00     0.001 A 
HETATM   24  H   UNL     1       4.452  34.715  61.025  1.00  0.00     0.165 HD
HETATM   25  C   UNL     1       5.193  33.295  59.639  1.00  0.00     0.102 A 
ENDBRANCH  15  16
ENDBRANCH   3  14
BRANCH   2  26
HETATM   26  N   UNL     1       8.220  29.025  58.776  1.00  0.00    -0.286 NA
HETATM   27  H   UNL     1       9.098  28.497  58.763  1.00  0.00     0.125 HD
HETATM   28  H   UNL     1       8.431  30.019  58.912  1.00  0.00     0.125 HD
ENDBRANCH   2  26
BRANCH   1  29
HETATM   29  C   UNL     1       7.629  26.248  57.400  1.00  0.00     0.257 C 
HETATM   30  N   UNL     1       7.869  25.468  56.286  1.00  0.00    -0.352 N 
HETATM   31  H   UNL     1       7.803  25.955  55.403  1.00  0.00     0.163 HD
HETATM   32  O   UNL     1       7.905  25.896  58.539  1.00  0.00    -0.267 OA
BRANCH  30  33
HETATM   33  C   UNL     1       8.691  24.284  56.308  1.00  0.00     0.161 C 
BRANCH  33  34
HETATM   34  C   UNL     1       8.394  23.307  55.186  1.00  0.00    -0.041 A 
HETATM   35  C   UNL     1       8.359  21.910  55.345  1.00  0.00     0.009 A 
HETATM   36  C   UNL     1       8.063  21.067  54.269  1.00  0.00     0.001 A 
HETATM   37  C   UNL     1       7.787  21.606  53.017  1.00  0.00     0.000 A 
HETATM   38  C   UNL     1       7.797  22.988  52.842  1.00  0.00     0.001 A 
HETATM   39  C   UNL     1       8.093  23.830  53.917  1.00  0.00     0.009 A 
ENDBRANCH  33  34
ENDBRANCH  30  33
ENDBRANCH   1  29
TORSDOF 6
ENDMDL
MODEL 9
REMARK VINA RESULT:     -10.6      2.130      7.433
REMARK  6 active torsions:
REMARK  status: ('A' for Active; 'I' for Inactive)
REMARK    1  A    between atoms: C_4  and  C_5 
REMARK    2  A    between atoms: C_5  and  N_6 
REMARK       I    between atoms: N_6  and  C_7 
REMARK    3  A    between atoms: C_7  and  C_8 
REMARK    4  A    between atoms: C_9  and  N_10 
REMARK    5  A    between atoms: N_11  and  N_12 
REMARK    6  A    between atoms: C_13  and  C_14 
ROOT
HETATM    1  C   UNL     1       6.339  27.001  56.112  1.00  0.00     0.104 C 
HETATM    2  C   UNL     1       5.378  26.710  55.150  1.00  0.00     0.123 C 
HETATM    3  N   UNL     1       4.976  27.932  54.611  1.00  0.00    -0.202 N 
HETATM    4  C   UNL     1       5.150  28.880  55.599  1.00  0.00     0.183 A 
HETATM    5  C   UNL     1       6.076  28.347  56.498  1.00  0.00     0.124 A 
HETATM    6  N   UNL     1       6.590  29.108  57.498  1.00  0.00    -0.242 NA
HETATM    7  C   UNL     1       6.075  30.347  57.587  1.00  0.00     0.086 A 
HETATM    8  C   UNL     1       5.102  30.845  56.679  1.00  0.00     0.088 A 
HETATM    9  N   UNL     1       4.644  30.133  55.639  1.00  0.00    -0.225 NA
HETATM   10  C   UNL     1       6.507  31.169  58.620  1.00  0.00     0.034 A 
HETATM   11  C   UNL     1       5.992  32.455  58.796  1.00  0.00     0.002 A 
HETATM   12  C   UNL     1       5.028  32.932  57.922  1.00  0.00     0.002 A 
HETATM   13  C   UNL     1       4.597  32.125  56.869  1.00  0.00     0.034 A 
ENDROOT
BRANCH   3  14
HETATM   14  N   UNL     1       4.589  28.172  53.311  1.00  0.00    -0.176 NA
HETATM   15  C   UNL     1       5.599  28.515  52.572  1.00  0.00     0.153 C 
BRANCH  15  16
HETATM   16  C   UNL     1       5.471  28.877  51.184  1.00  0.00     0.011 A 
HETATM   17  C   UNL     1       5.128  27.983  50.120  1.00  0.00     0.004 A 
HETATM   18  C   UNL     1       5.236  28.696  48.928  1.00  0.00     0.043 A 
HETATM   19  C   UNL     1       4.755  26.621  50.060  1.00  0.00     0.014 A 
HETATM   20  C   UNL     1       5.011  28.110  47.676  1.00  0.00     0.030 A 
HETATM   21  N   UNL     1       5.592  29.985  49.259  1.00  0.00    -0.364 N 
HETATM   22  C   UNL     1       4.648  26.761  47.644  1.00  0.00     0.002 A 
HETATM   23  C   UNL     1       4.514  26.025  48.818  1.00  0.00     0.001 A 
HETATM   24  H   UNL     1       5.756  30.724  48.590  1.00  0.00     0.165 HD
HETATM   25  C   UNL     1       5.717  30.111  50.618  1.00  0.00     0.102 A 
ENDBRANCH  15  16
ENDBRANCH   3  14
BRANCH   2  26
HETATM   26  N   UNL     1       4.962  25.516  54.622  1.00  0.00    -0.286 NA
HETATM   27  H   UNL     1       4.388  24.928  55.232  1.00  0.00     0.125 HD
HETATM   28  H   UNL     1       4.524  25.562  53.695  1.00  0.00     0.125 HD
ENDBRANCH   2  26
BRANCH   1  29
HETATM   29  C   UNL     1       7.379  26.084  56.569  1.00  0.00     0.257 C 
HETATM   30  N   UNL     1       6.940  24.775  56.602  1.00  0.00    -0.352 N 
HETATM   31  H   UNL     1       6.037  24.618  56.177  1.00  0.00     0.163 HD
HETATM   32  O   UNL     1       8.535  26.411  56.805  1.00  0.00    -0.267 OA
BRANCH  30  33
HETATM   33  C   UNL     1       7.829  23.641  56.662  1.00  0.00     0.161 C 
BRANCH  33  34
HETATM   34  C   UNL     1       7.840  22.800  55.400  1.00  0.00    -0.041 A 
HETATM   35  C   UNL     1       7.858  23.330  54.098  1.00  0.00     0.009 A 
HETATM   36  C   UNL     1       7.882  22.495  52.977  1.00  0.00     0.001 A 
HETATM   37  C   UNL     1       7.901  21.114  53.137  1.00  0.00     0.000 A 
HETATM   38  C   UNL     1       7.905  20.567  54.418  1.00  0.00     0.001 A 
HETATM   39  C   UNL     1       7.878  21.402  55.538  1.00  0.00     0.009 A 
ENDBRANCH  33  34
ENDBRANCH  30  33
ENDBRANCH   1  29
TORSDOF 6
ENDMDL
MODEL 10
REMARK VINA RESULT:     -10.5      1.707      6.493
REMARK  6 active torsions:
REMARK  status: ('A' for Active; 'I' for Inactive)
REMARK    1  A    between atoms: C_4  and  C_5 
REMARK    2  A    between atoms: C_5  and  N_6 
REMARK       I    between atoms: N_6  and  C_7 
REMARK    3  A    between atoms: C_7  and  C_8 
REMARK    4  A    between atoms: C_9  and  N_10 
REMARK    5  A    between atoms: N_11  and  N_12 
REMARK    6  A    between atoms: C_13  and  C_14 
ROOT
HETATM    1  C   UNL     1       5.469  28.045  53.345  1.00  0.00     0.104 C 
HETATM    2  C   UNL     1       6.412  27.169  52.818  1.00  0.00     0.123 C 
HETATM    3  N   UNL     1       7.187  26.731  53.891  1.00  0.00    -0.202 N 
HETATM    4  C   UNL     1       7.172  27.740  54.832  1.00  0.00     0.183 A 
HETATM    5  C   UNL     1       6.044  28.517  54.559  1.00  0.00     0.124 A 
HETATM    6  N   UNL     1       5.652  29.496  55.414  1.00  0.00    -0.242 NA
HETATM    7  C   UNL     1       6.472  29.695  56.461  1.00  0.00     0.086 A 
HETATM    8  C   UNL     1       7.636  28.911  56.689  1.00  0.00     0.088 A 
HETATM    9  N   UNL     1       7.992  27.889  55.897  1.00  0.00    -0.225 NA
HETATM   10  C   UNL     1       6.171  30.717  57.352  1.00  0.00     0.034 A 
HETATM   11  C   UNL     1       6.994  31.003  58.443  1.00  0.00     0.002 A 
HETATM   12  C   UNL     1       8.140  30.252  58.652  1.00  0.00     0.002 A 
HETATM   13  C   UNL     1       8.447  29.210  57.777  1.00  0.00     0.034 A 
ENDROOT
BRANCH   3  14
HETATM   14  N   UNL     1       7.763  25.488  54.039  1.00  0.00    -0.176 NA
HETATM   15  C   UNL     1       7.368  24.911  55.131  1.00  0.00     0.153 C 
BRANCH  15  16
HETATM   16  C   UNL     1       7.855  23.625  55.562  1.00  0.00     0.011 A 
HETATM   17  C   UNL     1       8.083  22.496  54.713  1.00  0.00     0.004 A 
HETATM   18  C   UNL     1       8.427  21.423  55.534  1.00  0.00     0.043 A 
HETATM   19  C   UNL     1       8.008  22.281  53.318  1.00  0.00     0.014 A 
HETATM   20  C   UNL     1       8.678  20.140  55.031  1.00  0.00     0.030 A 
HETATM   21  N   UNL     1       8.445  21.894  56.828  1.00  0.00    -0.364 N 
HETATM   22  C   UNL     1       8.592  19.954  53.649  1.00  0.00     0.002 A 
HETATM   23  C   UNL     1       8.269  21.009  52.800  1.00  0.00     0.001 A 
HETATM   24  H   UNL     1       8.650  21.330  57.640  1.00  0.00     0.165 HD
HETATM   25  C   UNL     1       8.121  23.225  56.855  1.00  0.00     0.102 A 
ENDBRANCH  15  16
ENDBRANCH   3  14
BRANCH   2  26
HETATM   26  N   UNL     1       6.542  26.630  51.565  1.00  0.00    -0.286 NA
HETATM   27  H   UNL     1       6.761  25.630  51.524  1.00  0.00     0.125 HD
HETATM   28  H   UNL     1       5.781  26.831  50.908  1.00  0.00     0.125 HD
ENDBRANCH   2  26
BRANCH   1  29
HETATM   29  C   UNL     1       4.176  28.353  52.742  1.00  0.00     0.257 C 
HETATM   30  N   UNL     1       4.309  28.986  51.521  1.00  0.00    -0.352 N 
HETATM   31  H   UNL     1       5.251  29.013  51.156  1.00  0.00     0.163 HD
HETATM   32  O   UNL     1       3.097  28.010  53.206  1.00  0.00    -0.267 OA
BRANCH  30  33
HETATM   33  C   UNL     1       3.242  29.082  50.556  1.00  0.00     0.161 C 
BRANCH  33  34
HETATM   34  C   UNL     1       3.325  28.056  49.443  1.00  0.00    -0.041 A 
HETATM   35  C   UNL     1       4.516  27.432  49.030  1.00  0.00     0.009 A 
HETATM   36  C   UNL     1       4.518  26.482  48.004  1.00  0.00     0.001 A 
HETATM   37  C   UNL     1       3.327  26.130  47.379  1.00  0.00     0.000 A 
HETATM   38  C   UNL     1       2.132  26.720  47.784  1.00  0.00     0.001 A 
HETATM   39  C   UNL     1       2.131  27.670  48.809  1.00  0.00     0.009 A 
ENDBRANCH  33  34
ENDBRANCH  30  33
ENDBRANCH   1  29
TORSDOF 6
ENDMDL
