MODEL 1
REMARK VINA RESULT:     -10.3      0.000      0.000
REMARK  7 active torsions:
REMARK  status: ('A' for Active; 'I' for Inactive)
REMARK    1  A    between atoms: C_2  and  N_3 
REMARK    2  A    between atoms: C_5  and  C_6 
REMARK    3  A    between atoms: C_6  and  N_7 
REMARK       I    between atoms: N_7  and  C_8 
REMARK    4  A    between atoms: C_8  and  C_9 
REMARK    5  A    between atoms: N_15  and  C_16 
REMARK    6  A    between atoms: C_16  and  C_17 
REMARK       I    between atoms: C_17  and  N_18 
REMARK    7  A    between atoms: N_18  and  C_19 
ROOT
HETATM    1  C   UNL     1       7.230  31.557  59.956  1.00  0.00     0.081 C 
HETATM    2  S   UNL     1       8.501  30.405  59.914  1.00  0.00    -0.063 SA
HETATM    3  C   UNL     1       8.060  29.858  58.372  1.00  0.00     0.116 C 
HETATM    4  C   UNL     1       6.979  30.547  57.867  1.00  0.00     0.075 C 
HETATM    5  C   UNL     1       6.434  30.073  56.600  1.00  0.00     0.262 C 
HETATM    6  O   UNL     1       5.490  30.612  56.024  1.00  0.00    -0.267 OA
HETATM    7  N   UNL     1       7.041  28.921  56.113  1.00  0.00    -0.299 N 
HETATM    8  C   UNL     1       8.175  28.392  56.697  1.00  0.00     0.214 C 
HETATM    9  N   UNL     1       8.713  28.821  57.792  1.00  0.00    -0.235 NA
HETATM   10  C   UNL     1       6.535  31.613  58.746  1.00  0.00    -0.021 C 
HETATM   11  C   UNL     1       5.414  32.555  58.430  1.00  0.00     0.051 C 
ENDROOT
BRANCH   1  12
HETATM   12  C   UNL     1       7.014  32.232  61.228  1.00  0.00     0.259 C 
HETATM   13  N   UNL     1       5.861  31.926  61.921  1.00  0.00    -0.354 N 
HETATM   14  H   UNL     1       5.096  31.539  61.378  1.00  0.00     0.162 HD
HETATM   15  O   UNL     1       7.833  32.986  61.760  1.00  0.00    -0.267 OA
BRANCH  13  16
HETATM   16  C   UNL     1       5.538  32.544  63.203  1.00  0.00     0.156 C 
BRANCH  16  17
HETATM   17  C   UNL     1       4.702  33.856  63.139  1.00  0.00     0.206 C 
HETATM   18  N   UNL     1       3.443  33.785  64.005  1.00  0.00    -0.066 N 
HETATM   19  H   UNL     1       3.320  32.785  64.275  1.00  0.00     0.280 HD
HETATM   20  C   UNL     1       2.262  34.128  63.130  1.00  0.00     0.235 C 
HETATM   21  C   UNL     1       2.729  33.774  61.737  1.00  0.00     0.030 C 
HETATM   22  C   UNL     1       4.185  34.197  61.740  1.00  0.00     0.036 C 
BRANCH  18  23
HETATM   23  C   UNL     1       3.524  34.546  65.295  1.00  0.00     0.231 C 
HETATM   24  C   UNL     1       4.105  35.929  65.064  1.00  0.00     0.034 C 
ENDBRANCH  18  23
ENDBRANCH  16  17
ENDBRANCH  13  16
ENDBRANCH   1  12
BRANCH   7  25
HETATM   25  C   UNL     1       6.412  28.230  55.005  1.00  0.00     0.236 C 
BRANCH  25  26
HETATM   26  C   UNL     1       6.446  26.721  55.211  1.00  0.00     0.240 C 
HETATM   27  N   UNL     1       7.540  26.123  54.612  1.00  0.00    -0.326 N 
HETATM   28  H   UNL     1       8.327  26.731  54.388  1.00  0.00     0.169 HD
HETATM   29  O   UNL     1       5.592  26.165  55.893  1.00  0.00    -0.271 OA
BRANCH  27  30
HETATM   30  C   UNL     1       7.705  24.752  54.335  1.00  0.00     0.036 A 
HETATM   31  C   UNL     1       7.806  23.772  55.324  1.00  0.00     0.053 A 
HETATM   32  C   UNL     1       7.878  22.418  54.975  1.00  0.00     0.042 A 
HETATM   33 CL   UNL     1       7.967  21.259  56.255  1.00  0.00    -0.084 Cl
HETATM   34  C   UNL     1       7.857  22.018  53.631  1.00  0.00    -0.040 A 
HETATM   35  C   UNL     1       7.907  20.570  53.231  1.00  0.00     0.050 C 
HETATM   36  C   UNL     1       7.772  23.008  52.643  1.00  0.00     0.011 A 
HETATM   37  C   UNL     1       7.693  24.360  52.993  1.00  0.00     0.030 A 
ENDBRANCH  27  30
ENDBRANCH  25  26
ENDBRANCH   7  25
TORSDOF 7
ENDMDL
MODEL 2
REMARK VINA RESULT:     -10.3      2.003      2.792
REMARK  7 active torsions:
REMARK  status: ('A' for Active; 'I' for Inactive)
REMARK    1  A    between atoms: C_2  and  N_3 
REMARK    2  A    between atoms: C_5  and  C_6 
REMARK    3  A    between atoms: C_6  and  N_7 
REMARK       I    between atoms: N_7  and  C_8 
REMARK    4  A    between atoms: C_8  and  C_9 
REMARK    5  A    between atoms: N_15  and  C_16 
REMARK    6  A    between atoms: C_16  and  C_17 
REMARK       I    between atoms: C_17  and  N_18 
REMARK    7  A    between atoms: N_18  and  C_19 
ROOT
HETATM    1  C   UNL     1       5.850  30.917  58.376  1.00  0.00     0.081 C 
HETATM    2  S   UNL     1       4.252  30.742  57.777  1.00  0.00    -0.063 SA
HETATM    3  C   UNL     1       4.737  29.653  56.572  1.00  0.00     0.116 C 
HETATM    4  C   UNL     1       6.089  29.393  56.624  1.00  0.00     0.075 C 
HETATM    5  C   UNL     1       6.639  28.568  55.553  1.00  0.00     0.262 C 
HETATM    6  O   UNL     1       7.822  28.237  55.492  1.00  0.00    -0.267 OA
HETATM    7  N   UNL     1       5.720  28.225  54.568  1.00  0.00    -0.299 N 
HETATM    8  C   UNL     1       4.372  28.496  54.703  1.00  0.00     0.214 C 
HETATM    9  N   UNL     1       3.846  29.179  55.666  1.00  0.00    -0.235 NA
HETATM   10  C   UNL     1       6.745  30.056  57.736  1.00  0.00    -0.021 C 
HETATM   11  C   UNL     1       8.199  29.912  58.066  1.00  0.00     0.051 C 
ENDROOT
BRANCH   1  12
HETATM   12  C   UNL     1       6.054  31.957  59.373  1.00  0.00     0.259 C 
HETATM   13  N   UNL     1       5.216  31.959  60.468  1.00  0.00    -0.354 N 
HETATM   14  H   UNL     1       4.325  31.484  60.358  1.00  0.00     0.162 HD
HETATM   15  O   UNL     1       6.979  32.773  59.344  1.00  0.00    -0.267 OA
BRANCH  13  16
HETATM   16  C   UNL     1       5.325  32.956  61.529  1.00  0.00     0.156 C 
BRANCH  16  17
HETATM   17  C   UNL     1       5.770  32.425  62.923  1.00  0.00     0.206 C 
HETATM   18  N   UNL     1       5.972  33.555  63.936  1.00  0.00    -0.066 N 
HETATM   19  H   UNL     1       5.972  34.447  63.396  1.00  0.00     0.280 HD
HETATM   20  C   UNL     1       7.361  33.416  64.511  1.00  0.00     0.235 C 
HETATM   21  C   UNL     1       8.123  32.675  63.436  1.00  0.00     0.030 C 
HETATM   22  C   UNL     1       7.107  31.682  62.908  1.00  0.00     0.036 C 
BRANCH  18  23
HETATM   23  C   UNL     1       4.874  33.694  64.949  1.00  0.00     0.231 C 
HETATM   24  C   UNL     1       5.447  34.010  66.318  1.00  0.00     0.034 C 
ENDBRANCH  18  23
ENDBRANCH  16  17
ENDBRANCH  13  16
ENDBRANCH   1  12
BRANCH   7  25
HETATM   25  C   UNL     1       6.216  27.630  53.343  1.00  0.00     0.236 C 
BRANCH  25  26
HETATM   26  C   UNL     1       6.161  26.110  53.411  1.00  0.00     0.240 C 
HETATM   27  N   UNL     1       7.197  25.569  54.150  1.00  0.00    -0.326 N 
HETATM   28  H   UNL     1       7.673  26.196  54.798  1.00  0.00     0.169 HD
HETATM   29  O   UNL     1       5.237  25.495  52.890  1.00  0.00    -0.271 OA
BRANCH  27  30
HETATM   30  C   UNL     1       7.624  24.226  54.146  1.00  0.00     0.036 A 
HETATM   31  C   UNL     1       7.794  23.468  55.305  1.00  0.00     0.053 A 
HETATM   32  C   UNL     1       8.134  22.113  55.223  1.00  0.00     0.042 A 
HETATM   33 CL   UNL     1       8.294  21.229  56.700  1.00  0.00    -0.084 Cl
HETATM   34  C   UNL     1       8.317  21.491  53.979  1.00  0.00    -0.040 A 
HETATM   35  C   UNL     1       8.656  20.031  53.862  1.00  0.00     0.050 C 
HETATM   36  C   UNL     1       8.161  22.262  52.820  1.00  0.00     0.011 A 
HETATM   37  C   UNL     1       7.814  23.614  52.903  1.00  0.00     0.030 A 
ENDBRANCH  27  30
ENDBRANCH  25  26
ENDBRANCH   7  25
TORSDOF 7
ENDMDL
MODEL 3
REMARK VINA RESULT:     -10.0      3.224     10.904
REMARK  7 active torsions:
REMARK  status: ('A' for Active; 'I' for Inactive)
REMARK    1  A    between atoms: C_2  and  N_3 
REMARK    2  A    between atoms: C_5  and  C_6 
REMARK    3  A    between atoms: C_6  and  N_7 
REMARK       I    between atoms: N_7  and  C_8 
REMARK    4  A    between atoms: C_8  and  C_9 
REMARK    5  A    between atoms: N_15  and  C_16 
REMARK    6  A    between atoms: C_16  and  C_17 
REMARK       I    between atoms: C_17  and  N_18 
REMARK    7  A    between atoms: N_18  and  C_19 
ROOT
HETATM    1  C   UNL     1       6.601  27.595  56.977  1.00  0.00     0.081 C 
HETATM    2  S   UNL     1       5.017  27.416  56.344  1.00  0.00    -0.063 SA
HETATM    3  C   UNL     1       4.664  29.061  56.546  1.00  0.00     0.116 C 
HETATM    4  C   UNL     1       5.733  29.760  57.063  1.00  0.00     0.075 C 
HETATM    5  C   UNL     1       5.500  31.161  57.398  1.00  0.00     0.262 C 
HETATM    6  O   UNL     1       6.372  31.906  57.840  1.00  0.00    -0.267 OA
HETATM    7  N   UNL     1       4.185  31.578  57.223  1.00  0.00    -0.299 N 
HETATM    8  C   UNL     1       3.241  30.775  56.615  1.00  0.00     0.214 C 
HETATM    9  N   UNL     1       3.432  29.546  56.258  1.00  0.00    -0.235 NA
HETATM   10  C   UNL     1       6.913  28.931  57.237  1.00  0.00    -0.021 C 
HETATM   11  C   UNL     1       8.233  29.437  57.733  1.00  0.00     0.051 C 
ENDROOT
BRANCH   1  12
HETATM   12  C   UNL     1       7.341  26.365  57.221  1.00  0.00     0.259 C 
HETATM   13  N   UNL     1       7.711  25.619  56.121  1.00  0.00    -0.354 N 
HETATM   14  H   UNL     1       7.176  25.768  55.272  1.00  0.00     0.162 HD
HETATM   15  O   UNL     1       7.730  25.999  58.333  1.00  0.00    -0.267 OA
BRANCH  13  16
HETATM   16  C   UNL     1       8.451  24.367  56.245  1.00  0.00     0.156 C 
BRANCH  16  17
HETATM   17  C   UNL     1       7.878  23.153  55.457  1.00  0.00     0.206 C 
HETATM   18  N   UNL     1       8.980  22.275  54.861  1.00  0.00    -0.066 N 
HETATM   19  H   UNL     1       9.869  22.815  54.939  1.00  0.00     0.280 HD
HETATM   20  C   UNL     1       8.708  22.133  53.383  1.00  0.00     0.235 C 
HETATM   21  C   UNL     1       7.901  23.364  53.045  1.00  0.00     0.030 C 
HETATM   22  C   UNL     1       7.010  23.543  54.258  1.00  0.00     0.036 C 
BRANCH  18  23
HETATM   23  C   UNL     1       9.222  20.987  55.592  1.00  0.00     0.231 C 
HETATM   24  C   UNL     1       7.962  20.535  56.307  1.00  0.00     0.034 C 
ENDBRANCH  18  23
ENDBRANCH  16  17
ENDBRANCH  13  16
ENDBRANCH   1  12
BRANCH   7  25
HETATM   25  C   UNL     1       3.796  32.865  57.764  1.00  0.00     0.236 C 
BRANCH  25  26
HETATM   26  C   UNL     1       3.891  32.870  59.284  1.00  0.00     0.240 C 
HETATM   27  N   UNL     1       4.964  33.607  59.751  1.00  0.00    -0.326 N 
HETATM   28  H   UNL     1       5.365  34.289  59.107  1.00  0.00     0.169 HD
HETATM   29  O   UNL     1       3.041  32.306  59.965  1.00  0.00    -0.271 OA
BRANCH  27  30
HETATM   30  C   UNL     1       5.523  33.558  61.043  1.00  0.00     0.036 A 
HETATM   31  C   UNL     1       6.489  32.628  61.430  1.00  0.00     0.053 A 
HETATM   32  C   UNL     1       7.067  32.695  62.704  1.00  0.00     0.042 A 
HETATM   33 CL   UNL     1       8.281  31.530  63.101  1.00  0.00    -0.084 Cl
HETATM   34  C   UNL     1       6.684  33.688  63.617  1.00  0.00    -0.040 A 
HETATM   35  C   UNL     1       7.307  33.798  64.980  1.00  0.00     0.050 C 
HETATM   36  C   UNL     1       5.702  34.609  63.227  1.00  0.00     0.011 A 
HETATM   37  C   UNL     1       5.131  34.546  61.952  1.00  0.00     0.030 A 
ENDBRANCH  27  30
ENDBRANCH  25  26
ENDBRANCH   7  25
TORSDOF 7
ENDMDL
MODEL 4
REMARK VINA RESULT:     -10.0      2.370      3.456
REMARK  7 active torsions:
REMARK  status: ('A' for Active; 'I' for Inactive)
REMARK    1  A    between atoms: C_2  and  N_3 
REMARK    2  A    between atoms: C_5  and  C_6 
REMARK    3  A    between atoms: C_6  and  N_7 
REMARK       I    between atoms: N_7  and  C_8 
REMARK    4  A    between atoms: C_8  and  C_9 
REMARK    5  A    between atoms: N_15  and  C_16 
REMARK    6  A    between atoms: C_16  and  C_17 
REMARK       I    between atoms: C_17  and  N_18 
REMARK    7  A    between atoms: N_18  and  C_19 
ROOT
HETATM    1  C   UNL     1       5.185  31.217  57.957  1.00  0.00     0.081 C 
HETATM    2  S   UNL     1       3.766  31.105  56.997  1.00  0.00    -0.063 SA
HETATM    3  C   UNL     1       4.445  29.923  55.990  1.00  0.00     0.116 C 
HETATM    4  C   UNL     1       5.723  29.585  56.378  1.00  0.00     0.075 C 
HETATM    5  C   UNL     1       6.451  28.669  55.506  1.00  0.00     0.262 C 
HETATM    6  O   UNL     1       7.587  28.264  55.745  1.00  0.00    -0.267 OA
HETATM    7  N   UNL     1       5.770  28.326  54.343  1.00  0.00    -0.299 N 
HETATM    8  C   UNL     1       4.453  28.685  54.137  1.00  0.00     0.214 C 
HETATM    9  N   UNL     1       3.763  29.453  54.917  1.00  0.00    -0.235 NA
HETATM   10  C   UNL     1       6.141  30.269  57.588  1.00  0.00    -0.021 C 
HETATM   11  C   UNL     1       7.461  30.057  58.264  1.00  0.00     0.051 C 
ENDROOT
BRANCH   1  12
HETATM   12  C   UNL     1       5.220  32.298  58.931  1.00  0.00     0.259 C 
HETATM   13  N   UNL     1       5.066  31.960  60.259  1.00  0.00    -0.354 N 
HETATM   14  H   UNL     1       4.608  31.075  60.451  1.00  0.00     0.162 HD
HETATM   15  O   UNL     1       5.465  33.474  58.652  1.00  0.00    -0.267 OA
BRANCH  13  16
HETATM   16  C   UNL     1       5.080  32.960  61.322  1.00  0.00     0.156 C 
BRANCH  16  17
HETATM   17  C   UNL     1       6.485  33.439  61.792  1.00  0.00     0.206 C 
HETATM   18  N   UNL     1       7.408  32.271  62.147  1.00  0.00    -0.066 N 
HETATM   19  H   UNL     1       6.809  31.419  62.197  1.00  0.00     0.280 HD
HETATM   20  C   UNL     1       7.925  32.500  63.547  1.00  0.00     0.235 C 
HETATM   21  C   UNL     1       6.868  33.374  64.183  1.00  0.00     0.030 C 
HETATM   22  C   UNL     1       6.457  34.302  63.056  1.00  0.00     0.036 C 
BRANCH  18  23
HETATM   23  C   UNL     1       8.460  31.968  61.121  1.00  0.00     0.231 C 
HETATM   24  C   UNL     1       9.498  31.016  61.685  1.00  0.00     0.034 C 
ENDBRANCH  18  23
ENDBRANCH  16  17
ENDBRANCH  13  16
ENDBRANCH   1  12
BRANCH   7  25
HETATM   25  C   UNL     1       6.500  27.635  53.299  1.00  0.00     0.236 C 
BRANCH  25  26
HETATM   26  C   UNL     1       6.390  26.125  53.463  1.00  0.00     0.240 C 
HETATM   27  N   UNL     1       7.464  25.580  54.143  1.00  0.00    -0.326 N 
HETATM   28  H   UNL     1       8.018  26.222  54.710  1.00  0.00     0.169 HD
HETATM   29  O   UNL     1       5.400  25.523  53.059  1.00  0.00    -0.271 OA
BRANCH  27  30
HETATM   30  C   UNL     1       7.835  24.222  54.185  1.00  0.00     0.036 A 
HETATM   31  C   UNL     1       7.969  23.496  55.369  1.00  0.00     0.053 A 
HETATM   32  C   UNL     1       8.252  22.125  55.332  1.00  0.00     0.042 A 
HETATM   33 CL   UNL     1       8.370  21.284  56.838  1.00  0.00    -0.084 Cl
HETATM   34  C   UNL     1       8.415  21.456  54.110  1.00  0.00    -0.040 A 
HETATM   35  C   UNL     1       8.694  19.981  54.042  1.00  0.00     0.050 C 
HETATM   36  C   UNL     1       8.295  22.195  52.926  1.00  0.00     0.011 A 
HETATM   37  C   UNL     1       8.004  23.563  52.964  1.00  0.00     0.030 A 
ENDBRANCH  27  30
ENDBRANCH  25  26
ENDBRANCH   7  25
TORSDOF 7
ENDMDL
MODEL 5
REMARK VINA RESULT:      -9.9      3.626     11.603
REMARK  7 active torsions:
REMARK  status: ('A' for Active; 'I' for Inactive)
REMARK    1  A    between atoms: C_2  and  N_3 
REMARK    2  A    between atoms: C_5  and  C_6 
REMARK    3  A    between atoms: C_6  and  N_7 
REMARK       I    between atoms: N_7  and  C_8 
REMARK    4  A    between atoms: C_8  and  C_9 
REMARK    5  A    between atoms: N_15  and  C_16 
REMARK    6  A    between atoms: C_16  and  C_17 
REMARK       I    between atoms: C_17  and  N_18 
REMARK    7  A    between atoms: N_18  and  C_19 
ROOT
HETATM    1  C   UNL     1       6.457  26.985  56.307  1.00  0.00     0.081 C 
HETATM    2  S   UNL     1       7.854  27.143  57.290  1.00  0.00    -0.063 SA
HETATM    3  C   UNL     1       7.338  28.627  57.924  1.00  0.00     0.116 C 
HETATM    4  C   UNL     1       6.109  29.002  57.427  1.00  0.00     0.075 C 
HETATM    5  C   UNL     1       5.625  30.326  57.806  1.00  0.00     0.262 C 
HETATM    6  O   UNL     1       4.535  30.775  57.457  1.00  0.00    -0.267 OA
HETATM    7  N   UNL     1       6.526  31.067  58.562  1.00  0.00    -0.299 N 
HETATM    8  C   UNL     1       7.693  30.516  59.052  1.00  0.00     0.214 C 
HETATM    9  N   UNL     1       8.125  29.328  58.777  1.00  0.00    -0.235 NA
HETATM   10  C   UNL     1       5.533  28.004  56.544  1.00  0.00    -0.021 C 
HETATM   11  C   UNL     1       4.185  28.124  55.901  1.00  0.00     0.051 C 
ENDROOT
BRANCH   1  12
HETATM   12  C   UNL     1       6.468  25.895  55.342  1.00  0.00     0.259 C 
HETATM   13  N   UNL     1       7.640  25.670  54.651  1.00  0.00    -0.354 N 
HETATM   14  H   UNL     1       8.287  26.450  54.591  1.00  0.00     0.162 HD
HETATM   15  O   UNL     1       5.530  25.111  55.172  1.00  0.00    -0.267 OA
BRANCH  13  16
HETATM   16  C   UNL     1       7.765  24.609  53.657  1.00  0.00     0.156 C 
BRANCH  16  17
HETATM   17  C   UNL     1       8.524  23.328  54.115  1.00  0.00     0.206 C 
HETATM   18  N   UNL     1       7.627  22.089  54.109  1.00  0.00    -0.066 N 
HETATM   19  H   UNL     1       6.646  22.428  54.002  1.00  0.00     0.280 HD
HETATM   20  C   UNL     1       7.703  21.457  55.477  1.00  0.00     0.235 C 
HETATM   21  C   UNL     1       8.083  22.605  56.384  1.00  0.00     0.030 C 
HETATM   22  C   UNL     1       9.062  23.403  55.546  1.00  0.00     0.036 C 
BRANCH  18  23
HETATM   23  C   UNL     1       7.859  21.152  52.960  1.00  0.00     0.231 C 
HETATM   24  C   UNL     1       8.799  20.031  53.366  1.00  0.00     0.034 C 
ENDBRANCH  18  23
ENDBRANCH  16  17
ENDBRANCH  13  16
ENDBRANCH   1  12
BRANCH   7  25
HETATM   25  C   UNL     1       6.251  32.475  58.771  1.00  0.00     0.236 C 
BRANCH  25  26
HETATM   26  C   UNL     1       5.788  32.735  60.198  1.00  0.00     0.240 C 
HETATM   27  N   UNL     1       6.627  33.591  60.887  1.00  0.00    -0.326 N 
HETATM   28  H   UNL     1       7.243  34.178  60.324  1.00  0.00     0.169 HD
HETATM   29  O   UNL     1       4.741  32.248  60.613  1.00  0.00    -0.271 OA
BRANCH  27  30
HETATM   30  C   UNL     1       6.677  33.784  62.282  1.00  0.00     0.036 A 
HETATM   31  C   UNL     1       5.895  34.721  62.959  1.00  0.00     0.053 A 
HETATM   32  C   UNL     1       5.930  34.795  64.357  1.00  0.00     0.042 A 
HETATM   33 CL   UNL     1       4.909  35.957  65.129  1.00  0.00    -0.084 Cl
HETATM   34  C   UNL     1       6.753  33.939  65.103  1.00  0.00    -0.040 A 
HETATM   35  C   UNL     1       6.790  33.981  66.605  1.00  0.00     0.050 C 
HETATM   36  C   UNL     1       7.547  33.012  64.416  1.00  0.00     0.011 A 
HETATM   37  C   UNL     1       7.506  32.933  63.020  1.00  0.00     0.030 A 
ENDBRANCH  27  30
ENDBRANCH  25  26
ENDBRANCH   7  25
TORSDOF 7
ENDMDL
MODEL 6
REMARK VINA RESULT:      -9.9      3.555     11.597
REMARK  7 active torsions:
REMARK  status: ('A' for Active; 'I' for Inactive)
REMARK    1  A    between atoms: C_2  and  N_3 
REMARK    2  A    between atoms: C_5  and  C_6 
REMARK    3  A    between atoms: C_6  and  N_7 
REMARK       I    between atoms: N_7  and  C_8 
REMARK    4  A    between atoms: C_8  and  C_9 
REMARK    5  A    between atoms: N_15  and  C_16 
REMARK    6  A    between atoms: C_16  and  C_17 
REMARK       I    between atoms: C_17  and  N_18 
REMARK    7  A    between atoms: N_18  and  C_19 
ROOT
HETATM    1  C   UNL     1       6.465  27.339  56.673  1.00  0.00     0.081 C 
HETATM    2  S   UNL     1       5.068  28.328  56.801  1.00  0.00    -0.063 SA
HETATM    3  C   UNL     1       5.936  29.600  57.508  1.00  0.00     0.116 C 
HETATM    4  C   UNL     1       7.277  29.307  57.631  1.00  0.00     0.075 C 
HETATM    5  C   UNL     1       8.098  30.280  58.343  1.00  0.00     0.262 C 
HETATM    6  O   UNL     1       9.311  30.158  58.501  1.00  0.00    -0.267 OA
HETATM    7  N   UNL     1       7.383  31.345  58.880  1.00  0.00    -0.299 N 
HETATM    8  C   UNL     1       6.045  31.540  58.599  1.00  0.00     0.214 C 
HETATM    9  N   UNL     1       5.302  30.723  57.926  1.00  0.00    -0.235 NA
HETATM   10  C   UNL     1       7.623  28.018  57.060  1.00  0.00    -0.021 C 
HETATM   11  C   UNL     1       9.014  27.464  57.007  1.00  0.00     0.051 C 
ENDROOT
BRANCH   1  12
HETATM   12  C   UNL     1       6.242  25.958  56.270  1.00  0.00     0.259 C 
HETATM   13  N   UNL     1       6.895  25.514  55.140  1.00  0.00    -0.354 N 
HETATM   14  H   UNL     1       7.198  26.226  54.483  1.00  0.00     0.162 HD
HETATM   15  O   UNL     1       5.583  25.144  56.922  1.00  0.00    -0.267 OA
BRANCH  13  16
HETATM   16  C   UNL     1       6.744  24.152  54.639  1.00  0.00     0.156 C 
BRANCH  16  17
HETATM   17  C   UNL     1       7.955  23.200  54.867  1.00  0.00     0.206 C 
HETATM   18  N   UNL     1       7.518  21.792  55.278  1.00  0.00    -0.066 N 
HETATM   19  H   UNL     1       6.506  21.850  55.521  1.00  0.00     0.280 HD
HETATM   20  C   UNL     1       8.235  21.442  56.559  1.00  0.00     0.235 C 
HETATM   21  C   UNL     1       8.540  22.785  57.180  1.00  0.00     0.030 C 
HETATM   22  C   UNL     1       8.897  23.650  55.987  1.00  0.00     0.036 C 
BRANCH  18  23
HETATM   23  C   UNL     1       7.616  20.763  54.190  1.00  0.00     0.231 C 
HETATM   24  C   UNL     1       8.543  21.238  53.087  1.00  0.00     0.034 C 
ENDBRANCH  18  23
ENDBRANCH  16  17
ENDBRANCH  13  16
ENDBRANCH   1  12
BRANCH   7  25
HETATM   25  C   UNL     1       8.058  32.223  59.816  1.00  0.00     0.236 C 
BRANCH  25  26
HETATM   26  C   UNL     1       7.476  32.082  61.216  1.00  0.00     0.240 C 
HETATM   27  N   UNL     1       6.846  33.233  61.652  1.00  0.00    -0.326 N 
HETATM   28  H   UNL     1       6.566  33.901  60.934  1.00  0.00     0.169 HD
HETATM   29  O   UNL     1       7.546  31.015  61.816  1.00  0.00    -0.271 OA
BRANCH  27  30
HETATM   30  C   UNL     1       6.495  33.551  62.979  1.00  0.00     0.036 A 
HETATM   31  C   UNL     1       5.208  33.928  63.367  1.00  0.00     0.053 A 
HETATM   32  C   UNL     1       4.909  34.142  64.717  1.00  0.00     0.042 A 
HETATM   33 CL   UNL     1       3.286  34.574  65.126  1.00  0.00    -0.084 Cl
HETATM   34  C   UNL     1       5.893  33.991  65.706  1.00  0.00    -0.040 A 
HETATM   35  C   UNL     1       5.592  34.189  67.165  1.00  0.00     0.050 C 
HETATM   36  C   UNL     1       7.186  33.628  65.308  1.00  0.00     0.011 A 
HETATM   37  C   UNL     1       7.482  33.407  63.959  1.00  0.00     0.030 A 
ENDBRANCH  27  30
ENDBRANCH  25  26
ENDBRANCH   7  25
TORSDOF 7
ENDMDL
MODEL 7
REMARK VINA RESULT:      -9.9      1.956      2.748
REMARK  7 active torsions:
REMARK  status: ('A' for Active; 'I' for Inactive)
REMARK    1  A    between atoms: C_2  and  N_3 
REMARK    2  A    between atoms: C_5  and  C_6 
REMARK    3  A    between atoms: C_6  and  N_7 
REMARK       I    between atoms: N_7  and  C_8 
REMARK    4  A    between atoms: C_8  and  C_9 
REMARK    5  A    between atoms: N_15  and  C_16 
REMARK    6  A    between atoms: C_16  and  C_17 
REMARK       I    between atoms: C_17  and  N_18 
REMARK    7  A    between atoms: N_18  and  C_19 
ROOT
HETATM    1  C   UNL     1       5.279  31.280  58.054  1.00  0.00     0.081 C 
HETATM    2  S   UNL     1       6.963  30.953  58.095  1.00  0.00    -0.063 SA
HETATM    3  C   UNL     1       6.898  30.023  56.679  1.00  0.00     0.116 C 
HETATM    4  C   UNL     1       5.626  29.971  56.153  1.00  0.00     0.075 C 
HETATM    5  C   UNL     1       5.428  29.093  55.005  1.00  0.00     0.262 C 
HETATM    6  O   UNL     1       4.353  28.973  54.421  1.00  0.00    -0.267 OA
HETATM    7  N   UNL     1       6.553  28.356  54.650  1.00  0.00    -0.299 N 
HETATM    8  C   UNL     1       7.785  28.583  55.229  1.00  0.00     0.214 C 
HETATM    9  N   UNL     1       8.004  29.393  56.213  1.00  0.00    -0.235 NA
HETATM   10  C   UNL     1       4.678  30.781  56.897  1.00  0.00    -0.021 C 
HETATM   11  C   UNL     1       3.237  30.951  56.522  1.00  0.00     0.051 C 
ENDROOT
BRANCH   1  12
HETATM   12  C   UNL     1       4.722  31.937  59.227  1.00  0.00     0.259 C 
HETATM   13  N   UNL     1       5.501  31.974  60.364  1.00  0.00    -0.354 N 
HETATM   14  H   UNL     1       6.233  31.275  60.435  1.00  0.00     0.162 HD
HETATM   15  O   UNL     1       3.643  32.535  59.238  1.00  0.00    -0.267 OA
BRANCH  13  16
HETATM   16  C   UNL     1       5.044  32.603  61.599  1.00  0.00     0.156 C 
BRANCH  16  17
HETATM   17  C   UNL     1       5.729  32.115  62.910  1.00  0.00     0.206 C 
HETATM   18  N   UNL     1       6.074  33.272  63.850  1.00  0.00    -0.066 N 
HETATM   19  H   UNL     1       5.964  34.150  63.299  1.00  0.00     0.280 HD
HETATM   20  C   UNL     1       7.542  33.172  64.185  1.00  0.00     0.235 C 
HETATM   21  C   UNL     1       8.129  32.419  63.013  1.00  0.00     0.030 C 
HETATM   22  C   UNL     1       7.060  31.395  62.685  1.00  0.00     0.036 C 
BRANCH  18  23
HETATM   23  C   UNL     1       5.159  33.417  65.030  1.00  0.00     0.231 C 
HETATM   24  C   UNL     1       4.847  34.879  65.288  1.00  0.00     0.034 C 
ENDBRANCH  18  23
ENDBRANCH  16  17
ENDBRANCH  13  16
ENDBRANCH   1  12
BRANCH   7  25
HETATM   25  C   UNL     1       6.393  27.276  53.696  1.00  0.00     0.236 C 
BRANCH  25  26
HETATM   26  C   UNL     1       6.336  25.928  54.401  1.00  0.00     0.240 C 
HETATM   27  N   UNL     1       7.541  25.250  54.360  1.00  0.00    -0.326 N 
HETATM   28  H   UNL     1       8.372  25.808  54.166  1.00  0.00     0.169 HD
HETATM   29  O   UNL     1       5.313  25.564  54.973  1.00  0.00    -0.271 OA
BRANCH  27  30
HETATM   30  C   UNL     1       7.749  23.881  54.619  1.00  0.00     0.036 A 
HETATM   31  C   UNL     1       7.854  22.915  53.617  1.00  0.00     0.053 A 
HETATM   32  C   UNL     1       8.151  21.586  53.943  1.00  0.00     0.042 A 
HETATM   33 CL   UNL     1       8.300  20.451  52.647  1.00  0.00    -0.084 Cl
HETATM   34  C   UNL     1       8.341  21.197  55.277  1.00  0.00    -0.040 A 
HETATM   35  C   UNL     1       8.687  19.783  55.652  1.00  0.00     0.050 C 
HETATM   36  C   UNL     1       8.218  22.169  56.278  1.00  0.00     0.011 A 
HETATM   37  C   UNL     1       7.929  23.498  55.951  1.00  0.00     0.030 A 
ENDBRANCH  27  30
ENDBRANCH  25  26
ENDBRANCH   7  25
TORSDOF 7
ENDMDL
MODEL 8
REMARK VINA RESULT:      -9.6      3.629     11.361
REMARK  7 active torsions:
REMARK  status: ('A' for Active; 'I' for Inactive)
REMARK    1  A    between atoms: C_2  and  N_3 
REMARK    2  A    between atoms: C_5  and  C_6 
REMARK    3  A    between atoms: C_6  and  N_7 
REMARK       I    between atoms: N_7  and  C_8 
REMARK    4  A    between atoms: C_8  and  C_9 
REMARK    5  A    between atoms: N_15  and  C_16 
REMARK    6  A    between atoms: C_16  and  C_17 
REMARK       I    between atoms: C_17  and  N_18 
REMARK    7  A    between atoms: N_18  and  C_19 
ROOT
HETATM    1  C   UNL     1       5.915  27.890  56.757  1.00  0.00     0.081 C 
HETATM    2  S   UNL     1       4.784  29.180  56.756  1.00  0.00    -0.063 SA
HETATM    3  C   UNL     1       5.828  30.201  57.617  1.00  0.00     0.116 C 
HETATM    4  C   UNL     1       7.035  29.596  57.889  1.00  0.00     0.075 C 
HETATM    5  C   UNL     1       7.963  30.337  58.737  1.00  0.00     0.262 C 
HETATM    6  O   UNL     1       9.083  29.928  59.035  1.00  0.00    -0.267 OA
HETATM    7  N   UNL     1       7.454  31.534  59.229  1.00  0.00    -0.299 N 
HETATM    8  C   UNL     1       6.247  32.046  58.796  1.00  0.00     0.214 C 
HETATM    9  N   UNL     1       5.426  31.437  58.003  1.00  0.00    -0.235 NA
HETATM   10  C   UNL     1       7.140  28.269  57.310  1.00  0.00    -0.021 C 
HETATM   11  C   UNL     1       8.359  27.402  57.403  1.00  0.00     0.051 C 
ENDROOT
BRANCH   1  12
HETATM   12  C   UNL     1       5.430  26.607  56.270  1.00  0.00     0.259 C 
HETATM   13  N   UNL     1       5.241  26.474  54.911  1.00  0.00    -0.354 N 
HETATM   14  H   UNL     1       5.116  27.333  54.385  1.00  0.00     0.162 HD
HETATM   15  O   UNL     1       5.264  25.614  56.984  1.00  0.00    -0.267 OA
BRANCH  13  16
HETATM   16  C   UNL     1       4.753  25.235  54.312  1.00  0.00     0.156 C 
BRANCH  16  17
HETATM   17  C   UNL     1       5.751  24.488  53.379  1.00  0.00     0.206 C 
HETATM   18  N   UNL     1       7.208  24.707  53.793  1.00  0.00    -0.066 N 
HETATM   19  H   UNL     1       7.210  25.488  54.484  1.00  0.00     0.280 HD
HETATM   20  C   UNL     1       7.959  25.215  52.587  1.00  0.00     0.235 C 
HETATM   21  C   UNL     1       6.886  25.864  51.742  1.00  0.00     0.030 C 
HETATM   22  C   UNL     1       5.697  24.941  51.919  1.00  0.00     0.036 C 
BRANCH  18  23
HETATM   23  C   UNL     1       7.843  23.542  54.495  1.00  0.00     0.231 C 
HETATM   24  C   UNL     1       8.253  23.928  55.904  1.00  0.00     0.034 C 
ENDBRANCH  18  23
ENDBRANCH  16  17
ENDBRANCH  13  16
ENDBRANCH   1  12
BRANCH   7  25
HETATM   25  C   UNL     1       8.190  32.215  60.276  1.00  0.00     0.236 C 
BRANCH  25  26
HETATM   26  C   UNL     1       7.464  32.111  61.610  1.00  0.00     0.240 C 
HETATM   27  N   UNL     1       6.961  33.324  62.043  1.00  0.00    -0.326 N 
HETATM   28  H   UNL     1       6.846  34.049  61.335  1.00  0.00     0.169 HD
HETATM   29  O   UNL     1       7.328  31.025  62.165  1.00  0.00    -0.271 OA
BRANCH  27  30
HETATM   30  C   UNL     1       6.534  33.644  63.347  1.00  0.00     0.036 A 
HETATM   31  C   UNL     1       5.222  33.999  63.662  1.00  0.00     0.053 A 
HETATM   32  C   UNL     1       4.847  34.216  64.993  1.00  0.00     0.042 A 
HETATM   33 CL   UNL     1       3.196  34.620  65.311  1.00  0.00    -0.084 Cl
HETATM   34  C   UNL     1       5.779  34.089  66.034  1.00  0.00    -0.040 A 
HETATM   35  C   UNL     1       5.396  34.292  67.473  1.00  0.00     0.050 C 
HETATM   36  C   UNL     1       7.098  33.749  65.708  1.00  0.00     0.011 A 
HETATM   37  C   UNL     1       7.470  33.524  64.379  1.00  0.00     0.030 A 
ENDBRANCH  27  30
ENDBRANCH  25  26
ENDBRANCH   7  25
TORSDOF 7
ENDMDL
MODEL 9
REMARK VINA RESULT:      -9.6      4.645     11.462
REMARK  7 active torsions:
REMARK  status: ('A' for Active; 'I' for Inactive)
REMARK    1  A    between atoms: C_2  and  N_3 
REMARK    2  A    between atoms: C_5  and  C_6 
REMARK    3  A    between atoms: C_6  and  N_7 
REMARK       I    between atoms: N_7  and  C_8 
REMARK    4  A    between atoms: C_8  and  C_9 
REMARK    5  A    between atoms: N_15  and  C_16 
REMARK    6  A    between atoms: C_16  and  C_17 
REMARK       I    between atoms: C_17  and  N_18 
REMARK    7  A    between atoms: N_18  and  C_19 
ROOT
HETATM    1  C   UNL     1       5.501  27.747  53.909  1.00  0.00     0.081 C 
HETATM    2  S   UNL     1       4.323  28.527  54.884  1.00  0.00    -0.063 SA
HETATM    3  C   UNL     1       5.490  29.111  55.966  1.00  0.00     0.116 C 
HETATM    4  C   UNL     1       6.766  28.750  55.595  1.00  0.00     0.075 C 
HETATM    5  C   UNL     1       7.839  29.089  56.523  1.00  0.00     0.262 C 
HETATM    6  O   UNL     1       9.026  28.851  56.305  1.00  0.00    -0.267 OA
HETATM    7  N   UNL     1       7.404  29.665  57.712  1.00  0.00    -0.299 N 
HETATM    8  C   UNL     1       6.089  30.040  57.901  1.00  0.00     0.214 C 
HETATM    9  N   UNL     1       5.123  29.801  57.074  1.00  0.00    -0.235 NA
HETATM   10  C   UNL     1       6.801  28.026  54.337  1.00  0.00    -0.021 C 
HETATM   11  C   UNL     1       8.056  27.554  53.669  1.00  0.00     0.051 C 
ENDROOT
BRANCH   1  12
HETATM   12  C   UNL     1       4.994  26.873  52.862  1.00  0.00     0.259 C 
HETATM   13  N   UNL     1       5.197  27.265  51.555  1.00  0.00    -0.354 N 
HETATM   14  H   UNL     1       5.364  28.254  51.399  1.00  0.00     0.162 HD
HETATM   15  O   UNL     1       4.478  25.772  53.068  1.00  0.00    -0.267 OA
BRANCH  13  16
HETATM   16  C   UNL     1       4.729  26.470  50.424  1.00  0.00     0.156 C 
BRANCH  16  17
HETATM   17  C   UNL     1       4.187  27.270  49.203  1.00  0.00     0.206 C 
HETATM   18  N   UNL     1       2.658  27.327  49.179  1.00  0.00    -0.066 N 
HETATM   19  H   UNL     1       2.320  26.628  49.875  1.00  0.00     0.280 HD
HETATM   20  C   UNL     1       2.200  26.826  47.831  1.00  0.00     0.235 C 
HETATM   21  C   UNL     1       3.332  25.936  47.372  1.00  0.00     0.030 C 
HETATM   22  C   UNL     1       4.569  26.672  47.848  1.00  0.00     0.036 C 
BRANCH  18  23
HETATM   23  C   UNL     1       2.071  28.640  49.605  1.00  0.00     0.231 C 
HETATM   24  C   UNL     1       2.260  29.686  48.521  1.00  0.00     0.034 C 
ENDBRANCH  18  23
ENDBRANCH  16  17
ENDBRANCH  13  16
ENDBRANCH   1  12
BRANCH   7  25
HETATM   25  C   UNL     1       8.355  29.803  58.797  1.00  0.00     0.236 C 
BRANCH  25  26
HETATM   26  C   UNL     1       8.096  31.075  59.593  1.00  0.00     0.240 C 
HETATM   27  N   UNL     1       7.940  30.837  60.946  1.00  0.00    -0.326 N 
HETATM   28  H   UNL     1       8.307  29.954  61.300  1.00  0.00     0.169 HD
HETATM   29  O   UNL     1       8.092  32.169  59.039  1.00  0.00    -0.271 OA
BRANCH  27  30
HETATM   30  C   UNL     1       7.382  31.713  61.899  1.00  0.00     0.036 A 
HETATM   31  C   UNL     1       6.040  32.097  61.899  1.00  0.00     0.053 A 
HETATM   32  C   UNL     1       5.534  32.899  62.929  1.00  0.00     0.042 A 
HETATM   33 CL   UNL     1       3.854  33.307  62.882  1.00  0.00    -0.084 Cl
HETATM   34  C   UNL     1       6.360  33.337  63.974  1.00  0.00    -0.040 A 
HETATM   35  C   UNL     1       5.836  34.177  65.105  1.00  0.00     0.050 C 
HETATM   36  C   UNL     1       7.710  32.961  63.958  1.00  0.00     0.011 A 
HETATM   37  C   UNL     1       8.213  32.154  62.933  1.00  0.00     0.030 A 
ENDBRANCH  27  30
ENDBRANCH  25  26
ENDBRANCH   7  25
TORSDOF 7
ENDMDL
MODEL 10
REMARK VINA RESULT:      -8.9      3.570     11.328
REMARK  7 active torsions:
REMARK  status: ('A' for Active; 'I' for Inactive)
REMARK    1  A    between atoms: C_2  and  N_3 
REMARK    2  A    between atoms: C_5  and  C_6 
REMARK    3  A    between atoms: C_6  and  N_7 
REMARK       I    between atoms: N_7  and  C_8 
REMARK    4  A    between atoms: C_8  and  C_9 
REMARK    5  A    between atoms: N_15  and  C_16 
REMARK    6  A    between atoms: C_16  and  C_17 
REMARK       I    between atoms: C_17  and  N_18 
REMARK    7  A    between atoms: N_18  and  C_19 
ROOT
HETATM    1  C   UNL     1       6.692  26.954  54.119  1.00  0.00     0.081 C 
HETATM    2  S   UNL     1       5.840  27.945  53.008  1.00  0.00    -0.063 SA
HETATM    3  C   UNL     1       5.291  28.981  54.232  1.00  0.00     0.116 C 
HETATM    4  C   UNL     1       5.760  28.610  55.473  1.00  0.00     0.075 C 
HETATM    5  C   UNL     1       5.246  29.356  56.617  1.00  0.00     0.262 C 
HETATM    6  O   UNL     1       5.601  29.148  57.776  1.00  0.00    -0.267 OA
HETATM    7  N   UNL     1       4.275  30.297  56.295  1.00  0.00    -0.299 N 
HETATM    8  C   UNL     1       3.970  30.610  54.985  1.00  0.00     0.214 C 
HETATM    9  N   UNL     1       4.447  30.004  53.947  1.00  0.00    -0.235 NA
HETATM   10  C   UNL     1       6.661  27.474  55.414  1.00  0.00    -0.021 C 
HETATM   11  C   UNL     1       7.359  26.888  56.604  1.00  0.00     0.051 C 
ENDROOT
BRANCH   1  12
HETATM   12  C   UNL     1       7.240  25.714  53.587  1.00  0.00     0.259 C 
HETATM   13  N   UNL     1       6.772  24.533  54.122  1.00  0.00    -0.354 N 
HETATM   14  H   UNL     1       6.358  24.587  55.047  1.00  0.00     0.162 HD
HETATM   15  O   UNL     1       8.024  25.655  52.636  1.00  0.00    -0.267 OA
BRANCH  13  16
HETATM   16  C   UNL     1       7.252  23.231  53.670  1.00  0.00     0.156 C 
BRANCH  16  17
HETATM   17  C   UNL     1       8.445  22.626  54.468  1.00  0.00     0.206 C 
HETATM   18  N   UNL     1       8.083  21.296  55.132  1.00  0.00    -0.066 N 
HETATM   19  H   UNL     1       7.046  21.203  55.074  1.00  0.00     0.280 HD
HETATM   20  C   UNL     1       8.409  21.410  56.601  1.00  0.00     0.235 C 
HETATM   21  C   UNL     1       8.338  22.895  56.873  1.00  0.00     0.030 C 
HETATM   22  C   UNL     1       8.933  23.508  55.620  1.00  0.00     0.036 C 
BRANCH  18  23
HETATM   23  C   UNL     1       8.638  20.081  54.448  1.00  0.00     0.231 C 
HETATM   24  C   UNL     1       8.610  20.257  52.941  1.00  0.00     0.034 C 
ENDBRANCH  18  23
ENDBRANCH  16  17
ENDBRANCH  13  16
ENDBRANCH   1  12
BRANCH   7  25
HETATM   25  C   UNL     1       3.524  30.905  57.374  1.00  0.00     0.236 C 
BRANCH  25  26
HETATM   26  C   UNL     1       4.392  31.871  58.170  1.00  0.00     0.240 C 
HETATM   27  N   UNL     1       4.360  31.624  59.530  1.00  0.00    -0.326 N 
HETATM   28  H   UNL     1       4.048  30.698  59.819  1.00  0.00     0.169 HD
HETATM   29  O   UNL     1       5.067  32.720  57.597  1.00  0.00    -0.271 OA
BRANCH  27  30
HETATM   30  C   UNL     1       4.773  32.498  60.556  1.00  0.00     0.036 A 
HETATM   31  C   UNL     1       5.923  32.298  61.321  1.00  0.00     0.053 A 
HETATM   32  C   UNL     1       6.322  33.255  62.263  1.00  0.00     0.042 A 
HETATM   33 CL   UNL     1       7.775  32.956  63.150  1.00  0.00    -0.084 Cl
HETATM   34  C   UNL     1       5.575  34.425  62.462  1.00  0.00    -0.040 A 
HETATM   35  C   UNL     1       5.995  35.479  63.447  1.00  0.00     0.050 C 
HETATM   36  C   UNL     1       4.413  34.611  61.701  1.00  0.00     0.011 A 
HETATM   37  C   UNL     1       4.019  33.658  60.755  1.00  0.00     0.030 A 
ENDBRANCH  27  30
ENDBRANCH  25  26
ENDBRANCH   7  25
TORSDOF 7
ENDMDL
