MODEL 1
REMARK VINA RESULT:      -9.8      0.000      0.000
REMARK  6 active torsions:
REMARK  status: ('A' for Active; 'I' for Inactive)
REMARK       I    between atoms: C_2  and  N_3 
REMARK    1  A    between atoms: N_3  and  C_4 
REMARK    2  A    between atoms: C_7  and  N_8 
REMARK       I    between atoms: N_8  and  C_9 
REMARK    3  A    between atoms: C_9  and  C_10 
REMARK    4  A    between atoms: C_10  and  S_11 
REMARK    5  A    between atoms: S_11  and  C_12 
REMARK    6  A    between atoms: C_15  and  C_16 
ROOT
HETATM    1  N   UNL     1       8.376  30.654  59.504  1.00  0.00    -0.327 N 
HETATM    2  C   UNL     1       9.294  30.957  58.515  1.00  0.00     0.231 C 
HETATM    3  O   UNL     1       9.985  31.970  58.452  1.00  0.00    -0.272 OA
HETATM    4  H   UNL     1       8.002  29.702  59.477  1.00  0.00     0.169 HD
ENDROOT
BRANCH   2   5
HETATM    5  C   UNL     1       9.376  29.891  57.431  1.00  0.00     0.185 C 
BRANCH   5   6
HETATM    6  S   UNL     1       7.734  29.490  56.772  1.00  0.00    -0.083 SA
BRANCH   6   7
HETATM    7  C   UNL     1       7.749  27.770  56.839  1.00  0.00     0.167 A 
HETATM    8  N   UNL     1       7.830  27.012  57.905  1.00  0.00    -0.235 NA
HETATM    9  C   UNL     1       7.827  25.729  57.409  1.00  0.00     0.149 A 
HETATM   10  C   UNL     1       7.771  25.707  56.024  1.00  0.00     0.062 A 
HETATM   11  N   UNL     1       7.703  27.042  55.690  1.00  0.00    -0.333 N 
HETATM   12  H   UNL     1       7.633  27.435  54.764  1.00  0.00     0.168 HD
BRANCH  10  13
HETATM   13  C   UNL     1       7.772  24.603  55.062  1.00  0.00    -0.008 A 
HETATM   14  C   UNL     1       7.747  24.864  53.683  1.00  0.00     0.014 A 
HETATM   15  C   UNL     1       7.733  23.821  52.753  1.00  0.00     0.001 A 
HETATM   16  C   UNL     1       7.747  22.499  53.187  1.00  0.00     0.000 A 
HETATM   17  C   UNL     1       7.772  22.220  54.551  1.00  0.00     0.001 A 
HETATM   18  C   UNL     1       7.783  23.264  55.481  1.00  0.00     0.014 A 
ENDBRANCH  10  13
ENDBRANCH   6   7
ENDBRANCH   5   6
ENDBRANCH   2   5
BRANCH   1  19
HETATM   19  C   UNL     1       7.982  31.444  60.598  1.00  0.00     0.034 A 
HETATM   20  C   UNL     1       6.994  32.424  60.543  1.00  0.00     0.032 A 
HETATM   21  C   UNL     1       6.635  33.144  61.694  1.00  0.00     0.032 A 
HETATM   22  C   UNL     1       7.261  32.895  62.915  1.00  0.00     0.034 A 
HETATM   23  C   UNL     1       8.263  31.920  62.966  1.00  0.00     0.032 A 
HETATM   24  C   UNL     1       8.617  31.200  61.820  1.00  0.00     0.032 A 
BRANCH  22  25
HETATM   25  N   UNL     1       6.942  33.553  64.120  1.00  0.00    -0.328 N 
HETATM   26  C   UNL     1       5.783  33.432  64.865  1.00  0.00     0.218 C 
HETATM   27  C   UNL     1       5.813  34.264  66.124  1.00  0.00     0.117 C 
HETATM   28  O   UNL     1       4.796  32.761  64.589  1.00  0.00    -0.274 OA
HETATM   29  H   UNL     1       7.652  34.178  64.479  1.00  0.00     0.169 HD
ENDBRANCH  22  25
ENDBRANCH   1  19
TORSDOF 6
ENDMDL
MODEL 2
REMARK VINA RESULT:      -9.4      3.096      4.733
REMARK  6 active torsions:
REMARK  status: ('A' for Active; 'I' for Inactive)
REMARK       I    between atoms: C_2  and  N_3 
REMARK    1  A    between atoms: N_3  and  C_4 
REMARK    2  A    between atoms: C_7  and  N_8 
REMARK       I    between atoms: N_8  and  C_9 
REMARK    3  A    between atoms: C_9  and  C_10 
REMARK    4  A    between atoms: C_10  and  S_11 
REMARK    5  A    between atoms: S_11  and  C_12 
REMARK    6  A    between atoms: C_15  and  C_16 
ROOT
HETATM    1  N   UNL     1       6.221  28.618  54.941  1.00  0.00    -0.327 N 
HETATM    2  C   UNL     1       6.961  28.187  53.855  1.00  0.00     0.231 C 
HETATM    3  O   UNL     1       8.185  28.195  53.762  1.00  0.00    -0.272 OA
HETATM    4  H   UNL     1       5.222  28.399  54.905  1.00  0.00     0.169 HD
ENDROOT
BRANCH   2   5
HETATM    5  C   UNL     1       6.096  27.696  52.702  1.00  0.00     0.185 C 
BRANCH   5   6
HETATM    6  S   UNL     1       4.771  26.604  53.288  1.00  0.00    -0.083 SA
BRANCH   6   7
HETATM    7  C   UNL     1       5.652  25.483  54.252  1.00  0.00     0.167 A 
HETATM    8  N   UNL     1       5.965  25.592  55.520  1.00  0.00    -0.235 NA
HETATM    9  C   UNL     1       6.684  24.451  55.791  1.00  0.00     0.149 A 
HETATM   10  C   UNL     1       6.833  23.651  54.668  1.00  0.00     0.062 A 
HETATM   11  N   UNL     1       6.139  24.340  53.697  1.00  0.00    -0.333 N 
HETATM   12  H   UNL     1       6.002  24.065  52.736  1.00  0.00     0.168 HD
BRANCH  10  13
HETATM   13  C   UNL     1       7.525  22.378  54.457  1.00  0.00    -0.008 A 
HETATM   14  C   UNL     1       7.786  21.919  53.157  1.00  0.00     0.014 A 
HETATM   15  C   UNL     1       8.433  20.700  52.940  1.00  0.00     0.001 A 
HETATM   16  C   UNL     1       8.833  19.921  54.020  1.00  0.00     0.000 A 
HETATM   17  C   UNL     1       8.584  20.359  55.318  1.00  0.00     0.001 A 
HETATM   18  C   UNL     1       7.933  21.578  55.535  1.00  0.00     0.014 A 
ENDBRANCH  10  13
ENDBRANCH   6   7
ENDBRANCH   5   6
ENDBRANCH   2   5
BRANCH   1  19
HETATM   19  C   UNL     1       6.683  29.209  56.130  1.00  0.00     0.034 A 
HETATM   20  C   UNL     1       6.151  30.370  56.687  1.00  0.00     0.032 A 
HETATM   21  C   UNL     1       6.648  30.875  57.899  1.00  0.00     0.032 A 
HETATM   22  C   UNL     1       7.685  30.227  58.570  1.00  0.00     0.034 A 
HETATM   23  C   UNL     1       8.228  29.070  58.002  1.00  0.00     0.032 A 
HETATM   24  C   UNL     1       7.730  28.565  56.796  1.00  0.00     0.032 A 
BRANCH  22  25
HETATM   25  N   UNL     1       8.223  30.653  59.801  1.00  0.00    -0.328 N 
HETATM   26  C   UNL     1       9.099  31.700  60.021  1.00  0.00     0.218 C 
HETATM   27  C   UNL     1       9.428  31.886  61.482  1.00  0.00     0.117 C 
HETATM   28  O   UNL     1       9.608  32.426  59.174  1.00  0.00    -0.274 OA
HETATM   29  H   UNL     1       7.922  30.133  60.615  1.00  0.00     0.169 HD
ENDBRANCH  22  25
ENDBRANCH   1  19
TORSDOF 6
ENDMDL
MODEL 3
REMARK VINA RESULT:      -9.3      1.461      1.693
REMARK  6 active torsions:
REMARK  status: ('A' for Active; 'I' for Inactive)
REMARK       I    between atoms: C_2  and  N_3 
REMARK    1  A    between atoms: N_3  and  C_4 
REMARK    2  A    between atoms: C_7  and  N_8 
REMARK       I    between atoms: N_8  and  C_9 
REMARK    3  A    between atoms: C_9  and  C_10 
REMARK    4  A    between atoms: C_10  and  S_11 
REMARK    5  A    between atoms: S_11  and  C_12 
REMARK    6  A    between atoms: C_15  and  C_16 
ROOT
HETATM    1  N   UNL     1       8.820  30.385  58.639  1.00  0.00    -0.327 N 
HETATM    2  C   UNL     1       7.919  29.645  57.896  1.00  0.00     0.231 C 
HETATM    3  O   UNL     1       6.720  29.515  58.128  1.00  0.00    -0.272 OA
HETATM    4  H   UNL     1       9.744  30.504  58.216  1.00  0.00     0.169 HD
ENDROOT
BRANCH   2   5
HETATM    5  C   UNL     1       8.563  28.939  56.710  1.00  0.00     0.185 C 
BRANCH   5   6
HETATM    6  S   UNL     1       7.332  28.033  55.732  1.00  0.00    -0.083 SA
BRANCH   6   7
HETATM    7  C   UNL     1       7.716  26.401  56.124  1.00  0.00     0.167 A 
HETATM    8  N   UNL     1       8.197  25.943  57.254  1.00  0.00    -0.235 NA
HETATM    9  C   UNL     1       8.344  24.593  57.037  1.00  0.00     0.149 A 
HETATM   10  C   UNL     1       7.974  24.230  55.751  1.00  0.00     0.062 A 
HETATM   11  N   UNL     1       7.557  25.420  55.196  1.00  0.00    -0.333 N 
HETATM   12  H   UNL     1       7.193  25.563  54.266  1.00  0.00     0.168 HD
BRANCH  10  13
HETATM   13  C   UNL     1       7.978  22.939  55.058  1.00  0.00    -0.008 A 
HETATM   14  C   UNL     1       8.104  22.885  53.662  1.00  0.00     0.014 A 
HETATM   15  C   UNL     1       8.096  21.662  52.985  1.00  0.00     0.001 A 
HETATM   16  C   UNL     1       7.965  20.473  53.695  1.00  0.00     0.000 A 
HETATM   17  C   UNL     1       7.839  20.506  55.082  1.00  0.00     0.001 A 
HETATM   18  C   UNL     1       7.844  21.731  55.758  1.00  0.00     0.014 A 
ENDBRANCH  10  13
ENDBRANCH   6   7
ENDBRANCH   5   6
ENDBRANCH   2   5
BRANCH   1  19
HETATM   19  C   UNL     1       8.592  31.085  59.837  1.00  0.00     0.034 A 
HETATM   20  C   UNL     1       7.860  32.267  59.927  1.00  0.00     0.032 A 
HETATM   21  C   UNL     1       7.649  32.884  61.171  1.00  0.00     0.032 A 
HETATM   22  C   UNL     1       8.167  32.329  62.340  1.00  0.00     0.034 A 
HETATM   23  C   UNL     1       8.914  31.150  62.246  1.00  0.00     0.032 A 
HETATM   24  C   UNL     1       9.122  30.533  61.007  1.00  0.00     0.032 A 
BRANCH  22  25
HETATM   25  N   UNL     1       7.979  32.869  63.629  1.00  0.00    -0.328 N 
HETATM   26  C   UNL     1       6.780  33.134  64.265  1.00  0.00     0.218 C 
HETATM   27  C   UNL     1       6.969  33.676  65.660  1.00  0.00     0.117 C 
HETATM   28  O   UNL     1       5.653  32.989  63.804  1.00  0.00    -0.274 OA
HETATM   29  H   UNL     1       8.824  33.077  64.145  1.00  0.00     0.169 HD
ENDBRANCH  22  25
ENDBRANCH   1  19
TORSDOF 6
ENDMDL
MODEL 4
REMARK VINA RESULT:      -9.3      2.762     10.987
REMARK  6 active torsions:
REMARK  status: ('A' for Active; 'I' for Inactive)
REMARK       I    between atoms: C_2  and  N_3 
REMARK    1  A    between atoms: N_3  and  C_4 
REMARK    2  A    between atoms: C_7  and  N_8 
REMARK       I    between atoms: N_8  and  C_9 
REMARK    3  A    between atoms: C_9  and  C_10 
REMARK    4  A    between atoms: C_10  and  S_11 
REMARK    5  A    between atoms: S_11  and  C_12 
REMARK    6  A    between atoms: C_15  and  C_16 
ROOT
HETATM    1  N   UNL     1       6.814  27.472  56.547  1.00  0.00    -0.327 N 
HETATM    2  C   UNL     1       7.791  28.181  57.222  1.00  0.00     0.231 C 
HETATM    3  O   UNL     1       9.000  27.967  57.183  1.00  0.00    -0.272 OA
HETATM    4  H   UNL     1       5.877  27.881  56.576  1.00  0.00     0.169 HD
ENDROOT
BRANCH   2   5
HETATM    5  C   UNL     1       7.226  29.297  58.089  1.00  0.00     0.185 C 
BRANCH   5   6
HETATM    6  S   UNL     1       8.417  30.652  58.283  1.00  0.00    -0.083 SA
BRANCH   6   7
HETATM    7  C   UNL     1       8.494  30.797  59.997  1.00  0.00     0.167 A 
HETATM    8  N   UNL     1       9.277  30.144  60.820  1.00  0.00    -0.235 NA
HETATM    9  C   UNL     1       8.924  30.610  62.065  1.00  0.00     0.149 A 
HETATM   10  C   UNL     1       7.896  31.538  62.001  1.00  0.00     0.062 A 
HETATM   11  N   UNL     1       7.655  31.648  60.648  1.00  0.00    -0.333 N 
HETATM   12  H   UNL     1       6.981  32.247  60.197  1.00  0.00     0.168 HD
BRANCH  10  13
HETATM   13  C   UNL     1       7.179  32.278  63.041  1.00  0.00    -0.008 A 
HETATM   14  C   UNL     1       7.887  32.983  64.026  1.00  0.00     0.014 A 
HETATM   15  C   UNL     1       7.217  33.683  65.033  1.00  0.00     0.001 A 
HETATM   16  C   UNL     1       5.826  33.690  65.071  1.00  0.00     0.000 A 
HETATM   17  C   UNL     1       5.106  32.997  64.102  1.00  0.00     0.001 A 
HETATM   18  C   UNL     1       5.777  32.294  63.096  1.00  0.00     0.014 A 
ENDBRANCH  10  13
ENDBRANCH   6   7
ENDBRANCH   5   6
ENDBRANCH   2   5
BRANCH   1  19
HETATM   19  C   UNL     1       6.968  26.334  55.736  1.00  0.00     0.034 A 
HETATM   20  C   UNL     1       7.325  26.371  54.390  1.00  0.00     0.032 A 
HETATM   21  C   UNL     1       7.493  25.183  53.661  1.00  0.00     0.032 A 
HETATM   22  C   UNL     1       7.305  23.942  54.268  1.00  0.00     0.034 A 
HETATM   23  C   UNL     1       6.932  23.906  55.616  1.00  0.00     0.032 A 
HETATM   24  C   UNL     1       6.768  25.090  56.343  1.00  0.00     0.032 A 
BRANCH  22  25
HETATM   25  N   UNL     1       7.479  22.704  53.615  1.00  0.00    -0.328 N 
HETATM   26  C   UNL     1       8.510  21.798  53.788  1.00  0.00     0.218 C 
HETATM   27  C   UNL     1       8.341  20.558  52.945  1.00  0.00     0.117 C 
HETATM   28  O   UNL     1       9.491  21.926  54.511  1.00  0.00    -0.274 OA
HETATM   29  H   UNL     1       6.758  22.452  52.952  1.00  0.00     0.169 HD
ENDBRANCH  22  25
ENDBRANCH   1  19
TORSDOF 6
ENDMDL
MODEL 5
REMARK VINA RESULT:      -9.2      5.933      9.736
REMARK  6 active torsions:
REMARK  status: ('A' for Active; 'I' for Inactive)
REMARK       I    between atoms: C_2  and  N_3 
REMARK    1  A    between atoms: N_3  and  C_4 
REMARK    2  A    between atoms: C_7  and  N_8 
REMARK       I    between atoms: N_8  and  C_9 
REMARK    3  A    between atoms: C_9  and  C_10 
REMARK    4  A    between atoms: C_10  and  S_11 
REMARK    5  A    between atoms: S_11  and  C_12 
REMARK    6  A    between atoms: C_15  and  C_16 
ROOT
HETATM    1  N   UNL     1       6.986  27.744  53.518  1.00  0.00    -0.327 N 
HETATM    2  C   UNL     1       6.601  27.914  54.835  1.00  0.00     0.231 C 
HETATM    3  O   UNL     1       5.472  27.744  55.289  1.00  0.00    -0.272 OA
HETATM    4  H   UNL     1       7.994  27.783  53.348  1.00  0.00     0.169 HD
ENDROOT
BRANCH   2   5
HETATM    5  C   UNL     1       7.739  28.380  55.733  1.00  0.00     0.185 C 
BRANCH   5   6
HETATM    6  S   UNL     1       7.533  27.774  57.430  1.00  0.00    -0.083 SA
BRANCH   6   7
HETATM    7  C   UNL     1       7.973  26.118  57.258  1.00  0.00     0.167 A 
HETATM    8  N   UNL     1       8.636  25.375  58.110  1.00  0.00    -0.235 NA
HETATM    9  C   UNL     1       8.740  24.154  57.484  1.00  0.00     0.149 A 
HETATM   10  C   UNL     1       8.157  24.163  56.226  1.00  0.00     0.062 A 
HETATM   11  N   UNL     1       7.655  25.442  56.121  1.00  0.00    -0.333 N 
HETATM   12  H   UNL     1       7.140  25.832  55.346  1.00  0.00     0.168 HD
BRANCH  10  13
HETATM   13  C   UNL     1       8.040  23.131  55.194  1.00  0.00    -0.008 A 
HETATM   14  C   UNL     1       7.992  21.774  55.549  1.00  0.00     0.014 A 
HETATM   15  C   UNL     1       7.894  20.778  54.575  1.00  0.00     0.001 A 
HETATM   16  C   UNL     1       7.843  21.122  53.228  1.00  0.00     0.000 A 
HETATM   17  C   UNL     1       7.890  22.462  52.855  1.00  0.00     0.001 A 
HETATM   18  C   UNL     1       7.990  23.459  53.831  1.00  0.00     0.014 A 
ENDBRANCH  10  13
ENDBRANCH   6   7
ENDBRANCH   5   6
ENDBRANCH   2   5
BRANCH   1  19
HETATM   19  C   UNL     1       6.183  27.411  52.412  1.00  0.00     0.034 A 
HETATM   20  C   UNL     1       6.017  26.117  51.925  1.00  0.00     0.032 A 
HETATM   21  C   UNL     1       5.166  25.866  50.836  1.00  0.00     0.032 A 
HETATM   22  C   UNL     1       4.472  26.906  50.219  1.00  0.00     0.034 A 
HETATM   23  C   UNL     1       4.651  28.207  50.701  1.00  0.00     0.032 A 
HETATM   24  C   UNL     1       5.496  28.456  51.788  1.00  0.00     0.032 A 
BRANCH  22  25
HETATM   25  N   UNL     1       3.580  26.736  49.140  1.00  0.00    -0.328 N 
HETATM   26  C   UNL     1       3.897  26.481  47.818  1.00  0.00     0.218 C 
HETATM   27  C   UNL     1       2.674  26.320  46.949  1.00  0.00     0.117 C 
HETATM   28  O   UNL     1       5.018  26.400  47.331  1.00  0.00    -0.274 OA
HETATM   29  H   UNL     1       2.597  26.802  49.369  1.00  0.00     0.169 HD
ENDBRANCH  22  25
ENDBRANCH   1  19
TORSDOF 6
ENDMDL
MODEL 6
REMARK VINA RESULT:      -8.9      1.992      2.836
REMARK  6 active torsions:
REMARK  status: ('A' for Active; 'I' for Inactive)
REMARK       I    between atoms: C_2  and  N_3 
REMARK    1  A    between atoms: N_3  and  C_4 
REMARK    2  A    between atoms: C_7  and  N_8 
REMARK       I    between atoms: N_8  and  C_9 
REMARK    3  A    between atoms: C_9  and  C_10 
REMARK    4  A    between atoms: C_10  and  S_11 
REMARK    5  A    between atoms: S_11  and  C_12 
REMARK    6  A    between atoms: C_15  and  C_16 
ROOT
HETATM    1  N   UNL     1       7.970  29.763  57.656  1.00  0.00    -0.327 N 
HETATM    2  C   UNL     1       7.308  28.655  57.157  1.00  0.00     0.231 C 
HETATM    3  O   UNL     1       6.243  28.201  57.566  1.00  0.00    -0.272 OA
HETATM    4  H   UNL     1       8.765  30.086  57.098  1.00  0.00     0.169 HD
ENDROOT
BRANCH   2   5
HETATM    5  C   UNL     1       8.051  27.983  56.011  1.00  0.00     0.185 C 
BRANCH   5   6
HETATM    6  S   UNL     1       7.176  28.201  54.437  1.00  0.00    -0.083 SA
BRANCH   6   7
HETATM    7  C   UNL     1       6.639  26.597  54.118  1.00  0.00     0.167 A 
HETATM    8  N   UNL     1       5.460  26.219  53.687  1.00  0.00    -0.235 NA
HETATM    9  C   UNL     1       5.546  24.848  53.626  1.00  0.00     0.149 A 
HETATM   10  C   UNL     1       6.782  24.384  54.050  1.00  0.00     0.062 A 
HETATM   11  N   UNL     1       7.469  25.542  54.343  1.00  0.00    -0.333 N 
HETATM   12  H   UNL     1       8.420  25.620  54.669  1.00  0.00     0.168 HD
BRANCH  10  13
HETATM   13  C   UNL     1       7.326  23.032  54.185  1.00  0.00    -0.008 A 
HETATM   14  C   UNL     1       7.467  22.447  55.453  1.00  0.00     0.014 A 
HETATM   15  C   UNL     1       7.997  21.163  55.600  1.00  0.00     0.001 A 
HETATM   16  C   UNL     1       8.395  20.440  54.479  1.00  0.00     0.000 A 
HETATM   17  C   UNL     1       8.263  21.003  53.212  1.00  0.00     0.001 A 
HETATM   18  C   UNL     1       7.735  22.290  53.067  1.00  0.00     0.014 A 
ENDBRANCH  10  13
ENDBRANCH   6   7
ENDBRANCH   5   6
ENDBRANCH   2   5
BRANCH   1  19
HETATM   19  C   UNL     1       7.620  30.562  58.758  1.00  0.00     0.034 A 
HETATM   20  C   UNL     1       6.568  31.475  58.763  1.00  0.00     0.032 A 
HETATM   21  C   UNL     1       6.263  32.209  59.921  1.00  0.00     0.032 A 
HETATM   22  C   UNL     1       7.007  32.041  61.089  1.00  0.00     0.034 A 
HETATM   23  C   UNL     1       8.072  31.134  61.078  1.00  0.00     0.032 A 
HETATM   24  C   UNL     1       8.374  30.401  59.925  1.00  0.00     0.032 A 
BRANCH  22  25
HETATM   25  N   UNL     1       6.751  32.718  62.299  1.00  0.00    -0.328 N 
HETATM   26  C   UNL     1       5.846  32.367  63.284  1.00  0.00     0.218 C 
HETATM   27  C   UNL     1       5.876  33.311  64.462  1.00  0.00     0.117 C 
HETATM   28  O   UNL     1       5.063  31.424  63.266  1.00  0.00    -0.274 OA
HETATM   29  H   UNL     1       7.303  33.549  62.462  1.00  0.00     0.169 HD
ENDBRANCH  22  25
ENDBRANCH   1  19
TORSDOF 6
ENDMDL
MODEL 7
REMARK VINA RESULT:      -8.8      2.916     11.258
REMARK  6 active torsions:
REMARK  status: ('A' for Active; 'I' for Inactive)
REMARK       I    between atoms: C_2  and  N_3 
REMARK    1  A    between atoms: N_3  and  C_4 
REMARK    2  A    between atoms: C_7  and  N_8 
REMARK       I    between atoms: N_8  and  C_9 
REMARK    3  A    between atoms: C_9  and  C_10 
REMARK    4  A    between atoms: C_10  and  S_11 
REMARK    5  A    between atoms: S_11  and  C_12 
REMARK    6  A    between atoms: C_15  and  C_16 
ROOT
HETATM    1  N   UNL     1       6.750  27.442  55.919  1.00  0.00    -0.327 N 
HETATM    2  C   UNL     1       7.486  27.919  56.988  1.00  0.00     0.231 C 
HETATM    3  O   UNL     1       8.521  27.430  57.433  1.00  0.00    -0.272 OA
HETATM    4  H   UNL     1       6.001  28.058  55.592  1.00  0.00     0.169 HD
ENDROOT
BRANCH   2   5
HETATM    5  C   UNL     1       6.872  29.156  57.629  1.00  0.00     0.185 C 
BRANCH   5   6
HETATM    6  S   UNL     1       8.147  30.245  58.321  1.00  0.00    -0.083 SA
BRANCH   6   7
HETATM    7  C   UNL     1       7.196  31.349  59.237  1.00  0.00     0.167 A 
HETATM    8  N   UNL     1       6.124  31.995  58.848  1.00  0.00    -0.235 NA
HETATM    9  C   UNL     1       5.770  32.754  59.940  1.00  0.00     0.149 A 
HETATM   10  C   UNL     1       6.653  32.588  60.996  1.00  0.00     0.062 A 
HETATM   11  N   UNL     1       7.550  31.660  60.514  1.00  0.00    -0.333 N 
HETATM   12  H   UNL     1       8.340  31.266  61.002  1.00  0.00     0.168 HD
BRANCH  10  13
HETATM   13  C   UNL     1       6.708  33.190  62.330  1.00  0.00    -0.008 A 
HETATM   14  C   UNL     1       5.996  34.367  62.606  1.00  0.00     0.014 A 
HETATM   15  C   UNL     1       6.049  34.961  63.870  1.00  0.00     0.001 A 
HETATM   16  C   UNL     1       6.815  34.386  64.879  1.00  0.00     0.000 A 
HETATM   17  C   UNL     1       7.529  33.218  64.624  1.00  0.00     0.001 A 
HETATM   18  C   UNL     1       7.477  32.626  63.358  1.00  0.00     0.014 A 
ENDBRANCH  10  13
ENDBRANCH   6   7
ENDBRANCH   5   6
ENDBRANCH   2   5
BRANCH   1  19
HETATM   19  C   UNL     1       6.972  26.281  55.158  1.00  0.00     0.034 A 
HETATM   20  C   UNL     1       7.538  26.273  53.885  1.00  0.00     0.032 A 
HETATM   21  C   UNL     1       7.760  25.063  53.208  1.00  0.00     0.032 A 
HETATM   22  C   UNL     1       7.417  23.845  53.793  1.00  0.00     0.034 A 
HETATM   23  C   UNL     1       6.835  23.855  55.066  1.00  0.00     0.032 A 
HETATM   24  C   UNL     1       6.618  25.061  55.742  1.00  0.00     0.032 A 
BRANCH  22  25
HETATM   25  N   UNL     1       7.629  22.587  53.193  1.00  0.00    -0.328 N 
HETATM   26  C   UNL     1       8.567  21.633  53.545  1.00  0.00     0.218 C 
HETATM   27  C   UNL     1       8.473  20.387  52.700  1.00  0.00     0.117 C 
HETATM   28  O   UNL     1       9.422  21.727  54.419  1.00  0.00    -0.274 OA
HETATM   29  H   UNL     1       7.014  22.359  52.423  1.00  0.00     0.169 HD
ENDBRANCH  22  25
ENDBRANCH   1  19
TORSDOF 6
ENDMDL
MODEL 8
REMARK VINA RESULT:      -8.8      1.664      2.465
REMARK  6 active torsions:
REMARK  status: ('A' for Active; 'I' for Inactive)
REMARK       I    between atoms: C_2  and  N_3 
REMARK    1  A    between atoms: N_3  and  C_4 
REMARK    2  A    between atoms: C_7  and  N_8 
REMARK       I    between atoms: N_8  and  C_9 
REMARK    3  A    between atoms: C_9  and  C_10 
REMARK    4  A    between atoms: C_10  and  S_11 
REMARK    5  A    between atoms: S_11  and  C_12 
REMARK    6  A    between atoms: C_15  and  C_16 
ROOT
HETATM    1  N   UNL     1       7.153  31.518  60.838  1.00  0.00    -0.327 N 
HETATM    2  C   UNL     1       8.010  31.736  59.774  1.00  0.00     0.231 C 
HETATM    3  O   UNL     1       8.813  32.659  59.666  1.00  0.00    -0.272 OA
HETATM    4  H   UNL     1       6.663  30.620  60.828  1.00  0.00     0.169 HD
ENDROOT
BRANCH   2   5
HETATM    5  C   UNL     1       7.861  30.701  58.667  1.00  0.00     0.185 C 
BRANCH   5   6
HETATM    6  S   UNL     1       6.304  30.919  57.762  1.00  0.00    -0.083 SA
BRANCH   6   7
HETATM    7  C   UNL     1       5.986  29.312  57.235  1.00  0.00     0.167 A 
HETATM    8  N   UNL     1       4.829  28.795  56.898  1.00  0.00    -0.235 NA
HETATM    9  C   UNL     1       5.121  27.488  56.584  1.00  0.00     0.149 A 
HETATM   10  C   UNL     1       6.466  27.199  56.759  1.00  0.00     0.062 A 
HETATM   11  N   UNL     1       6.997  28.404  57.162  1.00  0.00    -0.333 N 
HETATM   12  H   UNL     1       7.963  28.603  57.373  1.00  0.00     0.168 HD
BRANCH  10  13
HETATM   13  C   UNL     1       7.232  25.964  56.582  1.00  0.00    -0.008 A 
HETATM   14  C   UNL     1       8.209  25.595  57.519  1.00  0.00     0.014 A 
HETATM   15  C   UNL     1       8.958  24.426  57.357  1.00  0.00     0.001 A 
HETATM   16  C   UNL     1       8.742  23.606  56.254  1.00  0.00     0.000 A 
HETATM   17  C   UNL     1       7.777  23.955  55.312  1.00  0.00     0.001 A 
HETATM   18  C   UNL     1       7.030  25.127  55.474  1.00  0.00     0.014 A 
ENDBRANCH  10  13
ENDBRANCH   6   7
ENDBRANCH   5   6
ENDBRANCH   2   5
BRANCH   1  19
HETATM   19  C   UNL     1       6.960  32.317  61.978  1.00  0.00     0.034 A 
HETATM   20  C   UNL     1       5.936  33.251  62.117  1.00  0.00     0.032 A 
HETATM   21  C   UNL     1       5.792  33.984  63.307  1.00  0.00     0.032 A 
HETATM   22  C   UNL     1       6.671  33.793  64.372  1.00  0.00     0.034 A 
HETATM   23  C   UNL     1       7.708  32.865  64.225  1.00  0.00     0.032 A 
HETATM   24  C   UNL     1       7.848  32.133  63.042  1.00  0.00     0.032 A 
BRANCH  22  25
HETATM   25  N   UNL     1       6.581  34.467  65.607  1.00  0.00    -0.328 N 
HETATM   26  C   UNL     1       5.581  34.357  66.556  1.00  0.00     0.218 C 
HETATM   27  C   UNL     1       5.843  35.204  67.777  1.00  0.00     0.117 C 
HETATM   28  O   UNL     1       4.560  33.684  66.477  1.00  0.00    -0.274 OA
HETATM   29  H   UNL     1       7.345  35.095  65.821  1.00  0.00     0.169 HD
ENDBRANCH  22  25
ENDBRANCH   1  19
TORSDOF 6
ENDMDL
MODEL 9
REMARK VINA RESULT:      -8.4      6.171      9.430
REMARK  6 active torsions:
REMARK  status: ('A' for Active; 'I' for Inactive)
REMARK       I    between atoms: C_2  and  N_3 
REMARK    1  A    between atoms: N_3  and  C_4 
REMARK    2  A    between atoms: C_7  and  N_8 
REMARK       I    between atoms: N_8  and  C_9 
REMARK    3  A    between atoms: C_9  and  C_10 
REMARK    4  A    between atoms: C_10  and  S_11 
REMARK    5  A    between atoms: S_11  and  C_12 
REMARK    6  A    between atoms: C_15  and  C_16 
ROOT
HETATM    1  N   UNL     1       4.263  27.521  54.006  1.00  0.00    -0.327 N 
HETATM    2  C   UNL     1       5.267  27.881  54.886  1.00  0.00     0.231 C 
HETATM    3  O   UNL     1       6.195  28.651  54.654  1.00  0.00    -0.272 OA
HETATM    4  H   UNL     1       3.491  26.989  54.415  1.00  0.00     0.169 HD
ENDROOT
BRANCH   2   5
HETATM    5  C   UNL     1       5.147  27.194  56.240  1.00  0.00     0.185 C 
BRANCH   5   6
HETATM    6  S   UNL     1       6.617  27.485  57.262  1.00  0.00    -0.083 SA
BRANCH   6   7
HETATM    7  C   UNL     1       7.450  25.987  57.099  1.00  0.00     0.167 A 
HETATM    8  N   UNL     1       8.433  25.535  57.838  1.00  0.00    -0.235 NA
HETATM    9  C   UNL     1       8.749  24.320  57.276  1.00  0.00     0.149 A 
HETATM   10  C   UNL     1       7.967  24.043  56.164  1.00  0.00     0.062 A 
HETATM   11  N   UNL     1       7.128  25.132  56.091  1.00  0.00    -0.333 N 
HETATM   12  H   UNL     1       6.395  25.292  55.416  1.00  0.00     0.168 HD
BRANCH  10  13
HETATM   13  C   UNL     1       7.950  22.909  55.238  1.00  0.00    -0.008 A 
HETATM   14  C   UNL     1       8.024  23.123  53.853  1.00  0.00     0.014 A 
HETATM   15  C   UNL     1       7.995  22.052  52.956  1.00  0.00     0.001 A 
HETATM   16  C   UNL     1       7.892  20.748  53.430  1.00  0.00     0.000 A 
HETATM   17  C   UNL     1       7.818  20.515  54.801  1.00  0.00     0.001 A 
HETATM   18  C   UNL     1       7.845  21.587  55.698  1.00  0.00     0.014 A 
ENDBRANCH  10  13
ENDBRANCH   6   7
ENDBRANCH   5   6
ENDBRANCH   2   5
BRANCH   1  19
HETATM   19  C   UNL     1       4.114  27.890  52.657  1.00  0.00     0.034 A 
HETATM   20  C   UNL     1       4.875  27.370  51.613  1.00  0.00     0.032 A 
HETATM   21  C   UNL     1       4.636  27.767  50.287  1.00  0.00     0.032 A 
HETATM   22  C   UNL     1       3.635  28.691  49.988  1.00  0.00     0.034 A 
HETATM   23  C   UNL     1       2.882  29.223  51.040  1.00  0.00     0.032 A 
HETATM   24  C   UNL     1       3.117  28.825  52.360  1.00  0.00     0.032 A 
BRANCH  22  25
HETATM   25  N   UNL     1       3.314  29.122  48.685  1.00  0.00    -0.328 N 
HETATM   26  C   UNL     1       3.944  30.105  47.944  1.00  0.00     0.218 C 
HETATM   27  C   UNL     1       3.349  30.266  46.567  1.00  0.00     0.117 C 
HETATM   28  O   UNL     1       4.873  30.819  48.305  1.00  0.00    -0.274 OA
HETATM   29  H   UNL     1       2.539  28.645  48.244  1.00  0.00     0.169 HD
ENDBRANCH  22  25
ENDBRANCH   1  19
TORSDOF 6
ENDMDL
MODEL 10
REMARK VINA RESULT:      -8.2      1.958      2.676
REMARK  6 active torsions:
REMARK  status: ('A' for Active; 'I' for Inactive)
REMARK       I    between atoms: C_2  and  N_3 
REMARK    1  A    between atoms: N_3  and  C_4 
REMARK    2  A    between atoms: C_7  and  N_8 
REMARK       I    between atoms: N_8  and  C_9 
REMARK    3  A    between atoms: C_9  and  C_10 
REMARK    4  A    between atoms: C_10  and  S_11 
REMARK    5  A    between atoms: S_11  and  C_12 
REMARK    6  A    between atoms: C_15  and  C_16 
ROOT
HETATM    1  N   UNL     1       7.412  31.723  60.807  1.00  0.00    -0.327 N 
HETATM    2  C   UNL     1       8.330  31.932  59.793  1.00  0.00     0.231 C 
HETATM    3  O   UNL     1       9.143  32.851  59.728  1.00  0.00    -0.272 OA
HETATM    4  H   UNL     1       6.919  30.828  60.773  1.00  0.00     0.169 HD
ENDROOT
BRANCH   2   5
HETATM    5  C   UNL     1       8.240  30.893  58.684  1.00  0.00     0.185 C 
BRANCH   5   6
HETATM    6  S   UNL     1       9.885  30.441  58.066  1.00  0.00    -0.083 SA
BRANCH   6   7
HETATM    7  C   UNL     1       9.486  29.588  56.625  1.00  0.00     0.167 A 
HETATM    8  N   UNL     1      10.007  29.746  55.432  1.00  0.00    -0.235 NA
HETATM    9  C   UNL     1       9.327  28.848  54.643  1.00  0.00     0.149 A 
HETATM   10  C   UNL     1       8.363  28.154  55.359  1.00  0.00     0.062 A 
HETATM   11  N   UNL     1       8.506  28.644  56.638  1.00  0.00    -0.333 N 
HETATM   12  H   UNL     1       7.987  28.369  57.458  1.00  0.00     0.168 HD
BRANCH  10  13
HETATM   13  C   UNL     1       7.391  27.134  54.957  1.00  0.00    -0.008 A 
HETATM   14  C   UNL     1       6.342  26.777  55.818  1.00  0.00     0.014 A 
HETATM   15  C   UNL     1       5.415  25.796  55.455  1.00  0.00     0.001 A 
HETATM   16  C   UNL     1       5.521  25.158  54.224  1.00  0.00     0.000 A 
HETATM   17  C   UNL     1       6.555  25.498  53.356  1.00  0.00     0.001 A 
HETATM   18  C   UNL     1       7.484  26.478  53.721  1.00  0.00     0.014 A 
ENDBRANCH  10  13
ENDBRANCH   6   7
ENDBRANCH   5   6
ENDBRANCH   2   5
BRANCH   1  19
HETATM   19  C   UNL     1       7.158  32.529  61.931  1.00  0.00     0.034 A 
HETATM   20  C   UNL     1       6.262  33.595  61.945  1.00  0.00     0.032 A 
HETATM   21  C   UNL     1       6.040  34.327  63.123  1.00  0.00     0.032 A 
HETATM   22  C   UNL     1       6.712  34.004  64.301  1.00  0.00     0.034 A 
HETATM   23  C   UNL     1       7.623  32.942  64.281  1.00  0.00     0.032 A 
HETATM   24  C   UNL     1       7.841  32.211  63.108  1.00  0.00     0.032 A 
BRANCH  22  25
HETATM   25  N   UNL     1       6.528  34.670  65.529  1.00  0.00    -0.328 N 
HETATM   26  C   UNL     1       5.529  34.456  66.462  1.00  0.00     0.218 C 
HETATM   27  C   UNL     1       5.676  35.333  67.682  1.00  0.00     0.117 C 
HETATM   28  O   UNL     1       4.589  33.675  66.370  1.00  0.00    -0.274 OA
HETATM   29  H   UNL     1       7.214  35.379  65.751  1.00  0.00     0.169 HD
ENDBRANCH  22  25
ENDBRANCH   1  19
TORSDOF 6
ENDMDL
