MODEL 1
REMARK VINA RESULT:      -9.1      0.000      0.000
REMARK  10 active torsions:
REMARK  status: ('A' for Active; 'I' for Inactive)
REMARK    1  A    between atoms: C_2  and  N_3 
REMARK    2  A    between atoms: N_3  and  N_4 
REMARK       I    between atoms: N_4  and  C_5 
REMARK    3  A    between atoms: C_5  and  C_6 
REMARK    4  A    between atoms: C_7  and  N_8 
REMARK    5  A    between atoms: C_14  and  C_15 
REMARK       I    between atoms: C_15  and  N_16 
REMARK    6  A    between atoms: N_16  and  C_17 
REMARK    7  A    between atoms: C_17  and  C_18 
REMARK    8  A    between atoms: C_18  and  C_19 
REMARK    9  A    between atoms: C_21  and  O_22 
REMARK   10  A    between atoms: C_24  and  O_25 
ROOT
HETATM    1  C   UNL     1       5.362  30.428  57.379  1.00  0.00     0.070 C 
HETATM    2  C   UNL     1       5.865  29.002  57.436  1.00  0.00     0.027 C 
HETATM    3  C   UNL     1       7.116  28.705  57.848  1.00  0.00     0.100 C 
ENDROOT
BRANCH   2   4
HETATM    4  N   UNL     1       4.933  28.049  57.048  1.00  0.00    -0.302 N 
HETATM    5  H   UNL     1       3.954  28.273  57.273  1.00  0.00     0.186 HD
BRANCH   4   6
HETATM    6  N   UNL     1       5.060  27.232  55.923  1.00  0.00    -0.266 N 
HETATM    7  C   UNL     1       5.325  25.894  56.171  1.00  0.00     0.271 C 
HETATM    8  O   UNL     1       5.036  25.321  57.216  1.00  0.00    -0.266 OA
HETATM    9  H   UNL     1       5.511  27.658  55.113  1.00  0.00     0.190 HD
BRANCH   7  10
HETATM   10  C   UNL     1       6.018  25.178  55.066  1.00  0.00     0.054 A 
HETATM   11  C   UNL     1       5.473  25.095  53.767  1.00  0.00     0.021 A 
HETATM   12  C   UNL     1       6.118  24.278  52.829  1.00  0.00     0.024 A 
HETATM   13  C   UNL     1       7.341  23.670  53.129  1.00  0.00     0.002 A 
HETATM   14  C   UNL     1       7.918  23.839  54.386  1.00  0.00     0.001 A 
HETATM   15  C   UNL     1       7.256  24.586  55.357  1.00  0.00     0.019 A 
BRANCH  11  16
HETATM   16  N   UNL     1       4.213  25.643  53.429  1.00  0.00    -0.302 NA
HETATM   17  H   UNL     1       3.571  24.930  53.073  1.00  0.00     0.124 HD
HETATM   18  H   UNL     1       3.777  26.128  54.212  1.00  0.00     0.124 HD
ENDBRANCH  11  16
ENDBRANCH   7  10
ENDBRANCH   4   6
ENDBRANCH   2   4
BRANCH   3  19
HETATM   19  C   UNL     1       8.137  29.686  58.313  1.00  0.00     0.243 C 
HETATM   20  N   UNL     1       8.021  29.971  59.653  1.00  0.00    -0.357 N 
HETATM   21  H   UNL     1       7.324  29.504  60.215  1.00  0.00     0.162 HD
HETATM   22  O   UNL     1       8.978  30.194  57.586  1.00  0.00    -0.269 OA
BRANCH  20  23
HETATM   23  C   UNL     1       8.922  30.896  60.316  1.00  0.00     0.127 C 
BRANCH  23  24
HETATM   24  C   UNL     1       8.339  32.308  60.435  1.00  0.00     0.058 C 
BRANCH  24  25
HETATM   25  C   UNL     1       7.432  32.436  61.635  1.00  0.00    -0.054 A 
HETATM   26  C   UNL     1       6.039  32.339  61.488  1.00  0.00     0.046 A 
HETATM   27  C   UNL     1       5.188  32.495  62.590  1.00  0.00     0.102 A 
HETATM   28  C   UNL     1       5.737  32.751  63.862  1.00  0.00     0.101 A 
HETATM   29  C   UNL     1       7.126  32.836  64.009  1.00  0.00     0.040 A 
HETATM   30  C   UNL     1       7.965  32.683  62.903  1.00  0.00     0.010 A 
BRANCH  27  31
HETATM   31  O   UNL     1       3.818  32.424  62.529  1.00  0.00    -0.353 OA
HETATM   32  C   UNL     1       3.126  33.521  61.950  1.00  0.00     0.210 C 
ENDBRANCH  27  31
BRANCH  28  33
HETATM   33  O   UNL     1       4.840  32.898  64.892  1.00  0.00    -0.353 OA
HETATM   34  C   UNL     1       5.070  33.945  65.822  1.00  0.00     0.210 C 
ENDBRANCH  28  33
ENDBRANCH  24  25
ENDBRANCH  23  24
ENDBRANCH  20  23
ENDBRANCH   3  19
TORSDOF 10
ENDMDL
MODEL 2
REMARK VINA RESULT:      -9.0      1.521      1.710
REMARK  10 active torsions:
REMARK  status: ('A' for Active; 'I' for Inactive)
REMARK    1  A    between atoms: C_2  and  N_3 
REMARK    2  A    between atoms: N_3  and  N_4 
REMARK       I    between atoms: N_4  and  C_5 
REMARK    3  A    between atoms: C_5  and  C_6 
REMARK    4  A    between atoms: C_7  and  N_8 
REMARK    5  A    between atoms: C_14  and  C_15 
REMARK       I    between atoms: C_15  and  N_16 
REMARK    6  A    between atoms: N_16  and  C_17 
REMARK    7  A    between atoms: C_17  and  C_18 
REMARK    8  A    between atoms: C_18  and  C_19 
REMARK    9  A    between atoms: C_21  and  O_22 
REMARK   10  A    between atoms: C_24  and  O_25 
ROOT
HETATM    1  C   UNL     1       6.830  29.632  56.187  1.00  0.00     0.070 C 
HETATM    2  C   UNL     1       7.243  28.557  57.169  1.00  0.00     0.027 C 
HETATM    3  C   UNL     1       8.014  28.832  58.242  1.00  0.00     0.100 C 
ENDROOT
BRANCH   2   4
HETATM    4  N   UNL     1       6.751  27.293  56.874  1.00  0.00    -0.302 N 
HETATM    5  H   UNL     1       5.746  27.250  56.659  1.00  0.00     0.186 HD
BRANCH   4   6
HETATM    6  N   UNL     1       7.486  26.286  56.246  1.00  0.00    -0.266 N 
HETATM    7  C   UNL     1       7.057  25.920  54.979  1.00  0.00     0.271 C 
HETATM    8  O   UNL     1       6.414  26.654  54.235  1.00  0.00    -0.266 OA
HETATM    9  H   UNL     1       7.838  25.546  56.854  1.00  0.00     0.190 HD
BRANCH   7  10
HETATM   10  C   UNL     1       7.420  24.536  54.571  1.00  0.00     0.054 A 
HETATM   11  C   UNL     1       7.833  24.224  53.258  1.00  0.00     0.021 A 
HETATM   12  C   UNL     1       8.011  22.875  52.924  1.00  0.00     0.024 A 
HETATM   13  C   UNL     1       7.915  21.876  53.898  1.00  0.00     0.002 A 
HETATM   14  C   UNL     1       7.601  22.208  55.214  1.00  0.00     0.001 A 
HETATM   15  C   UNL     1       7.346  23.535  55.551  1.00  0.00     0.019 A 
BRANCH  11  16
HETATM   16  N   UNL     1       7.890  25.188  52.225  1.00  0.00    -0.302 NA
HETATM   17  H   UNL     1       8.299  26.068  52.548  1.00  0.00     0.124 HD
HETATM   18  H   UNL     1       8.404  24.855  51.411  1.00  0.00     0.124 HD
ENDBRANCH  11  16
ENDBRANCH   7  10
ENDBRANCH   4   6
ENDBRANCH   2   4
BRANCH   3  19
HETATM   19  C   UNL     1       8.531  30.177  58.624  1.00  0.00     0.243 C 
HETATM   20  N   UNL     1       7.784  30.766  59.617  1.00  0.00    -0.357 N 
HETATM   21  H   UNL     1       7.006  30.272  60.029  1.00  0.00     0.162 HD
HETATM   22  O   UNL     1       9.502  30.708  58.105  1.00  0.00    -0.269 OA
BRANCH  20  23
HETATM   23  C   UNL     1       8.117  32.076  60.146  1.00  0.00     0.127 C 
BRANCH  23  24
HETATM   24  C   UNL     1       8.658  32.016  61.578  1.00  0.00     0.058 C 
BRANCH  24  25
HETATM   25  C   UNL     1       7.588  32.341  62.592  1.00  0.00    -0.054 A 
HETATM   26  C   UNL     1       6.232  32.159  62.277  1.00  0.00     0.046 A 
HETATM   27  C   UNL     1       5.229  32.494  63.198  1.00  0.00     0.102 A 
HETATM   28  C   UNL     1       5.588  33.018  64.456  1.00  0.00     0.101 A 
HETATM   29  C   UNL     1       6.941  33.186  64.772  1.00  0.00     0.040 A 
HETATM   30  C   UNL     1       7.931  32.853  63.846  1.00  0.00     0.010 A 
BRANCH  27  31
HETATM   31  O   UNL     1       3.883  32.357  62.964  1.00  0.00    -0.353 OA
HETATM   32  C   UNL     1       3.297  33.191  61.975  1.00  0.00     0.210 C 
ENDBRANCH  27  31
BRANCH  28  33
HETATM   33  O   UNL     1       4.551  33.327  65.302  1.00  0.00    -0.353 OA
HETATM   34  C   UNL     1       4.859  34.051  66.483  1.00  0.00     0.210 C 
ENDBRANCH  28  33
ENDBRANCH  24  25
ENDBRANCH  23  24
ENDBRANCH  20  23
ENDBRANCH   3  19
TORSDOF 10
ENDMDL
MODEL 3
REMARK VINA RESULT:      -9.0      0.842      1.356
REMARK  10 active torsions:
REMARK  status: ('A' for Active; 'I' for Inactive)
REMARK    1  A    between atoms: C_2  and  N_3 
REMARK    2  A    between atoms: N_3  and  N_4 
REMARK       I    between atoms: N_4  and  C_5 
REMARK    3  A    between atoms: C_5  and  C_6 
REMARK    4  A    between atoms: C_7  and  N_8 
REMARK    5  A    between atoms: C_14  and  C_15 
REMARK       I    between atoms: C_15  and  N_16 
REMARK    6  A    between atoms: N_16  and  C_17 
REMARK    7  A    between atoms: C_17  and  C_18 
REMARK    8  A    between atoms: C_18  and  C_19 
REMARK    9  A    between atoms: C_21  and  O_22 
REMARK   10  A    between atoms: C_24  and  O_25 
ROOT
HETATM    1  C   UNL     1       5.339  30.303  57.404  1.00  0.00     0.070 C 
HETATM    2  C   UNL     1       5.883  28.891  57.416  1.00  0.00     0.027 C 
HETATM    3  C   UNL     1       7.150  28.620  57.798  1.00  0.00     0.100 C 
ENDROOT
BRANCH   2   4
HETATM    4  N   UNL     1       4.971  27.922  57.022  1.00  0.00    -0.302 N 
HETATM    5  H   UNL     1       3.981  28.172  57.146  1.00  0.00     0.186 HD
BRANCH   4   6
HETATM    6  N   UNL     1       5.179  27.021  55.976  1.00  0.00    -0.266 N 
HETATM    7  C   UNL     1       5.339  25.693  56.340  1.00  0.00     0.271 C 
HETATM    8  O   UNL     1       4.902  25.210  57.380  1.00  0.00    -0.266 OA
HETATM    9  H   UNL     1       5.742  27.365  55.197  1.00  0.00     0.190 HD
BRANCH   7  10
HETATM   10  C   UNL     1       6.111  24.867  55.372  1.00  0.00     0.054 A 
HETATM   11  C   UNL     1       7.198  24.061  55.773  1.00  0.00     0.021 A 
HETATM   12  C   UNL     1       7.960  23.435  54.777  1.00  0.00     0.024 A 
HETATM   13  C   UNL     1       7.574  23.497  53.434  1.00  0.00     0.002 A 
HETATM   14  C   UNL     1       6.441  24.218  53.063  1.00  0.00     0.001 A 
HETATM   15  C   UNL     1       5.713  24.909  54.029  1.00  0.00     0.019 A 
BRANCH  11  16
HETATM   16  N   UNL     1       7.663  24.011  57.108  1.00  0.00    -0.302 NA
HETATM   17  H   UNL     1       6.899  23.856  57.771  1.00  0.00     0.124 HD
HETATM   18  H   UNL     1       8.378  23.298  57.245  1.00  0.00     0.124 HD
ENDBRANCH  11  16
ENDBRANCH   7  10
ENDBRANCH   4   6
ENDBRANCH   2   4
BRANCH   3  19
HETATM   19  C   UNL     1       8.152  29.618  58.268  1.00  0.00     0.243 C 
HETATM   20  N   UNL     1       7.992  29.938  59.596  1.00  0.00    -0.357 N 
HETATM   21  H   UNL     1       7.280  29.482  60.148  1.00  0.00     0.162 HD
HETATM   22  O   UNL     1       9.013  30.111  57.555  1.00  0.00    -0.269 OA
BRANCH  20  23
HETATM   23  C   UNL     1       8.867  30.885  60.263  1.00  0.00     0.127 C 
BRANCH  23  24
HETATM   24  C   UNL     1       8.253  32.284  60.372  1.00  0.00     0.058 C 
BRANCH  24  25
HETATM   25  C   UNL     1       7.386  32.417  61.600  1.00  0.00    -0.054 A 
HETATM   26  C   UNL     1       5.987  32.354  61.494  1.00  0.00     0.046 A 
HETATM   27  C   UNL     1       5.173  32.514  62.624  1.00  0.00     0.102 A 
HETATM   28  C   UNL     1       5.766  32.739  63.882  1.00  0.00     0.101 A 
HETATM   29  C   UNL     1       7.160  32.790  63.987  1.00  0.00     0.040 A 
HETATM   30  C   UNL     1       7.962  32.633  62.855  1.00  0.00     0.010 A 
BRANCH  27  31
HETATM   31  O   UNL     1       3.800  32.476  62.602  1.00  0.00    -0.353 OA
HETATM   32  C   UNL     1       3.120  33.553  61.974  1.00  0.00     0.210 C 
ENDBRANCH  27  31
BRANCH  28  33
HETATM   33  O   UNL     1       4.903  32.893  64.940  1.00  0.00    -0.353 OA
HETATM   34  C   UNL     1       4.811  34.179  65.533  1.00  0.00     0.210 C 
ENDBRANCH  28  33
ENDBRANCH  24  25
ENDBRANCH  23  24
ENDBRANCH  20  23
ENDBRANCH   3  19
TORSDOF 10
ENDMDL
MODEL 4
REMARK VINA RESULT:      -8.7      1.505      2.076
REMARK  10 active torsions:
REMARK  status: ('A' for Active; 'I' for Inactive)
REMARK    1  A    between atoms: C_2  and  N_3 
REMARK    2  A    between atoms: N_3  and  N_4 
REMARK       I    between atoms: N_4  and  C_5 
REMARK    3  A    between atoms: C_5  and  C_6 
REMARK    4  A    between atoms: C_7  and  N_8 
REMARK    5  A    between atoms: C_14  and  C_15 
REMARK       I    between atoms: C_15  and  N_16 
REMARK    6  A    between atoms: N_16  and  C_17 
REMARK    7  A    between atoms: C_17  and  C_18 
REMARK    8  A    between atoms: C_18  and  C_19 
REMARK    9  A    between atoms: C_21  and  O_22 
REMARK   10  A    between atoms: C_24  and  O_25 
ROOT
HETATM    1  C   UNL     1       9.957  30.027  57.319  1.00  0.00     0.070 C 
HETATM    2  C   UNL     1       8.743  29.186  57.647  1.00  0.00     0.027 C 
HETATM    3  C   UNL     1       7.739  29.657  58.418  1.00  0.00     0.100 C 
ENDROOT
BRANCH   2   4
HETATM    4  N   UNL     1       8.753  27.919  57.080  1.00  0.00    -0.302 N 
HETATM    5  H   UNL     1       9.232  27.194  57.629  1.00  0.00     0.186 HD
BRANCH   4   6
HETATM    6  N   UNL     1       7.735  27.408  56.273  1.00  0.00    -0.266 N 
HETATM    7  C   UNL     1       7.661  26.025  56.191  1.00  0.00     0.271 C 
HETATM    8  O   UNL     1       8.093  25.264  57.050  1.00  0.00    -0.266 OA
HETATM    9  H   UNL     1       7.527  27.940  55.428  1.00  0.00     0.190 HD
BRANCH   7  10
HETATM   10  C   UNL     1       7.021  25.506  54.951  1.00  0.00     0.054 A 
HETATM   11  C   UNL     1       5.707  25.861  54.579  1.00  0.00     0.021 A 
HETATM   12  C   UNL     1       5.133  25.210  53.479  1.00  0.00     0.024 A 
HETATM   13  C   UNL     1       5.885  24.335  52.690  1.00  0.00     0.002 A 
HETATM   14  C   UNL     1       7.214  24.067  53.013  1.00  0.00     0.001 A 
HETATM   15  C   UNL     1       7.781  24.645  54.146  1.00  0.00     0.019 A 
BRANCH  11  16
HETATM   16  N   UNL     1       4.886  26.696  55.373  1.00  0.00    -0.302 NA
HETATM   17  H   UNL     1       5.439  27.312  55.975  1.00  0.00     0.124 HD
HETATM   18  H   UNL     1       4.246  27.258  54.814  1.00  0.00     0.124 HD
ENDBRANCH  11  16
ENDBRANCH   7  10
ENDBRANCH   4   6
ENDBRANCH   2   4
BRANCH   3  19
HETATM   19  C   UNL     1       7.662  31.020  59.013  1.00  0.00     0.243 C 
HETATM   20  N   UNL     1       8.246  31.085  60.257  1.00  0.00    -0.357 N 
HETATM   21  H   UNL     1       8.696  30.272  60.651  1.00  0.00     0.162 HD
HETATM   22  O   UNL     1       7.129  31.976  58.469  1.00  0.00    -0.269 OA
BRANCH  20  23
HETATM   23  C   UNL     1       8.292  32.323  61.014  1.00  0.00     0.127 C 
BRANCH  23  24
HETATM   24  C   UNL     1       8.584  32.097  62.501  1.00  0.00     0.058 C 
BRANCH  24  25
HETATM   25  C   UNL     1       7.474  32.628  63.374  1.00  0.00    -0.054 A 
HETATM   26  C   UNL     1       6.132  32.481  62.988  1.00  0.00     0.046 A 
HETATM   27  C   UNL     1       5.096  33.004  63.773  1.00  0.00     0.102 A 
HETATM   28  C   UNL     1       5.405  33.686  64.967  1.00  0.00     0.101 A 
HETATM   29  C   UNL     1       6.743  33.822  65.356  1.00  0.00     0.040 A 
HETATM   30  C   UNL     1       7.767  33.300  64.564  1.00  0.00     0.010 A 
BRANCH  27  31
HETATM   31  O   UNL     1       3.762  32.912  63.461  1.00  0.00    -0.353 OA
HETATM   32  C   UNL     1       3.308  33.590  62.299  1.00  0.00     0.210 C 
ENDBRANCH  27  31
BRANCH  28  33
HETATM   33  O   UNL     1       4.338  34.176  65.679  1.00  0.00    -0.353 OA
HETATM   34  C   UNL     1       4.384  34.066  67.094  1.00  0.00     0.210 C 
ENDBRANCH  28  33
ENDBRANCH  24  25
ENDBRANCH  23  24
ENDBRANCH  20  23
ENDBRANCH   3  19
TORSDOF 10
ENDMDL
MODEL 5
REMARK VINA RESULT:      -8.7      2.461     11.034
REMARK  10 active torsions:
REMARK  status: ('A' for Active; 'I' for Inactive)
REMARK    1  A    between atoms: C_2  and  N_3 
REMARK    2  A    between atoms: N_3  and  N_4 
REMARK       I    between atoms: N_4  and  C_5 
REMARK    3  A    between atoms: C_5  and  C_6 
REMARK    4  A    between atoms: C_7  and  N_8 
REMARK    5  A    between atoms: C_14  and  C_15 
REMARK       I    between atoms: C_15  and  N_16 
REMARK    6  A    between atoms: N_16  and  C_17 
REMARK    7  A    between atoms: C_17  and  C_18 
REMARK    8  A    between atoms: C_18  and  C_19 
REMARK    9  A    between atoms: C_21  and  O_22 
REMARK   10  A    between atoms: C_24  and  O_25 
ROOT
HETATM    1  C   UNL     1       9.539  29.940  57.759  1.00  0.00     0.070 C 
HETATM    2  C   UNL     1       8.268  29.819  58.571  1.00  0.00     0.027 C 
HETATM    3  C   UNL     1       7.100  29.439  58.012  1.00  0.00     0.100 C 
ENDROOT
BRANCH   2   4
HETATM    4  N   UNL     1       8.420  30.114  59.920  1.00  0.00    -0.302 N 
HETATM    5  H   UNL     1       9.392  30.159  60.255  1.00  0.00     0.186 HD
BRANCH   4   6
HETATM    6  N   UNL     1       7.553  30.926  60.653  1.00  0.00    -0.266 N 
HETATM    7  C   UNL     1       8.019  32.197  60.952  1.00  0.00     0.271 C 
HETATM    8  O   UNL     1       8.875  32.785  60.299  1.00  0.00    -0.266 OA
HETATM    9  H   UNL     1       6.992  30.453  61.361  1.00  0.00     0.190 HD
BRANCH   7  10
HETATM   10  C   UNL     1       7.410  32.818  62.160  1.00  0.00     0.054 A 
HETATM   11  C   UNL     1       6.190  33.525  62.108  1.00  0.00     0.021 A 
HETATM   12  C   UNL     1       5.767  34.201  63.260  1.00  0.00     0.024 A 
HETATM   13  C   UNL     1       6.464  34.069  64.465  1.00  0.00     0.002 A 
HETATM   14  C   UNL     1       7.616  33.289  64.527  1.00  0.00     0.001 A 
HETATM   15  C   UNL     1       8.095  32.669  63.375  1.00  0.00     0.019 A 
BRANCH  11  16
HETATM   16  N   UNL     1       5.479  33.735  60.903  1.00  0.00    -0.302 NA
HETATM   17  H   UNL     1       6.109  33.868  60.107  1.00  0.00     0.124 HD
HETATM   18  H   UNL     1       4.830  32.977  60.697  1.00  0.00     0.124 HD
ENDBRANCH  11  16
ENDBRANCH   7  10
ENDBRANCH   4   6
ENDBRANCH   2   4
BRANCH   3  19
HETATM   19  C   UNL     1       6.895  29.072  56.583  1.00  0.00     0.243 C 
HETATM   20  N   UNL     1       7.094  27.731  56.349  1.00  0.00    -0.357 N 
HETATM   21  H   UNL     1       7.314  27.109  57.113  1.00  0.00     0.162 HD
HETATM   22  O   UNL     1       6.597  29.872  55.707  1.00  0.00    -0.269 OA
BRANCH  20  23
HETATM   23  C   UNL     1       6.938  27.157  55.026  1.00  0.00     0.127 C 
BRANCH  23  24
HETATM   24  C   UNL     1       6.034  25.920  55.020  1.00  0.00     0.058 C 
BRANCH  24  25
HETATM   25  C   UNL     1       6.796  24.675  54.634  1.00  0.00    -0.054 A 
HETATM   26  C   UNL     1       6.806  23.555  55.480  1.00  0.00     0.046 A 
HETATM   27  C   UNL     1       7.542  22.410  55.147  1.00  0.00     0.102 A 
HETATM   28  C   UNL     1       8.280  22.381  53.947  1.00  0.00     0.101 A 
HETATM   29  C   UNL     1       8.259  23.494  53.100  1.00  0.00     0.040 A 
HETATM   30  C   UNL     1       7.526  24.632  53.442  1.00  0.00     0.010 A 
BRANCH  27  31
HETATM   31  O   UNL     1       7.612  21.279  55.924  1.00  0.00    -0.353 OA
HETATM   32  C   UNL     1       8.530  21.279  57.007  1.00  0.00     0.210 C 
ENDBRANCH  27  31
BRANCH  28  33
HETATM   33  O   UNL     1       8.980  21.228  53.693  1.00  0.00    -0.353 OA
HETATM   34  C   UNL     1       8.452  20.337  52.722  1.00  0.00     0.210 C 
ENDBRANCH  28  33
ENDBRANCH  24  25
ENDBRANCH  23  24
ENDBRANCH  20  23
ENDBRANCH   3  19
TORSDOF 10
ENDMDL
MODEL 6
REMARK VINA RESULT:      -8.5      2.728     10.644
REMARK  10 active torsions:
REMARK  status: ('A' for Active; 'I' for Inactive)
REMARK    1  A    between atoms: C_2  and  N_3 
REMARK    2  A    between atoms: N_3  and  N_4 
REMARK       I    between atoms: N_4  and  C_5 
REMARK    3  A    between atoms: C_5  and  C_6 
REMARK    4  A    between atoms: C_7  and  N_8 
REMARK    5  A    between atoms: C_14  and  C_15 
REMARK       I    between atoms: C_15  and  N_16 
REMARK    6  A    between atoms: N_16  and  C_17 
REMARK    7  A    between atoms: C_17  and  C_18 
REMARK    8  A    between atoms: C_18  and  C_19 
REMARK    9  A    between atoms: C_21  and  O_22 
REMARK   10  A    between atoms: C_24  and  O_25 
ROOT
HETATM    1  C   UNL     1       7.373  27.391  57.577  1.00  0.00     0.070 C 
HETATM    2  C   UNL     1       7.543  28.850  57.212  1.00  0.00     0.027 C 
HETATM    3  C   UNL     1       7.125  29.339  56.025  1.00  0.00     0.100 C 
ENDROOT
BRANCH   2   4
HETATM    4  N   UNL     1       8.140  29.622  58.200  1.00  0.00    -0.302 N 
HETATM    5  H   UNL     1       9.061  30.011  57.959  1.00  0.00     0.186 HD
BRANCH   4   6
HETATM    6  N   UNL     1       7.440  30.406  59.119  1.00  0.00    -0.266 N 
HETATM    7  C   UNL     1       8.063  31.580  59.514  1.00  0.00     0.271 C 
HETATM    8  O   UNL     1       8.904  32.169  58.843  1.00  0.00    -0.266 OA
HETATM    9  H   UNL     1       6.908  29.896  59.825  1.00  0.00     0.190 HD
BRANCH   7  10
HETATM   10  C   UNL     1       7.648  32.089  60.850  1.00  0.00     0.054 A 
HETATM   11  C   UNL     1       6.406  32.725  61.058  1.00  0.00     0.021 A 
HETATM   12  C   UNL     1       6.161  33.305  62.310  1.00  0.00     0.024 A 
HETATM   13  C   UNL     1       7.064  33.140  63.366  1.00  0.00     0.002 A 
HETATM   14  C   UNL     1       8.244  32.426  63.173  1.00  0.00     0.001 A 
HETATM   15  C   UNL     1       8.541  31.906  61.915  1.00  0.00     0.019 A 
BRANCH  11  16
HETATM   16  N   UNL     1       5.484  32.967  60.012  1.00  0.00    -0.302 NA
HETATM   17  H   UNL     1       5.905  33.508  59.252  1.00  0.00     0.124 HD
HETATM   18  H   UNL     1       5.090  32.107  59.635  1.00  0.00     0.124 HD
ENDBRANCH  11  16
ENDBRANCH   7  10
ENDBRANCH   4   6
ENDBRANCH   2   4
BRANCH   3  19
HETATM   19  C   UNL     1       6.443  28.562  54.952  1.00  0.00     0.243 C 
HETATM   20  N   UNL     1       7.306  27.736  54.271  1.00  0.00    -0.357 N 
HETATM   21  H   UNL     1       8.277  27.677  54.544  1.00  0.00     0.162 HD
HETATM   22  O   UNL     1       5.253  28.655  54.692  1.00  0.00    -0.269 OA
BRANCH  20  23
HETATM   23  C   UNL     1       6.850  26.881  53.190  1.00  0.00     0.127 C 
BRANCH  23  24
HETATM   24  C   UNL     1       7.894  25.840  52.776  1.00  0.00     0.058 C 
BRANCH  24  25
HETATM   25  C   UNL     1       7.805  24.595  53.625  1.00  0.00    -0.054 A 
HETATM   26  C   UNL     1       7.759  23.326  53.024  1.00  0.00     0.046 A 
HETATM   27  C   UNL     1       7.638  22.167  53.802  1.00  0.00     0.102 A 
HETATM   28  C   UNL     1       7.563  22.276  55.205  1.00  0.00     0.101 A 
HETATM   29  C   UNL     1       7.621  23.540  55.802  1.00  0.00     0.040 A 
HETATM   30  C   UNL     1       7.738  24.689  55.017  1.00  0.00     0.010 A 
BRANCH  27  31
HETATM   31  O   UNL     1       7.576  20.893  53.292  1.00  0.00    -0.353 OA
HETATM   32  C   UNL     1       8.793  20.284  52.888  1.00  0.00     0.210 C 
ENDBRANCH  27  31
BRANCH  28  33
HETATM   33  O   UNL     1       7.439  21.097  55.899  1.00  0.00    -0.353 OA
HETATM   34  C   UNL     1       8.451  20.778  56.842  1.00  0.00     0.210 C 
ENDBRANCH  28  33
ENDBRANCH  24  25
ENDBRANCH  23  24
ENDBRANCH  20  23
ENDBRANCH   3  19
TORSDOF 10
ENDMDL
MODEL 7
REMARK VINA RESULT:      -8.4      2.490     11.007
REMARK  10 active torsions:
REMARK  status: ('A' for Active; 'I' for Inactive)
REMARK    1  A    between atoms: C_2  and  N_3 
REMARK    2  A    between atoms: N_3  and  N_4 
REMARK       I    between atoms: N_4  and  C_5 
REMARK    3  A    between atoms: C_5  and  C_6 
REMARK    4  A    between atoms: C_7  and  N_8 
REMARK    5  A    between atoms: C_14  and  C_15 
REMARK       I    between atoms: C_15  and  N_16 
REMARK    6  A    between atoms: N_16  and  C_17 
REMARK    7  A    between atoms: C_17  and  C_18 
REMARK    8  A    between atoms: C_18  and  C_19 
REMARK    9  A    between atoms: C_21  and  O_22 
REMARK   10  A    between atoms: C_24  and  O_25 
ROOT
HETATM    1  C   UNL     1       6.127  30.949  58.032  1.00  0.00     0.070 C 
HETATM    2  C   UNL     1       7.424  30.741  58.782  1.00  0.00     0.027 C 
HETATM    3  C   UNL     1       8.251  29.711  58.500  1.00  0.00     0.100 C 
ENDROOT
BRANCH   2   4
HETATM    4  N   UNL     1       7.685  31.698  59.754  1.00  0.00    -0.302 N 
HETATM    5  H   UNL     1       7.819  32.656  59.404  1.00  0.00     0.186 HD
BRANCH   4   6
HETATM    6  N   UNL     1       7.181  31.658  61.055  1.00  0.00    -0.266 N 
HETATM    7  C   UNL     1       6.310  32.680  61.401  1.00  0.00     0.271 C 
HETATM    8  O   UNL     1       5.643  33.315  60.591  1.00  0.00    -0.266 OA
HETATM    9  H   UNL     1       7.827  31.329  61.773  1.00  0.00     0.190 HD
BRANCH   7  10
HETATM   10  C   UNL     1       6.244  32.978  62.858  1.00  0.00     0.054 A 
HETATM   11  C   UNL     1       5.017  33.072  63.550  1.00  0.00     0.021 A 
HETATM   12  C   UNL     1       5.042  33.503  64.883  1.00  0.00     0.024 A 
HETATM   13  C   UNL     1       6.254  33.703  65.550  1.00  0.00     0.002 A 
HETATM   14  C   UNL     1       7.461  33.513  64.882  1.00  0.00     0.001 A 
HETATM   15  C   UNL     1       7.458  33.158  63.534  1.00  0.00     0.019 A 
BRANCH  11  16
HETATM   16  N   UNL     1       3.764  32.934  62.908  1.00  0.00    -0.302 NA
HETATM   17  H   UNL     1       3.857  32.521  61.977  1.00  0.00     0.124 HD
HETATM   18  H   UNL     1       3.104  32.385  63.457  1.00  0.00     0.124 HD
ENDBRANCH  11  16
ENDBRANCH   7  10
ENDBRANCH   4   6
ENDBRANCH   2   4
BRANCH   3  19
HETATM   19  C   UNL     1       8.038  28.685  57.441  1.00  0.00     0.243 C 
HETATM   20  N   UNL     1       7.365  27.579  57.908  1.00  0.00    -0.357 N 
HETATM   21  H   UNL     1       7.043  27.545  58.864  1.00  0.00     0.162 HD
HETATM   22  O   UNL     1       8.427  28.800  56.289  1.00  0.00    -0.269 OA
BRANCH  20  23
HETATM   23  C   UNL     1       7.043  26.461  57.040  1.00  0.00     0.127 C 
BRANCH  23  24
HETATM   24  C   UNL     1       7.819  25.190  57.400  1.00  0.00     0.058 C 
BRANCH  24  25
HETATM   25  C   UNL     1       7.831  24.203  56.258  1.00  0.00    -0.054 A 
HETATM   26  C   UNL     1       7.398  24.589  54.979  1.00  0.00     0.046 A 
HETATM   27  C   UNL     1       7.370  23.670  53.922  1.00  0.00     0.102 A 
HETATM   28  C   UNL     1       7.784  22.341  54.145  1.00  0.00     0.101 A 
HETATM   29  C   UNL     1       8.227  21.962  55.417  1.00  0.00     0.040 A 
HETATM   30  C   UNL     1       8.247  22.885  56.464  1.00  0.00     0.010 A 
BRANCH  27  31
HETATM   31  O   UNL     1       6.951  23.964  52.648  1.00  0.00    -0.353 OA
HETATM   32  C   UNL     1       7.673  24.951  51.927  1.00  0.00     0.210 C 
ENDBRANCH  27  31
BRANCH  28  33
HETATM   33  O   UNL     1       7.723  21.498  53.063  1.00  0.00    -0.353 OA
HETATM   34  C   UNL     1       8.565  20.355  53.071  1.00  0.00     0.210 C 
ENDBRANCH  28  33
ENDBRANCH  24  25
ENDBRANCH  23  24
ENDBRANCH  20  23
ENDBRANCH   3  19
TORSDOF 10
ENDMDL
MODEL 8
REMARK VINA RESULT:      -8.3      5.083      8.190
REMARK  10 active torsions:
REMARK  status: ('A' for Active; 'I' for Inactive)
REMARK    1  A    between atoms: C_2  and  N_3 
REMARK    2  A    between atoms: N_3  and  N_4 
REMARK       I    between atoms: N_4  and  C_5 
REMARK    3  A    between atoms: C_5  and  C_6 
REMARK    4  A    between atoms: C_7  and  N_8 
REMARK    5  A    between atoms: C_14  and  C_15 
REMARK       I    between atoms: C_15  and  N_16 
REMARK    6  A    between atoms: N_16  and  C_17 
REMARK    7  A    between atoms: C_17  and  C_18 
REMARK    8  A    between atoms: C_18  and  C_19 
REMARK    9  A    between atoms: C_21  and  O_22 
REMARK   10  A    between atoms: C_24  and  O_25 
ROOT
HETATM    1  C   UNL     1       5.253  24.831  52.747  1.00  0.00     0.070 C 
HETATM    2  C   UNL     1       6.497  25.297  52.022  1.00  0.00     0.027 C 
HETATM    3  C   UNL     1       7.703  24.733  52.245  1.00  0.00     0.100 C 
ENDROOT
BRANCH   2   4
HETATM    4  N   UNL     1       6.280  26.325  51.114  1.00  0.00    -0.302 N 
HETATM    5  H   UNL     1       7.078  26.955  50.963  1.00  0.00     0.186 HD
BRANCH   4   6
HETATM    6  N   UNL     1       5.439  26.232  50.003  1.00  0.00    -0.266 N 
HETATM    7  C   UNL     1       4.947  27.432  49.512  1.00  0.00     0.271 C 
HETATM    8  O   UNL     1       5.497  28.516  49.675  1.00  0.00    -0.266 OA
HETATM    9  H   UNL     1       4.815  25.425  49.983  1.00  0.00     0.190 HD
BRANCH   7  10
HETATM   10  C   UNL     1       3.664  27.323  48.766  1.00  0.00     0.054 A 
HETATM   11  C   UNL     1       2.542  28.119  49.081  1.00  0.00     0.021 A 
HETATM   12  C   UNL     1       1.333  27.846  48.428  1.00  0.00     0.024 A 
HETATM   13  C   UNL     1       1.272  26.904  47.396  1.00  0.00     0.002 A 
HETATM   14  C   UNL     1       2.412  26.193  47.028  1.00  0.00     0.001 A 
HETATM   15  C   UNL     1       3.606  26.395  47.716  1.00  0.00     0.019 A 
BRANCH  11  16
HETATM   16  N   UNL     1       2.537  29.044  50.152  1.00  0.00    -0.302 NA
HETATM   17  H   UNL     1       2.045  29.907  49.907  1.00  0.00     0.124 HD
HETATM   18  H   UNL     1       2.130  28.653  51.001  1.00  0.00     0.124 HD
ENDBRANCH  11  16
ENDBRANCH   7  10
ENDBRANCH   4   6
ENDBRANCH   2   4
BRANCH   3  19
HETATM   19  C   UNL     1       7.979  23.603  53.175  1.00  0.00     0.243 C 
HETATM   20  N   UNL     1       8.371  24.031  54.422  1.00  0.00    -0.357 N 
HETATM   21  H   UNL     1       8.409  25.017  54.633  1.00  0.00     0.162 HD
HETATM   22  O   UNL     1       7.884  22.424  52.867  1.00  0.00    -0.269 OA
BRANCH  20  23
HETATM   23  C   UNL     1       8.682  23.094  55.487  1.00  0.00     0.127 C 
BRANCH  23  24
HETATM   24  C   UNL     1       8.023  23.470  56.818  1.00  0.00     0.058 C 
BRANCH  24  25
HETATM   25  C   UNL     1       7.524  24.895  56.809  1.00  0.00    -0.054 A 
HETATM   26  C   UNL     1       8.325  25.933  57.312  1.00  0.00     0.046 A 
HETATM   27  C   UNL     1       7.855  27.253  57.342  1.00  0.00     0.102 A 
HETATM   28  C   UNL     1       6.563  27.542  56.860  1.00  0.00     0.101 A 
HETATM   29  C   UNL     1       5.771  26.509  56.348  1.00  0.00     0.040 A 
HETATM   30  C   UNL     1       6.247  25.196  56.326  1.00  0.00     0.010 A 
BRANCH  27  31
HETATM   31  O   UNL     1       8.571  28.320  57.827  1.00  0.00    -0.353 OA
HETATM   32  C   UNL     1       9.577  28.875  56.992  1.00  0.00     0.210 C 
ENDBRANCH  27  31
BRANCH  28  33
HETATM   33  O   UNL     1       6.171  28.857  56.929  1.00  0.00    -0.353 OA
HETATM   34  C   UNL     1       4.860  29.129  57.399  1.00  0.00     0.210 C 
ENDBRANCH  28  33
ENDBRANCH  24  25
ENDBRANCH  23  24
ENDBRANCH  20  23
ENDBRANCH   3  19
TORSDOF 10
ENDMDL
MODEL 9
REMARK VINA RESULT:      -8.3      2.414      3.255
REMARK  10 active torsions:
REMARK  status: ('A' for Active; 'I' for Inactive)
REMARK    1  A    between atoms: C_2  and  N_3 
REMARK    2  A    between atoms: N_3  and  N_4 
REMARK       I    between atoms: N_4  and  C_5 
REMARK    3  A    between atoms: C_5  and  C_6 
REMARK    4  A    between atoms: C_7  and  N_8 
REMARK    5  A    between atoms: C_14  and  C_15 
REMARK       I    between atoms: C_15  and  N_16 
REMARK    6  A    between atoms: N_16  and  C_17 
REMARK    7  A    between atoms: C_17  and  C_18 
REMARK    8  A    between atoms: C_18  and  C_19 
REMARK    9  A    between atoms: C_21  and  O_22 
REMARK   10  A    between atoms: C_24  and  O_25 
ROOT
HETATM    1  C   UNL     1       5.094  27.946  54.751  1.00  0.00     0.070 C 
HETATM    2  C   UNL     1       5.762  26.903  55.621  1.00  0.00     0.027 C 
HETATM    3  C   UNL     1       6.429  27.237  56.747  1.00  0.00     0.100 C 
ENDROOT
BRANCH   2   4
HETATM    4  N   UNL     1       5.612  25.599  55.169  1.00  0.00    -0.302 N 
HETATM    5  H   UNL     1       5.299  25.503  54.194  1.00  0.00     0.186 HD
BRANCH   4   6
HETATM    6  N   UNL     1       6.385  24.520  55.603  1.00  0.00    -0.266 N 
HETATM    7  C   UNL     1       7.387  24.104  54.739  1.00  0.00     0.271 C 
HETATM    8  O   UNL     1       7.906  24.827  53.894  1.00  0.00    -0.266 OA
HETATM    9  H   UNL     1       5.889  23.799  56.127  1.00  0.00     0.190 HD
BRANCH   7  10
HETATM   10  C   UNL     1       7.795  22.681  54.892  1.00  0.00     0.054 A 
HETATM   11  C   UNL     1       8.196  22.145  56.134  1.00  0.00     0.021 A 
HETATM   12  C   UNL     1       8.705  20.840  56.158  1.00  0.00     0.024 A 
HETATM   13  C   UNL     1       8.689  20.043  55.009  1.00  0.00     0.002 A 
HETATM   14  C   UNL     1       8.199  20.554  53.809  1.00  0.00     0.001 A 
HETATM   15  C   UNL     1       7.759  21.874  53.747  1.00  0.00     0.019 A 
BRANCH  11  16
HETATM   16  N   UNL     1       8.284  22.925  57.312  1.00  0.00    -0.302 NA
HETATM   17  H   UNL     1       7.858  23.847  57.191  1.00  0.00     0.124 HD
HETATM   18  H   UNL     1       7.865  22.462  58.117  1.00  0.00     0.124 HD
ENDBRANCH  11  16
ENDBRANCH   7  10
ENDBRANCH   4   6
ENDBRANCH   2   4
BRANCH   3  19
HETATM   19  C   UNL     1       6.582  28.614  57.294  1.00  0.00     0.243 C 
HETATM   20  N   UNL     1       7.889  29.040  57.289  1.00  0.00    -0.357 N 
HETATM   21  H   UNL     1       8.615  28.453  56.905  1.00  0.00     0.162 HD
HETATM   22  O   UNL     1       5.654  29.289  57.716  1.00  0.00    -0.269 OA
BRANCH  20  23
HETATM   23  C   UNL     1       8.264  30.357  57.771  1.00  0.00     0.127 C 
BRANCH  23  24
HETATM   24  C   UNL     1       9.181  30.301  58.997  1.00  0.00     0.058 C 
BRANCH  24  25
HETATM   25  C   UNL     1       8.503  30.858  60.226  1.00  0.00    -0.054 A 
HETATM   26  C   UNL     1       7.313  31.594  60.110  1.00  0.00     0.046 A 
HETATM   27  C   UNL     1       6.697  32.147  61.241  1.00  0.00     0.102 A 
HETATM   28  C   UNL     1       7.279  31.961  62.510  1.00  0.00     0.101 A 
HETATM   29  C   UNL     1       8.459  31.217  62.625  1.00  0.00     0.040 A 
HETATM   30  C   UNL     1       9.066  30.673  61.491  1.00  0.00     0.010 A 
BRANCH  27  31
HETATM   31  O   UNL     1       5.541  32.888  61.211  1.00  0.00    -0.353 OA
HETATM   32  C   UNL     1       5.066  33.319  59.944  1.00  0.00     0.210 C 
ENDBRANCH  27  31
BRANCH  28  33
HETATM   33  O   UNL     1       6.622  32.538  63.569  1.00  0.00    -0.353 OA
HETATM   34  C   UNL     1       7.395  33.287  64.495  1.00  0.00     0.210 C 
ENDBRANCH  28  33
ENDBRANCH  24  25
ENDBRANCH  23  24
ENDBRANCH  20  23
ENDBRANCH   3  19
TORSDOF 10
ENDMDL
MODEL 10
REMARK VINA RESULT:      -8.2      4.705      8.214
REMARK  10 active torsions:
REMARK  status: ('A' for Active; 'I' for Inactive)
REMARK    1  A    between atoms: C_2  and  N_3 
REMARK    2  A    between atoms: N_3  and  N_4 
REMARK       I    between atoms: N_4  and  C_5 
REMARK    3  A    between atoms: C_5  and  C_6 
REMARK    4  A    between atoms: C_7  and  N_8 
REMARK    5  A    between atoms: C_14  and  C_15 
REMARK       I    between atoms: C_15  and  N_16 
REMARK    6  A    between atoms: N_16  and  C_17 
REMARK    7  A    between atoms: C_17  and  C_18 
REMARK    8  A    between atoms: C_18  and  C_19 
REMARK    9  A    between atoms: C_21  and  O_22 
REMARK   10  A    between atoms: C_24  and  O_25 
ROOT
HETATM    1  C   UNL     1       4.863  25.369  52.664  1.00  0.00     0.070 C 
HETATM    2  C   UNL     1       5.934  25.437  51.598  1.00  0.00     0.027 C 
HETATM    3  C   UNL     1       7.116  24.799  51.736  1.00  0.00     0.100 C 
ENDROOT
BRANCH   2   4
HETATM    4  N   UNL     1       5.586  26.187  50.483  1.00  0.00    -0.302 N 
HETATM    5  H   UNL     1       6.328  26.303  49.780  1.00  0.00     0.186 HD
BRANCH   4   6
HETATM    6  N   UNL     1       4.303  26.237  49.935  1.00  0.00    -0.266 N 
HETATM    7  C   UNL     1       4.233  26.503  48.575  1.00  0.00     0.271 C 
HETATM    8  O   UNL     1       5.141  26.272  47.784  1.00  0.00    -0.266 OA
HETATM    9  H   UNL     1       3.580  26.641  50.530  1.00  0.00     0.190 HD
BRANCH   7  10
HETATM   10  C   UNL     1       2.955  27.118  48.124  1.00  0.00     0.054 A 
HETATM   11  C   UNL     1       2.207  26.592  47.049  1.00  0.00     0.021 A 
HETATM   12  C   UNL     1       1.098  27.320  46.597  1.00  0.00     0.024 A 
HETATM   13  C   UNL     1       0.664  28.463  47.276  1.00  0.00     0.002 A 
HETATM   14  C   UNL     1       1.357  28.917  48.396  1.00  0.00     0.001 A 
HETATM   15  C   UNL     1       2.506  28.252  48.817  1.00  0.00     0.019 A 
BRANCH  11  16
HETATM   16  N   UNL     1       2.633  25.474  46.295  1.00  0.00    -0.302 NA
HETATM   17  H   UNL     1       2.726  25.699  45.301  1.00  0.00     0.124 HD
HETATM   18  H   UNL     1       3.510  25.085  46.637  1.00  0.00     0.124 HD
ENDBRANCH  11  16
ENDBRANCH   7  10
ENDBRANCH   4   6
ENDBRANCH   2   4
BRANCH   3  19
HETATM   19  C   UNL     1       7.520  23.950  52.891  1.00  0.00     0.243 C 
HETATM   20  N   UNL     1       7.912  24.694  53.980  1.00  0.00    -0.357 N 
HETATM   21  H   UNL     1       7.870  25.702  53.949  1.00  0.00     0.162 HD
HETATM   22  O   UNL     1       7.519  22.728  52.876  1.00  0.00    -0.269 OA
BRANCH  20  23
HETATM   23  C   UNL     1       8.338  24.068  55.218  1.00  0.00     0.127 C 
BRANCH  23  24
HETATM   24  C   UNL     1       7.273  24.144  56.317  1.00  0.00     0.058 C 
BRANCH  24  25
HETATM   25  C   UNL     1       6.941  25.574  56.672  1.00  0.00    -0.054 A 
HETATM   26  C   UNL     1       5.726  26.145  56.262  1.00  0.00     0.046 A 
HETATM   27  C   UNL     1       5.426  27.482  56.554  1.00  0.00     0.102 A 
HETATM   28  C   UNL     1       6.356  28.263  57.270  1.00  0.00     0.101 A 
HETATM   29  C   UNL     1       7.561  27.688  57.688  1.00  0.00     0.040 A 
HETATM   30  C   UNL     1       7.851  26.356  57.388  1.00  0.00     0.010 A 
BRANCH  27  31
HETATM   31  O   UNL     1       4.267  28.118  56.180  1.00  0.00    -0.353 OA
HETATM   32  C   UNL     1       4.116  28.464  54.811  1.00  0.00     0.210 C 
ENDBRANCH  27  31
BRANCH  28  33
HETATM   33  O   UNL     1       5.994  29.566  57.512  1.00  0.00    -0.353 OA
HETATM   34  C   UNL     1       7.028  30.492  57.807  1.00  0.00     0.210 C 
ENDBRANCH  28  33
ENDBRANCH  24  25
ENDBRANCH  23  24
ENDBRANCH  20  23
ENDBRANCH   3  19
TORSDOF 10
ENDMDL
