MODEL 1
REMARK VINA RESULT:      -9.0      0.000      0.000
REMARK  6 active torsions:
REMARK  status: ('A' for Active; 'I' for Inactive)
REMARK    1  A    between atoms: C_5  and  C_6 
REMARK    2  A    between atoms: C_6  and  C_7 
REMARK       I    between atoms: C_7  and  N_8 
REMARK    3  A    between atoms: N_8  and  C_9 
REMARK    4  A    between atoms: C_12  and  N_13 
REMARK       I    between atoms: N_13  and  C_14 
REMARK       I    between atoms: C_14  and  N_15 
REMARK    5  A    between atoms: N_15  and  C_16 
REMARK    6  A    between atoms: C_16  and  C_17 
ROOT
HETATM    1  C   UNL     1       8.477  29.867  58.341  1.00  0.00     0.034 A 
HETATM    2  C   UNL     1       9.339  29.418  57.340  1.00  0.00     0.032 A 
HETATM    3  C   UNL     1       8.850  29.086  56.063  1.00  0.00     0.032 A 
HETATM    4  C   UNL     1       7.490  29.181  55.775  1.00  0.00     0.036 A 
HETATM    5  C   UNL     1       6.628  29.628  56.784  1.00  0.00     0.032 A 
HETATM    6  C   UNL     1       7.114  29.965  58.051  1.00  0.00     0.032 A 
ENDROOT
BRANCH   4   7
HETATM    7  N   UNL     1       6.898  28.924  54.527  1.00  0.00    -0.309 N 
HETATM    8  C   UNL     1       6.444  27.807  53.904  1.00  0.00     0.321 C 
HETATM    9  N   UNL     1       6.257  26.683  54.635  1.00  0.00    -0.337 N 
HETATM   10  O   UNL     1       6.181  27.867  52.703  1.00  0.00    -0.247 OA
HETATM   11  H   UNL     1       5.963  26.836  55.589  1.00  0.00     0.164 HD
HETATM   12  H   UNL     1       6.840  29.713  53.893  1.00  0.00     0.170 HD
BRANCH   9  13
HETATM   13  C   UNL     1       5.659  25.532  53.996  1.00  0.00     0.189 C 
BRANCH  13  14
HETATM   14  C   UNL     1       6.654  24.440  53.848  1.00  0.00     0.070 A 
HETATM   15  O   UNL     1       6.834  23.598  54.910  1.00  0.00    -0.325 OA
HETATM   16  C   UNL     1       7.764  22.682  54.535  1.00  0.00     0.142 A 
HETATM   17  C   UNL     1       8.172  22.910  53.242  1.00  0.00     0.027 A 
HETATM   18  C   UNL     1       7.455  24.045  52.796  1.00  0.00     0.036 A 
ENDBRANCH  13  14
ENDBRANCH   9  13
ENDBRANCH   4   7
BRANCH   1  19
HETATM   19  N   UNL     1       8.887  30.282  59.625  1.00  0.00    -0.327 N 
HETATM   20  C   UNL     1       9.109  31.575  60.072  1.00  0.00     0.227 C 
HETATM   21  O   UNL     1       9.098  32.589  59.375  1.00  0.00    -0.273 OA
HETATM   22  H   UNL     1       9.031  29.538  60.296  1.00  0.00     0.169 HD
BRANCH  20  23
HETATM   23  C   UNL     1       9.331  31.643  61.586  1.00  0.00     0.159 C 
BRANCH  23  24
HETATM   24  C   UNL     1       8.099  32.000  62.358  1.00  0.00     0.017 A 
HETATM   25  N   UNL     1       6.849  31.517  62.037  1.00  0.00    -0.369 N 
HETATM   26  C   UNL     1       5.929  31.986  62.936  1.00  0.00     0.088 A 
HETATM   27  H   UNL     1       6.653  30.913  61.243  1.00  0.00     0.165 HD
HETATM   28  C   UNL     1       6.589  32.770  63.854  1.00  0.00     0.019 A 
HETATM   29  C   UNL     1       7.956  32.780  63.492  1.00  0.00     0.027 A 
ENDBRANCH  23  24
ENDBRANCH  20  23
ENDBRANCH   1  19
TORSDOF 6
ENDMDL
MODEL 2
REMARK VINA RESULT:      -8.8      1.685      2.471
REMARK  6 active torsions:
REMARK  status: ('A' for Active; 'I' for Inactive)
REMARK    1  A    between atoms: C_5  and  C_6 
REMARK    2  A    between atoms: C_6  and  C_7 
REMARK       I    between atoms: C_7  and  N_8 
REMARK    3  A    between atoms: N_8  and  C_9 
REMARK    4  A    between atoms: C_12  and  N_13 
REMARK       I    between atoms: N_13  and  C_14 
REMARK       I    between atoms: C_14  and  N_15 
REMARK    5  A    between atoms: N_15  and  C_16 
REMARK    6  A    between atoms: C_16  and  C_17 
ROOT
HETATM    1  C   UNL     1       8.325  28.561  56.868  1.00  0.00     0.034 A 
HETATM    2  C   UNL     1       8.272  28.826  55.499  1.00  0.00     0.032 A 
HETATM    3  C   UNL     1       7.522  28.008  54.634  1.00  0.00     0.032 A 
HETATM    4  C   UNL     1       6.828  26.902  55.124  1.00  0.00     0.036 A 
HETATM    5  C   UNL     1       6.888  26.638  56.498  1.00  0.00     0.032 A 
HETATM    6  C   UNL     1       7.627  27.455  57.359  1.00  0.00     0.032 A 
ENDROOT
BRANCH   4   7
HETATM    7  N   UNL     1       6.011  26.048  54.366  1.00  0.00    -0.309 N 
HETATM    8  C   UNL     1       6.246  25.004  53.531  1.00  0.00     0.321 C 
HETATM    9  N   UNL     1       7.472  24.427  53.538  1.00  0.00    -0.337 N 
HETATM   10  O   UNL     1       5.325  24.593  52.827  1.00  0.00    -0.247 OA
HETATM   11  H   UNL     1       7.938  24.421  54.434  1.00  0.00     0.164 HD
HETATM   12  H   UNL     1       5.022  26.269  54.361  1.00  0.00     0.170 HD
BRANCH   9  13
HETATM   13  C   UNL     1       7.683  23.240  52.740  1.00  0.00     0.189 C 
BRANCH  13  14
HETATM   14  C   UNL     1       7.960  22.068  53.608  1.00  0.00     0.070 A 
HETATM   15  O   UNL     1       7.536  22.125  54.906  1.00  0.00    -0.325 OA
HETATM   16  C   UNL     1       7.880  20.947  55.487  1.00  0.00     0.142 A 
HETATM   17  C   UNL     1       8.503  20.124  54.578  1.00  0.00     0.027 A 
HETATM   18  C   UNL     1       8.555  20.847  53.363  1.00  0.00     0.036 A 
ENDBRANCH  13  14
ENDBRANCH   9  13
ENDBRANCH   4   7
BRANCH   1  19
HETATM   19  N   UNL     1       8.997  29.362  57.814  1.00  0.00    -0.327 N 
HETATM   20  C   UNL     1       8.513  30.475  58.484  1.00  0.00     0.227 C 
HETATM   21  O   UNL     1       7.435  31.029  58.275  1.00  0.00    -0.273 OA
HETATM   22  H   UNL     1       9.946  29.081  58.025  1.00  0.00     0.169 HD
BRANCH  20  23
HETATM   23  C   UNL     1       9.458  30.948  59.594  1.00  0.00     0.159 C 
BRANCH  23  24
HETATM   24  C   UNL     1       8.753  31.345  60.854  1.00  0.00     0.017 A 
HETATM   25  N   UNL     1       7.461  30.964  61.139  1.00  0.00    -0.369 N 
HETATM   26  C   UNL     1       7.099  31.444  62.370  1.00  0.00     0.088 A 
HETATM   27  H   UNL     1       6.871  30.417  60.516  1.00  0.00     0.165 HD
HETATM   28  C   UNL     1       8.170  32.133  62.891  1.00  0.00     0.019 A 
HETATM   29  C   UNL     1       9.213  32.072  61.937  1.00  0.00     0.027 A 
ENDBRANCH  23  24
ENDBRANCH  20  23
ENDBRANCH   1  19
TORSDOF 6
ENDMDL
MODEL 3
REMARK VINA RESULT:      -8.6      1.528      9.642
REMARK  6 active torsions:
REMARK  status: ('A' for Active; 'I' for Inactive)
REMARK    1  A    between atoms: C_5  and  C_6 
REMARK    2  A    between atoms: C_6  and  C_7 
REMARK       I    between atoms: C_7  and  N_8 
REMARK    3  A    between atoms: N_8  and  C_9 
REMARK    4  A    between atoms: C_12  and  N_13 
REMARK       I    between atoms: N_13  and  C_14 
REMARK       I    between atoms: C_14  and  N_15 
REMARK    5  A    between atoms: N_15  and  C_16 
REMARK    6  A    between atoms: C_16  and  C_17 
ROOT
HETATM    1  C   UNL     1       6.978  27.439  56.637  1.00  0.00     0.034 A 
HETATM    2  C   UNL     1       6.169  28.474  57.106  1.00  0.00     0.032 A 
HETATM    3  C   UNL     1       6.732  29.611  57.715  1.00  0.00     0.032 A 
HETATM    4  C   UNL     1       8.112  29.719  57.880  1.00  0.00     0.036 A 
HETATM    5  C   UNL     1       8.919  28.675  57.412  1.00  0.00     0.032 A 
HETATM    6  C   UNL     1       8.361  27.549  56.800  1.00  0.00     0.032 A 
ENDROOT
BRANCH   4   7
HETATM    7  N   UNL     1       8.785  30.824  58.426  1.00  0.00    -0.309 N 
HETATM    8  C   UNL     1       9.004  31.273  59.689  1.00  0.00     0.321 C 
HETATM    9  N   UNL     1       8.771  30.435  60.728  1.00  0.00    -0.337 N 
HETATM   10  O   UNL     1       9.445  32.411  59.841  1.00  0.00    -0.247 OA
HETATM   11  H   UNL     1       8.955  29.460  60.542  1.00  0.00     0.164 HD
HETATM   12  H   UNL     1       9.146  31.497  57.760  1.00  0.00     0.170 HD
BRANCH   9  13
HETATM   13  C   UNL     1       9.120  30.873  62.060  1.00  0.00     0.189 C 
BRANCH  13  14
HETATM   14  C   UNL     1       8.000  31.629  62.673  1.00  0.00     0.070 A 
HETATM   15  O   UNL     1       6.726  31.264  62.333  1.00  0.00    -0.325 OA
HETATM   16  C   UNL     1       5.884  32.074  63.026  1.00  0.00     0.142 A 
HETATM   17  C   UNL     1       6.594  32.943  63.820  1.00  0.00     0.027 A 
HETATM   18  C   UNL     1       7.961  32.657  63.594  1.00  0.00     0.036 A 
ENDBRANCH  13  14
ENDBRANCH   9  13
ENDBRANCH   4   7
BRANCH   1  19
HETATM   19  N   UNL     1       6.505  26.297  55.959  1.00  0.00    -0.327 N 
HETATM   20  C   UNL     1       6.640  25.987  54.615  1.00  0.00     0.227 C 
HETATM   21  O   UNL     1       7.103  26.728  53.748  1.00  0.00    -0.273 OA
HETATM   22  H   UNL     1       6.011  25.624  56.532  1.00  0.00     0.169 HD
BRANCH  20  23
HETATM   23  C   UNL     1       6.189  24.559  54.292  1.00  0.00     0.159 C 
BRANCH  23  24
HETATM   24  C   UNL     1       7.317  23.579  54.203  1.00  0.00     0.017 A 
HETATM   25  N   UNL     1       8.247  23.417  55.206  1.00  0.00    -0.369 N 
HETATM   26  C   UNL     1       9.132  22.430  54.860  1.00  0.00     0.088 A 
HETATM   27  H   UNL     1       8.268  23.962  56.065  1.00  0.00     0.165 HD
HETATM   28  C   UNL     1       8.765  21.941  53.627  1.00  0.00     0.019 A 
HETATM   29  C   UNL     1       7.622  22.663  53.212  1.00  0.00     0.027 A 
ENDBRANCH  23  24
ENDBRANCH  20  23
ENDBRANCH   1  19
TORSDOF 6
ENDMDL
MODEL 4
REMARK VINA RESULT:      -8.3      3.109      5.432
REMARK  6 active torsions:
REMARK  status: ('A' for Active; 'I' for Inactive)
REMARK    1  A    between atoms: C_5  and  C_6 
REMARK    2  A    between atoms: C_6  and  C_7 
REMARK       I    between atoms: C_7  and  N_8 
REMARK    3  A    between atoms: N_8  and  C_9 
REMARK    4  A    between atoms: C_12  and  N_13 
REMARK       I    between atoms: N_13  and  C_14 
REMARK       I    between atoms: C_14  and  N_15 
REMARK    5  A    between atoms: N_15  and  C_16 
REMARK    6  A    between atoms: C_16  and  C_17 
ROOT
HETATM    1  C   UNL     1       7.229  32.416  62.077  1.00  0.00     0.034 A 
HETATM    2  C   UNL     1       6.769  32.479  60.762  1.00  0.00     0.032 A 
HETATM    3  C   UNL     1       7.650  32.297  59.680  1.00  0.00     0.032 A 
HETATM    4  C   UNL     1       9.008  32.068  59.898  1.00  0.00     0.036 A 
HETATM    5  C   UNL     1       9.466  32.010  61.220  1.00  0.00     0.032 A 
HETATM    6  C   UNL     1       8.590  32.183  62.296  1.00  0.00     0.032 A 
ENDROOT
BRANCH   4   7
HETATM    7  N   UNL     1       9.966  31.824  58.901  1.00  0.00    -0.309 N 
HETATM    8  C   UNL     1      10.229  30.782  58.073  1.00  0.00     0.321 C 
HETATM    9  N   UNL     1       9.294  29.813  57.925  1.00  0.00    -0.337 N 
HETATM   10  O   UNL     1      11.293  30.774  57.454  1.00  0.00    -0.247 OA
HETATM   11  H   UNL     1       8.336  30.129  57.987  1.00  0.00     0.164 HD
HETATM   12  H   UNL     1      10.680  32.535  58.790  1.00  0.00     0.170 HD
BRANCH   9  13
HETATM   13  C   UNL     1       9.524  28.770  56.952  1.00  0.00     0.189 C 
BRANCH  13  14
HETATM   14  C   UNL     1       8.356  27.857  56.877  1.00  0.00     0.070 A 
HETATM   15  O   UNL     1       8.185  26.960  57.894  1.00  0.00    -0.325 OA
HETATM   16  C   UNL     1       7.055  26.260  57.618  1.00  0.00     0.142 A 
HETATM   17  C   UNL     1       6.485  26.703  56.448  1.00  0.00     0.027 A 
HETATM   18  C   UNL     1       7.324  27.736  55.968  1.00  0.00     0.036 A 
ENDBRANCH  13  14
ENDBRANCH   9  13
ENDBRANCH   4   7
BRANCH   1  19
HETATM   19  N   UNL     1       6.410  32.522  63.219  1.00  0.00    -0.327 N 
HETATM   20  C   UNL     1       6.027  33.674  63.889  1.00  0.00     0.227 C 
HETATM   21  O   UNL     1       6.442  34.810  63.662  1.00  0.00    -0.273 OA
HETATM   22  H   UNL     1       6.060  31.646  63.587  1.00  0.00     0.169 HD
BRANCH  20  23
HETATM   23  C   UNL     1       4.956  33.407  64.951  1.00  0.00     0.159 C 
BRANCH  23  24
HETATM   24  C   UNL     1       5.353  33.844  66.327  1.00  0.00     0.017 A 
HETATM   25  N   UNL     1       6.664  34.047  66.697  1.00  0.00    -0.369 N 
HETATM   26  C   UNL     1       6.716  34.475  67.998  1.00  0.00     0.088 A 
HETATM   27  H   UNL     1       7.465  33.889  66.090  1.00  0.00     0.165 HD
HETATM   28  C   UNL     1       5.426  34.561  68.470  1.00  0.00     0.019 A 
HETATM   29  C   UNL     1       4.567  34.164  67.419  1.00  0.00     0.027 A 
ENDBRANCH  23  24
ENDBRANCH  20  23
ENDBRANCH   1  19
TORSDOF 6
ENDMDL
MODEL 5
REMARK VINA RESULT:      -8.2      4.033     10.188
REMARK  6 active torsions:
REMARK  status: ('A' for Active; 'I' for Inactive)
REMARK    1  A    between atoms: C_5  and  C_6 
REMARK    2  A    between atoms: C_6  and  C_7 
REMARK       I    between atoms: C_7  and  N_8 
REMARK    3  A    between atoms: N_8  and  C_9 
REMARK    4  A    between atoms: C_12  and  N_13 
REMARK       I    between atoms: N_13  and  C_14 
REMARK       I    between atoms: C_14  and  N_15 
REMARK    5  A    between atoms: N_15  and  C_16 
REMARK    6  A    between atoms: C_16  and  C_17 
ROOT
HETATM    1  C   UNL     1       5.806  25.621  52.158  1.00  0.00     0.034 A 
HETATM    2  C   UNL     1       4.949  25.216  53.182  1.00  0.00     0.032 A 
HETATM    3  C   UNL     1       5.418  25.072  54.501  1.00  0.00     0.032 A 
HETATM    4  C   UNL     1       6.755  25.312  54.811  1.00  0.00     0.036 A 
HETATM    5  C   UNL     1       7.613  25.714  53.780  1.00  0.00     0.032 A 
HETATM    6  C   UNL     1       7.146  25.864  52.470  1.00  0.00     0.032 A 
ENDROOT
BRANCH   4   7
HETATM    7  N   UNL     1       7.321  25.249  56.095  1.00  0.00    -0.309 N 
HETATM    8  C   UNL     1       7.685  26.175  57.018  1.00  0.00     0.321 C 
HETATM    9  N   UNL     1       7.242  27.447  56.876  1.00  0.00    -0.337 N 
HETATM   10  O   UNL     1       8.373  25.816  57.973  1.00  0.00    -0.247 OA
HETATM   11  H   UNL     1       6.325  27.538  56.462  1.00  0.00     0.164 HD
HETATM   12  H   UNL     1       7.593  24.326  56.414  1.00  0.00     0.170 HD
BRANCH   9  13
HETATM   13  C   UNL     1       7.530  28.401  57.922  1.00  0.00     0.189 C 
BRANCH  13  14
HETATM   14  C   UNL     1       8.756  29.174  57.603  1.00  0.00     0.070 A 
HETATM   15  O   UNL     1       9.048  30.255  58.388  1.00  0.00    -0.325 OA
HETATM   16  C   UNL     1      10.210  30.781  57.922  1.00  0.00     0.142 A 
HETATM   17  C   UNL     1      10.681  30.046  56.860  1.00  0.00     0.027 A 
HETATM   18  C   UNL     1       9.744  29.007  56.653  1.00  0.00     0.036 A 
ENDBRANCH  13  14
ENDBRANCH   9  13
ENDBRANCH   4   7
BRANCH   1  19
HETATM   19  N   UNL     1       5.410  25.852  50.825  1.00  0.00    -0.327 N 
HETATM   20  C   UNL     1       4.887  27.015  50.282  1.00  0.00     0.227 C 
HETATM   21  O   UNL     1       4.568  28.023  50.911  1.00  0.00    -0.273 OA
HETATM   22  H   UNL     1       5.527  25.069  50.194  1.00  0.00     0.169 HD
BRANCH  20  23
HETATM   23  C   UNL     1       4.783  26.955  48.755  1.00  0.00     0.159 C 
BRANCH  23  24
HETATM   24  C   UNL     1       3.376  26.990  48.247  1.00  0.00     0.017 A 
HETATM   25  N   UNL     1       2.335  27.536  48.966  1.00  0.00    -0.369 N 
HETATM   26  C   UNL     1       1.178  27.456  48.236  1.00  0.00     0.088 A 
HETATM   27  H   UNL     1       2.424  27.926  49.901  1.00  0.00     0.165 HD
HETATM   28  C   UNL     1       1.474  26.864  47.030  1.00  0.00     0.019 A 
HETATM   29  C   UNL     1       2.858  26.569  47.035  1.00  0.00     0.027 A 
ENDBRANCH  23  24
ENDBRANCH  20  23
ENDBRANCH   1  19
TORSDOF 6
ENDMDL
MODEL 6
REMARK VINA RESULT:      -8.1      2.546      9.488
REMARK  6 active torsions:
REMARK  status: ('A' for Active; 'I' for Inactive)
REMARK    1  A    between atoms: C_5  and  C_6 
REMARK    2  A    between atoms: C_6  and  C_7 
REMARK       I    between atoms: C_7  and  N_8 
REMARK    3  A    between atoms: N_8  and  C_9 
REMARK    4  A    between atoms: C_12  and  N_13 
REMARK       I    between atoms: N_13  and  C_14 
REMARK       I    between atoms: C_14  and  N_15 
REMARK    5  A    between atoms: N_15  and  C_16 
REMARK    6  A    between atoms: C_16  and  C_17 
ROOT
HETATM    1  C   UNL     1       6.513  26.366  55.238  1.00  0.00     0.034 A 
HETATM    2  C   UNL     1       5.940  26.167  56.494  1.00  0.00     0.032 A 
HETATM    3  C   UNL     1       5.144  27.163  57.090  1.00  0.00     0.032 A 
HETATM    4  C   UNL     1       4.925  28.379  56.445  1.00  0.00     0.036 A 
HETATM    5  C   UNL     1       5.506  28.576  55.186  1.00  0.00     0.032 A 
HETATM    6  C   UNL     1       6.292  27.584  54.590  1.00  0.00     0.032 A 
ENDROOT
BRANCH   4   7
HETATM    7  N   UNL     1       4.111  29.421  56.919  1.00  0.00    -0.309 N 
HETATM    8  C   UNL     1       4.293  30.443  57.794  1.00  0.00     0.321 C 
HETATM    9  N   UNL     1       5.554  30.762  58.172  1.00  0.00    -0.337 N 
HETATM   10  O   UNL     1       3.307  31.069  58.181  1.00  0.00    -0.247 OA
HETATM   11  H   UNL     1       6.262  30.623  57.465  1.00  0.00     0.164 HD
HETATM   12  H   UNL     1       3.145  29.402  56.615  1.00  0.00     0.170 HD
BRANCH   9  13
HETATM   13  C   UNL     1       5.753  31.925  59.006  1.00  0.00     0.189 C 
BRANCH  13  14
HETATM   14  C   UNL     1       7.079  31.871  59.672  1.00  0.00     0.070 A 
HETATM   15  O   UNL     1       8.186  32.105  58.903  1.00  0.00    -0.325 OA
HETATM   16  C   UNL     1       9.263  32.024  59.726  1.00  0.00     0.142 A 
HETATM   17  C   UNL     1       8.867  31.758  61.016  1.00  0.00     0.027 A 
HETATM   18  C   UNL     1       7.456  31.660  60.983  1.00  0.00     0.036 A 
ENDBRANCH  13  14
ENDBRANCH   9  13
ENDBRANCH   4   7
BRANCH   1  19
HETATM   19  N   UNL     1       7.270  25.402  54.540  1.00  0.00    -0.327 N 
HETATM   20  C   UNL     1       6.842  24.547  53.537  1.00  0.00     0.227 C 
HETATM   21  O   UNL     1       5.679  24.403  53.160  1.00  0.00    -0.273 OA
HETATM   22  H   UNL     1       8.244  25.335  54.809  1.00  0.00     0.169 HD
BRANCH  20  23
HETATM   23  C   UNL     1       8.000  23.797  52.870  1.00  0.00     0.159 C 
BRANCH  23  24
HETATM   24  C   UNL     1       8.299  22.472  53.500  1.00  0.00     0.017 A 
HETATM   25  N   UNL     1       8.939  22.348  54.713  1.00  0.00    -0.369 N 
HETATM   26  C   UNL     1       9.041  21.024  55.048  1.00  0.00     0.088 A 
HETATM   27  H   UNL     1       9.289  23.130  55.262  1.00  0.00     0.165 HD
HETATM   28  C   UNL     1       8.451  20.284  54.048  1.00  0.00     0.019 A 
HETATM   29  C   UNL     1       7.983  21.195  53.072  1.00  0.00     0.027 A 
ENDBRANCH  23  24
ENDBRANCH  20  23
ENDBRANCH   1  19
TORSDOF 6
ENDMDL
MODEL 7
REMARK VINA RESULT:      -7.9      1.490      9.490
REMARK  6 active torsions:
REMARK  status: ('A' for Active; 'I' for Inactive)
REMARK    1  A    between atoms: C_5  and  C_6 
REMARK    2  A    between atoms: C_6  and  C_7 
REMARK       I    between atoms: C_7  and  N_8 
REMARK    3  A    between atoms: N_8  and  C_9 
REMARK    4  A    between atoms: C_12  and  N_13 
REMARK       I    between atoms: N_13  and  C_14 
REMARK       I    between atoms: C_14  and  N_15 
REMARK    5  A    between atoms: N_15  and  C_16 
REMARK    6  A    between atoms: C_16  and  C_17 
ROOT
HETATM    1  C   UNL     1       7.247  28.024  56.399  1.00  0.00     0.034 A 
HETATM    2  C   UNL     1       8.514  28.456  56.005  1.00  0.00     0.032 A 
HETATM    3  C   UNL     1       9.166  29.498  56.689  1.00  0.00     0.032 A 
HETATM    4  C   UNL     1       8.553  30.135  57.766  1.00  0.00     0.036 A 
HETATM    5  C   UNL     1       7.280  29.701  58.156  1.00  0.00     0.032 A 
HETATM    6  C   UNL     1       6.633  28.661  57.480  1.00  0.00     0.032 A 
ENDROOT
BRANCH   4   7
HETATM    7  N   UNL     1       9.127  31.148  58.552  1.00  0.00    -0.309 N 
HETATM    8  C   UNL     1       9.193  31.391  59.886  1.00  0.00     0.321 C 
HETATM    9  N   UNL     1       8.878  30.395  60.747  1.00  0.00    -0.337 N 
HETATM   10  O   UNL     1       9.577  32.497  60.264  1.00  0.00    -0.247 OA
HETATM   11  H   UNL     1       9.113  29.464  60.431  1.00  0.00     0.164 HD
HETATM   12  H   UNL     1       9.535  31.924  58.044  1.00  0.00     0.170 HD
BRANCH   9  13
HETATM   13  C   UNL     1       9.067  30.618  62.163  1.00  0.00     0.189 C 
BRANCH  13  14
HETATM   14  C   UNL     1       8.004  31.504  62.699  1.00  0.00     0.070 A 
HETATM   15  O   UNL     1       6.704  31.145  62.473  1.00  0.00    -0.325 OA
HETATM   16  C   UNL     1       5.924  32.084  63.068  1.00  0.00     0.142 A 
HETATM   17  C   UNL     1       6.701  33.033  63.690  1.00  0.00     0.027 A 
HETATM   18  C   UNL     1       8.045  32.659  63.453  1.00  0.00     0.036 A 
ENDBRANCH  13  14
ENDBRANCH   9  13
ENDBRANCH   4   7
BRANCH   1  19
HETATM   19  N   UNL     1       6.549  26.948  55.813  1.00  0.00    -0.327 N 
HETATM   20  C   UNL     1       5.620  26.995  54.785  1.00  0.00     0.227 C 
HETATM   21  O   UNL     1       5.155  28.017  54.281  1.00  0.00    -0.273 OA
HETATM   22  H   UNL     1       6.760  26.034  56.193  1.00  0.00     0.169 HD
BRANCH  20  23
HETATM   23  C   UNL     1       5.242  25.602  54.271  1.00  0.00     0.159 C 
BRANCH  23  24
HETATM   24  C   UNL     1       6.356  24.902  53.559  1.00  0.00     0.017 A 
HETATM   25  N   UNL     1       7.005  25.443  52.471  1.00  0.00    -0.369 N 
HETATM   26  C   UNL     1       7.997  24.595  52.055  1.00  0.00     0.088 A 
HETATM   27  H   UNL     1       6.767  26.336  52.044  1.00  0.00     0.165 HD
HETATM   28  C   UNL     1       7.998  23.499  52.887  1.00  0.00     0.019 A 
HETATM   29  C   UNL     1       6.965  23.690  53.835  1.00  0.00     0.027 A 
ENDBRANCH  23  24
ENDBRANCH  20  23
ENDBRANCH   1  19
TORSDOF 6
ENDMDL
MODEL 8
REMARK VINA RESULT:      -7.8      2.279      9.480
REMARK  6 active torsions:
REMARK  status: ('A' for Active; 'I' for Inactive)
REMARK    1  A    between atoms: C_5  and  C_6 
REMARK    2  A    between atoms: C_6  and  C_7 
REMARK       I    between atoms: C_7  and  N_8 
REMARK    3  A    between atoms: N_8  and  C_9 
REMARK    4  A    between atoms: C_12  and  N_13 
REMARK       I    between atoms: N_13  and  C_14 
REMARK       I    between atoms: C_14  and  N_15 
REMARK    5  A    between atoms: N_15  and  C_16 
REMARK    6  A    between atoms: C_16  and  C_17 
ROOT
HETATM    1  C   UNL     1       6.067  27.336  57.039  1.00  0.00     0.034 A 
HETATM    2  C   UNL     1       4.931  27.985  56.555  1.00  0.00     0.032 A 
HETATM    3  C   UNL     1       4.796  29.382  56.667  1.00  0.00     0.032 A 
HETATM    4  C   UNL     1       5.788  30.146  57.281  1.00  0.00     0.036 A 
HETATM    5  C   UNL     1       6.924  29.489  57.769  1.00  0.00     0.032 A 
HETATM    6  C   UNL     1       7.062  28.102  57.652  1.00  0.00     0.032 A 
ENDROOT
BRANCH   4   7
HETATM    7  N   UNL     1       5.783  31.545  57.403  1.00  0.00    -0.309 N 
HETATM    8  C   UNL     1       5.568  32.406  58.429  1.00  0.00     0.321 C 
HETATM    9  N   UNL     1       5.582  31.928  59.697  1.00  0.00    -0.337 N 
HETATM   10  O   UNL     1       5.407  33.599  58.174  1.00  0.00    -0.247 OA
HETATM   11  H   UNL     1       6.219  31.161  59.859  1.00  0.00     0.164 HD
HETATM   12  H   UNL     1       5.897  32.065  56.541  1.00  0.00     0.170 HD
BRANCH   9  13
HETATM   13  C   UNL     1       5.474  32.865  60.792  1.00  0.00     0.189 C 
BRANCH  13  14
HETATM   14  C   UNL     1       6.522  32.603  61.810  1.00  0.00     0.070 A 
HETATM   15  O   UNL     1       7.205  31.421  61.728  1.00  0.00    -0.325 OA
HETATM   16  C   UNL     1       8.112  31.417  62.739  1.00  0.00     0.142 A 
HETATM   17  C   UNL     1       8.036  32.585  63.461  1.00  0.00     0.027 A 
HETATM   18  C   UNL     1       7.010  33.353  62.861  1.00  0.00     0.036 A 
ENDBRANCH  13  14
ENDBRANCH   9  13
ENDBRANCH   4   7
BRANCH   1  19
HETATM   19  N   UNL     1       6.314  25.954  56.914  1.00  0.00    -0.327 N 
HETATM   20  C   UNL     1       7.074  25.308  55.951  1.00  0.00     0.227 C 
HETATM   21  O   UNL     1       7.575  25.834  54.957  1.00  0.00    -0.273 OA
HETATM   22  H   UNL     1       5.883  25.368  57.619  1.00  0.00     0.169 HD
BRANCH  20  23
HETATM   23  C   UNL     1       7.290  23.825  56.270  1.00  0.00     0.159 C 
BRANCH  23  24
HETATM   24  C   UNL     1       7.787  23.027  55.105  1.00  0.00     0.017 A 
HETATM   25  N   UNL     1       7.138  22.994  53.890  1.00  0.00    -0.369 N 
HETATM   26  C   UNL     1       7.841  22.212  53.012  1.00  0.00     0.088 A 
HETATM   27  H   UNL     1       6.263  23.474  53.692  1.00  0.00     0.165 HD
HETATM   28  C   UNL     1       8.961  21.744  53.660  1.00  0.00     0.019 A 
HETATM   29  C   UNL     1       8.929  22.256  54.978  1.00  0.00     0.027 A 
ENDBRANCH  23  24
ENDBRANCH  20  23
ENDBRANCH   1  19
TORSDOF 6
ENDMDL
MODEL 9
REMARK VINA RESULT:      -7.6      2.437      4.328
REMARK  6 active torsions:
REMARK  status: ('A' for Active; 'I' for Inactive)
REMARK    1  A    between atoms: C_5  and  C_6 
REMARK    2  A    between atoms: C_6  and  C_7 
REMARK       I    between atoms: C_7  and  N_8 
REMARK    3  A    between atoms: N_8  and  C_9 
REMARK    4  A    between atoms: C_12  and  N_13 
REMARK       I    between atoms: N_13  and  C_14 
REMARK       I    between atoms: C_14  and  N_15 
REMARK    5  A    between atoms: N_15  and  C_16 
REMARK    6  A    between atoms: C_16  and  C_17 
ROOT
HETATM    1  C   UNL     1       9.145  29.847  58.268  1.00  0.00     0.034 A 
HETATM    2  C   UNL     1       9.969  30.023  57.155  1.00  0.00     0.032 A 
HETATM    3  C   UNL     1       9.588  29.537  55.891  1.00  0.00     0.032 A 
HETATM    4  C   UNL     1       8.386  28.850  55.726  1.00  0.00     0.036 A 
HETATM    5  C   UNL     1       7.565  28.672  56.846  1.00  0.00     0.032 A 
HETATM    6  C   UNL     1       7.939  29.162  58.101  1.00  0.00     0.032 A 
ENDROOT
BRANCH   4   7
HETATM    7  N   UNL     1       7.883  28.366  54.507  1.00  0.00    -0.309 N 
HETATM    8  C   UNL     1       6.676  28.427  53.888  1.00  0.00     0.321 C 
HETATM    9  N   UNL     1       5.757  29.315  54.337  1.00  0.00    -0.337 N 
HETATM   10  O   UNL     1       6.476  27.701  52.914  1.00  0.00    -0.247 OA
HETATM   11  H   UNL     1       6.136  30.176  54.704  1.00  0.00     0.164 HD
HETATM   12  H   UNL     1       8.510  27.777  53.971  1.00  0.00     0.170 HD
BRANCH   9  13
HETATM   13  C   UNL     1       4.522  29.464  53.601  1.00  0.00     0.189 C 
BRANCH  13  14
HETATM   14  C   UNL     1       3.691  30.546  54.187  1.00  0.00     0.070 A 
HETATM   15  O   UNL     1       3.155  31.468  53.332  1.00  0.00    -0.325 OA
HETATM   16  C   UNL     1       2.428  32.332  54.086  1.00  0.00     0.142 A 
HETATM   17  C   UNL     1       2.474  31.972  55.413  1.00  0.00     0.027 A 
HETATM   18  C   UNL     1       3.289  30.817  55.479  1.00  0.00     0.036 A 
ENDBRANCH  13  14
ENDBRANCH   9  13
ENDBRANCH   4   7
BRANCH   1  19
HETATM   19  N   UNL     1       9.417  30.355  59.554  1.00  0.00    -0.327 N 
HETATM   20  C   UNL     1       9.217  31.646  60.020  1.00  0.00     0.227 C 
HETATM   21  O   UNL     1       8.872  32.611  59.339  1.00  0.00    -0.273 OA
HETATM   22  H   UNL     1       9.801  29.690  60.213  1.00  0.00     0.169 HD
BRANCH  20  23
HETATM   23  C   UNL     1       9.425  31.763  61.533  1.00  0.00     0.159 C 
BRANCH  23  24
HETATM   24  C   UNL     1       8.166  32.044  62.292  1.00  0.00     0.017 A 
HETATM   25  N   UNL     1       6.930  31.590  61.885  1.00  0.00    -0.369 N 
HETATM   26  C   UNL     1       5.977  31.970  62.792  1.00  0.00     0.088 A 
HETATM   27  H   UNL     1       6.764  31.062  61.031  1.00  0.00     0.165 HD
HETATM   28  C   UNL     1       6.601  32.667  63.801  1.00  0.00     0.019 A 
HETATM   29  C   UNL     1       7.980  32.714  63.488  1.00  0.00     0.027 A 
ENDBRANCH  23  24
ENDBRANCH  20  23
ENDBRANCH   1  19
TORSDOF 6
ENDMDL
MODEL 10
REMARK VINA RESULT:      -7.6      2.484      3.732
REMARK  6 active torsions:
REMARK  status: ('A' for Active; 'I' for Inactive)
REMARK    1  A    between atoms: C_5  and  C_6 
REMARK    2  A    between atoms: C_6  and  C_7 
REMARK       I    between atoms: C_7  and  N_8 
REMARK    3  A    between atoms: N_8  and  C_9 
REMARK    4  A    between atoms: C_12  and  N_13 
REMARK       I    between atoms: N_13  and  C_14 
REMARK       I    between atoms: C_14  and  N_15 
REMARK    5  A    between atoms: N_15  and  C_16 
REMARK    6  A    between atoms: C_16  and  C_17 
ROOT
HETATM    1  C   UNL     1       7.452  28.323  57.474  1.00  0.00     0.034 A 
HETATM    2  C   UNL     1       6.073  28.488  57.350  1.00  0.00     0.032 A 
HETATM    3  C   UNL     1       5.317  27.643  56.516  1.00  0.00     0.032 A 
HETATM    4  C   UNL     1       5.934  26.632  55.780  1.00  0.00     0.036 A 
HETATM    5  C   UNL     1       7.320  26.474  55.905  1.00  0.00     0.032 A 
HETATM    6  C   UNL     1       8.070  27.309  56.739  1.00  0.00     0.032 A 
ENDROOT
BRANCH   4   7
HETATM    7  N   UNL     1       5.278  25.702  54.958  1.00  0.00    -0.309 N 
HETATM    8  C   UNL     1       5.144  25.550  53.616  1.00  0.00     0.321 C 
HETATM    9  N   UNL     1       5.966  26.247  52.796  1.00  0.00    -0.337 N 
HETATM   10  O   UNL     1       4.307  24.754  53.193  1.00  0.00    -0.247 OA
HETATM   11  H   UNL     1       6.896  26.408  53.156  1.00  0.00     0.164 HD
HETATM   12  H   UNL     1       4.710  25.011  55.436  1.00  0.00     0.170 HD
BRANCH   9  13
HETATM   13  C   UNL     1       5.905  25.992  51.374  1.00  0.00     0.189 C 
BRANCH  13  14
HETATM   14  C   UNL     1       4.972  26.940  50.713  1.00  0.00     0.070 A 
HETATM   15  O   UNL     1       4.490  27.980  51.458  1.00  0.00    -0.325 OA
HETATM   16  C   UNL     1       3.686  28.711  50.643  1.00  0.00     0.142 A 
HETATM   17  C   UNL     1       3.656  28.168  49.380  1.00  0.00     0.027 A 
HETATM   18  C   UNL     1       4.488  27.024  49.423  1.00  0.00     0.036 A 
ENDBRANCH  13  14
ENDBRANCH   9  13
ENDBRANCH   4   7
BRANCH   1  19
HETATM   19  N   UNL     1       8.276  29.080  58.332  1.00  0.00    -0.327 N 
HETATM   20  C   UNL     1       8.115  30.402  58.719  1.00  0.00     0.227 C 
HETATM   21  O   UNL     1       7.275  31.185  58.276  1.00  0.00    -0.273 OA
HETATM   22  H   UNL     1       9.077  28.591  58.710  1.00  0.00     0.169 HD
BRANCH  20  23
HETATM   23  C   UNL     1       9.087  30.810  59.831  1.00  0.00     0.159 C 
BRANCH  23  24
HETATM   24  C   UNL     1       8.407  31.322  61.063  1.00  0.00     0.017 A 
HETATM   25  N   UNL     1       7.071  31.112  61.321  1.00  0.00    -0.369 N 
HETATM   26  C   UNL     1       6.742  31.663  62.532  1.00  0.00     0.088 A 
HETATM   27  H   UNL     1       6.432  30.629  60.694  1.00  0.00     0.165 HD
HETATM   28  C   UNL     1       7.879  32.224  63.067  1.00  0.00     0.019 A 
HETATM   29  C   UNL     1       8.928  32.011  62.144  1.00  0.00     0.027 A 
ENDBRANCH  23  24
ENDBRANCH  20  23
ENDBRANCH   1  19
TORSDOF 6
ENDMDL
