MODEL 1
REMARK VINA RESULT:      -9.6      0.000      0.000
REMARK  6 active torsions:
REMARK  status: ('A' for Active; 'I' for Inactive)
REMARK    1  A    between atoms: C_2  and  O_3 
REMARK    2  A    between atoms: C_2  and  C_4 
REMARK    3  A    between atoms: C_6  and  N_7 
REMARK       I    between atoms: N_7  and  C_8 
REMARK    4  A    between atoms: C_8  and  C_9 
REMARK    5  A    between atoms: C_12  and  C_13 
REMARK    6  A    between atoms: C_18  and  C_19 
ROOT
HETATM    1  C   UNL     1       5.975  27.062  55.332  1.00  0.00     0.096 A 
HETATM    2  C   UNL     1       6.262  28.009  56.298  1.00  0.00     0.138 A 
HETATM    3  N   UNL     1       5.930  29.226  55.745  1.00  0.00    -0.240 N 
HETATM    4  C   UNL     1       6.127  30.509  56.398  1.00  0.00     0.221 C 
HETATM    5  C   UNL     1       6.413  30.312  57.899  1.00  0.00     0.068 C 
HETATM    6  C   UNL     1       7.389  29.151  58.134  1.00  0.00     0.143 C 
HETATM    7  N   UNL     1       6.802  27.928  57.548  1.00  0.00    -0.363 N 
HETATM    8  N   UNL     1       5.602  29.146  54.446  1.00  0.00    -0.181 NA
HETATM    9  C   UNL     1       5.603  27.833  54.205  1.00  0.00     0.160 A 
HETATM   10  H   UNL     1       7.367  27.105  57.770  1.00  0.00     0.162 HD
ENDROOT
BRANCH   1  11
HETATM   11  C   UNL     1       6.079  25.614  55.395  1.00  0.00     0.261 C 
HETATM   12  N   UNL     1       7.109  25.106  54.627  1.00  0.00    -0.323 N 
HETATM   13  H   UNL     1       7.738  25.797  54.230  1.00  0.00     0.169 HD
HETATM   14  O   UNL     1       5.324  24.968  56.111  1.00  0.00    -0.267 OA
BRANCH  12  15
HETATM   15  C   UNL     1       7.451  23.753  54.432  1.00  0.00     0.035 A 
HETATM   16  C   UNL     1       7.737  22.868  55.474  1.00  0.00     0.039 A 
HETATM   17  C   UNL     1       8.060  21.522  55.218  1.00  0.00    -0.028 A 
HETATM   18  C   UNL     1       8.110  21.082  53.890  1.00  0.00     0.010 A 
HETATM   19  C   UNL     1       7.822  21.957  52.843  1.00  0.00     0.003 A 
HETATM   20  C   UNL     1       7.486  23.283  53.114  1.00  0.00     0.029 A 
BRANCH  17  21
HETATM   21  C   UNL     1       8.376  20.598  56.375  1.00  0.00     0.147 C 
HETATM   22  C   UNL     1       8.375  21.344  57.703  1.00  0.00     0.044 C 
BRANCH  21  23
HETATM   23  O   UNL     1       9.650  19.985  56.182  1.00  0.00    -0.391 OA
HETATM   24  H   UNL     1      10.280  20.460  56.750  1.00  0.00     0.210 HD
ENDBRANCH  21  23
ENDBRANCH  17  21
ENDBRANCH  12  15
ENDBRANCH   1  11
BRANCH   4  25
HETATM   25  C   UNL     1       4.924  31.411  56.228  1.00  0.00     0.409 C 
HETATM   26  F   UNL     1       4.904  32.076  55.055  1.00  0.00    -0.169 F 
HETATM   27  F   UNL     1       3.756  30.738  56.353  1.00  0.00    -0.169 F 
HETATM   28  F   UNL     1       4.924  32.362  57.202  1.00  0.00    -0.169 F 
ENDBRANCH   4  25
BRANCH   6  29
HETATM   29  C   UNL     1       8.771  29.484  57.655  1.00  0.00     0.075 A 
HETATM   30  O   UNL     1       9.325  30.628  58.157  1.00  0.00    -0.325 OA
HETATM   31  C   UNL     1      10.553  30.758  57.592  1.00  0.00     0.142 A 
HETATM   32  C   UNL     1      10.802  29.712  56.736  1.00  0.00     0.027 A 
HETATM   33  C   UNL     1       9.653  28.886  56.777  1.00  0.00     0.037 A 
ENDBRANCH   6  29
TORSDOF 6
ENDMDL
MODEL 2
REMARK VINA RESULT:      -9.5      3.050      7.894
REMARK  6 active torsions:
REMARK  status: ('A' for Active; 'I' for Inactive)
REMARK    1  A    between atoms: C_2  and  O_3 
REMARK    2  A    between atoms: C_2  and  C_4 
REMARK    3  A    between atoms: C_6  and  N_7 
REMARK       I    between atoms: N_7  and  C_8 
REMARK    4  A    between atoms: C_8  and  C_9 
REMARK    5  A    between atoms: C_12  and  C_13 
REMARK    6  A    between atoms: C_18  and  C_19 
ROOT
HETATM    1  C   UNL     1       6.806  26.501  56.073  1.00  0.00     0.096 A 
HETATM    2  C   UNL     1       7.182  25.653  55.047  1.00  0.00     0.138 A 
HETATM    3  N   UNL     1       6.020  25.324  54.384  1.00  0.00    -0.240 N 
HETATM    4  C   UNL     1       5.943  24.399  53.266  1.00  0.00     0.221 C 
HETATM    5  C   UNL     1       7.348  24.120  52.699  1.00  0.00     0.068 C 
HETATM    6  C   UNL     1       8.373  23.914  53.823  1.00  0.00     0.143 C 
HETATM    7  N   UNL     1       8.381  25.124  54.669  1.00  0.00    -0.363 N 
HETATM    8  N   UNL     1       4.914  25.768  55.001  1.00  0.00    -0.181 NA
HETATM    9  C   UNL     1       5.393  26.504  56.007  1.00  0.00     0.160 A 
HETATM   10  H   UNL     1       9.122  25.078  55.372  1.00  0.00     0.162 HD
ENDROOT
BRANCH   1  11
HETATM   11  C   UNL     1       7.629  27.194  57.049  1.00  0.00     0.261 C 
HETATM   12  N   UNL     1       7.810  28.534  56.761  1.00  0.00    -0.323 N 
HETATM   13  H   UNL     1       7.247  28.894  55.996  1.00  0.00     0.169 HD
HETATM   14  O   UNL     1       8.058  26.602  58.032  1.00  0.00    -0.267 OA
BRANCH  12  15
HETATM   15  C   UNL     1       8.585  29.470  57.472  1.00  0.00     0.035 A 
HETATM   16  C   UNL     1       8.171  30.078  58.660  1.00  0.00     0.039 A 
HETATM   17  C   UNL     1       8.995  30.998  59.334  1.00  0.00    -0.028 A 
HETATM   18  C   UNL     1      10.243  31.314  58.783  1.00  0.00     0.010 A 
HETATM   19  C   UNL     1      10.668  30.709  57.601  1.00  0.00     0.003 A 
HETATM   20  C   UNL     1       9.846  29.786  56.953  1.00  0.00     0.029 A 
BRANCH  17  21
HETATM   21  C   UNL     1       8.503  31.644  60.611  1.00  0.00     0.147 C 
HETATM   22  C   UNL     1       9.630  31.815  61.622  1.00  0.00     0.044 C 
BRANCH  21  23
HETATM   23  O   UNL     1       7.467  30.855  61.195  1.00  0.00    -0.391 OA
HETATM   24  H   UNL     1       7.870  30.354  61.924  1.00  0.00     0.210 HD
ENDBRANCH  21  23
ENDBRANCH  17  21
ENDBRANCH  12  15
ENDBRANCH   1  11
BRANCH   4  25
HETATM   25  C   UNL     1       5.051  24.929  52.165  1.00  0.00     0.409 C 
HETATM   26  F   UNL     1       4.206  24.009  51.660  1.00  0.00    -0.169 F 
HETATM   27  F   UNL     1       4.323  25.998  52.565  1.00  0.00    -0.169 F 
HETATM   28  F   UNL     1       5.815  25.354  51.122  1.00  0.00    -0.169 F 
ENDBRANCH   4  25
BRANCH   6  29
HETATM   29  C   UNL     1       8.138  22.627  54.558  1.00  0.00     0.075 A 
HETATM   30  O   UNL     1       8.218  21.483  53.814  1.00  0.00    -0.325 OA
HETATM   31  C   UNL     1       7.958  20.445  54.649  1.00  0.00     0.142 A 
HETATM   32  C   UNL     1       7.714  20.901  55.923  1.00  0.00     0.027 A 
HETATM   33  C   UNL     1       7.833  22.310  55.867  1.00  0.00     0.037 A 
ENDBRANCH   6  29
TORSDOF 6
ENDMDL
MODEL 3
REMARK VINA RESULT:      -9.3      4.553      7.192
REMARK  6 active torsions:
REMARK  status: ('A' for Active; 'I' for Inactive)
REMARK    1  A    between atoms: C_2  and  O_3 
REMARK    2  A    between atoms: C_2  and  C_4 
REMARK    3  A    between atoms: C_6  and  N_7 
REMARK       I    between atoms: N_7  and  C_8 
REMARK    4  A    between atoms: C_8  and  C_9 
REMARK    5  A    between atoms: C_12  and  C_13 
REMARK    6  A    between atoms: C_18  and  C_19 
ROOT
HETATM    1  C   UNL     1       5.976  27.510  53.337  1.00  0.00     0.096 A 
HETATM    2  C   UNL     1       6.032  26.509  54.290  1.00  0.00     0.138 A 
HETATM    3  N   UNL     1       7.044  26.864  55.153  1.00  0.00    -0.240 N 
HETATM    4  C   UNL     1       7.489  26.060  56.278  1.00  0.00     0.221 C 
HETATM    5  C   UNL     1       6.462  24.954  56.590  1.00  0.00     0.068 C 
HETATM    6  C   UNL     1       5.946  24.293  55.304  1.00  0.00     0.143 C 
HETATM    7  N   UNL     1       5.344  25.342  54.455  1.00  0.00    -0.363 N 
HETATM    8  N   UNL     1       7.744  27.931  54.738  1.00  0.00    -0.181 NA
HETATM    9  C   UNL     1       7.079  28.337  53.653  1.00  0.00     0.160 A 
HETATM   10  H   UNL     1       4.893  24.936  53.632  1.00  0.00     0.162 HD
ENDROOT
BRANCH   1  11
HETATM   11  C   UNL     1       5.060  27.675  52.221  1.00  0.00     0.261 C 
HETATM   12  N   UNL     1       5.611  27.321  51.004  1.00  0.00    -0.323 N 
HETATM   13  H   UNL     1       6.520  26.870  51.053  1.00  0.00     0.169 HD
HETATM   14  O   UNL     1       3.911  28.056  52.412  1.00  0.00    -0.267 OA
BRANCH  12  15
HETATM   15  C   UNL     1       5.013  27.405  49.732  1.00  0.00     0.035 A 
HETATM   16  C   UNL     1       4.125  26.451  49.228  1.00  0.00     0.039 A 
HETATM   17  C   UNL     1       3.548  26.596  47.952  1.00  0.00    -0.028 A 
HETATM   18  C   UNL     1       3.894  27.711  47.178  1.00  0.00     0.010 A 
HETATM   19  C   UNL     1       4.775  28.670  47.675  1.00  0.00     0.003 A 
HETATM   20  C   UNL     1       5.325  28.522  48.948  1.00  0.00     0.029 A 
BRANCH  17  21
HETATM   21  C   UNL     1       2.601  25.534  47.437  1.00  0.00     0.147 C 
HETATM   22  C   UNL     1       2.899  24.172  48.052  1.00  0.00     0.044 C 
BRANCH  21  23
HETATM   23  O   UNL     1       2.693  25.437  46.017  1.00  0.00    -0.391 OA
HETATM   24  H   UNL     1       3.571  25.071  45.816  1.00  0.00     0.210 HD
ENDBRANCH  21  23
ENDBRANCH  17  21
ENDBRANCH  12  15
ENDBRANCH   1  11
BRANCH   4  25
HETATM   25  C   UNL     1       7.711  26.905  57.514  1.00  0.00     0.409 C 
HETATM   26  F   UNL     1       6.796  27.882  57.676  1.00  0.00    -0.169 F 
HETATM   27  F   UNL     1       7.742  26.161  58.644  1.00  0.00    -0.169 F 
HETATM   28  F   UNL     1       8.918  27.527  57.431  1.00  0.00    -0.169 F 
ENDBRANCH   4  25
BRANCH   6  29
HETATM   29  C   UNL     1       7.009  23.470  54.639  1.00  0.00     0.075 A 
HETATM   30  O   UNL     1       7.698  22.609  55.446  1.00  0.00    -0.325 OA
HETATM   31  C   UNL     1       8.616  21.980  54.666  1.00  0.00     0.142 A 
HETATM   32  C   UNL     1       8.526  22.420  53.367  1.00  0.00     0.027 A 
HETATM   33  C   UNL     1       7.486  23.381  53.346  1.00  0.00     0.037 A 
ENDBRANCH   6  29
TORSDOF 6
ENDMDL
MODEL 4
REMARK VINA RESULT:      -9.2      4.233      6.608
REMARK  6 active torsions:
REMARK  status: ('A' for Active; 'I' for Inactive)
REMARK    1  A    between atoms: C_2  and  O_3 
REMARK    2  A    between atoms: C_2  and  C_4 
REMARK    3  A    between atoms: C_6  and  N_7 
REMARK       I    between atoms: N_7  and  C_8 
REMARK    4  A    between atoms: C_8  and  C_9 
REMARK    5  A    between atoms: C_12  and  C_13 
REMARK    6  A    between atoms: C_18  and  C_19 
ROOT
HETATM    1  C   UNL     1       5.502  26.656  52.427  1.00  0.00     0.096 A 
HETATM    2  C   UNL     1       5.324  27.374  51.258  1.00  0.00     0.138 A 
HETATM    3  N   UNL     1       4.309  28.268  51.516  1.00  0.00    -0.240 N 
HETATM    4  C   UNL     1       3.753  29.187  50.538  1.00  0.00     0.221 C 
HETATM    5  C   UNL     1       4.670  29.282  49.304  1.00  0.00     0.068 C 
HETATM    6  C   UNL     1       5.183  27.898  48.882  1.00  0.00     0.143 C 
HETATM    7  N   UNL     1       5.904  27.304  50.026  1.00  0.00    -0.363 N 
HETATM    8  N   UNL     1       3.718  28.072  52.705  1.00  0.00    -0.181 NA
HETATM    9  C   UNL     1       4.460  27.113  53.267  1.00  0.00     0.160 A 
HETATM   10  H   UNL     1       6.354  26.425  49.761  1.00  0.00     0.162 HD
ENDROOT
BRANCH   1  11
HETATM   11  C   UNL     1       6.475  25.622  52.738  1.00  0.00     0.261 C 
HETATM   12  N   UNL     1       6.288  25.052  53.983  1.00  0.00    -0.323 N 
HETATM   13  H   UNL     1       5.434  25.321  54.461  1.00  0.00     0.169 HD
HETATM   14  O   UNL     1       7.327  25.303  51.917  1.00  0.00    -0.267 OA
BRANCH  12  15
HETATM   15  C   UNL     1       7.076  24.063  54.605  1.00  0.00     0.035 A 
HETATM   16  C   UNL     1       7.563  22.932  53.945  1.00  0.00     0.039 A 
HETATM   17  C   UNL     1       8.359  21.984  54.616  1.00  0.00    -0.028 A 
HETATM   18  C   UNL     1       8.643  22.182  55.972  1.00  0.00     0.010 A 
HETATM   19  C   UNL     1       8.166  23.311  56.638  1.00  0.00     0.003 A 
HETATM   20  C   UNL     1       7.394  24.250  55.954  1.00  0.00     0.029 A 
BRANCH  17  21
HETATM   21  C   UNL     1       8.855  20.765  53.868  1.00  0.00     0.147 C 
HETATM   22  C   UNL     1       8.004  20.476  52.639  1.00  0.00     0.044 C 
BRANCH  21  23
HETATM   23  O   UNL     1       8.845  19.624  54.725  1.00  0.00    -0.391 OA
HETATM   24  H   UNL     1       9.713  19.589  55.159  1.00  0.00     0.210 HD
ENDBRANCH  21  23
ENDBRANCH  17  21
ENDBRANCH  12  15
ENDBRANCH   1  11
BRANCH   4  25
HETATM   25  C   UNL     1       3.550  30.568  51.123  1.00  0.00     0.409 C 
HETATM   26  F   UNL     1       2.355  30.733  51.725  1.00  0.00    -0.169 F 
HETATM   27  F   UNL     1       4.520  30.897  52.008  1.00  0.00    -0.169 F 
HETATM   28  F   UNL     1       3.605  31.498  50.130  1.00  0.00    -0.169 F 
ENDBRANCH   4  25
BRANCH   6  29
HETATM   29  C   UNL     1       4.083  27.050  48.314  1.00  0.00     0.075 A 
HETATM   30  O   UNL     1       3.255  27.658  47.414  1.00  0.00    -0.325 OA
HETATM   31  C   UNL     1       2.329  26.738  47.039  1.00  0.00     0.142 A 
HETATM   32  C   UNL     1       2.550  25.543  47.683  1.00  0.00     0.027 A 
HETATM   33  C   UNL     1       3.684  25.741  48.505  1.00  0.00     0.037 A 
ENDBRANCH   6  29
TORSDOF 6
ENDMDL
MODEL 5
REMARK VINA RESULT:      -9.1      4.354      9.222
REMARK  6 active torsions:
REMARK  status: ('A' for Active; 'I' for Inactive)
REMARK    1  A    between atoms: C_2  and  O_3 
REMARK    2  A    between atoms: C_2  and  C_4 
REMARK    3  A    between atoms: C_6  and  N_7 
REMARK       I    between atoms: N_7  and  C_8 
REMARK    4  A    between atoms: C_8  and  C_9 
REMARK    5  A    between atoms: C_12  and  C_13 
REMARK    6  A    between atoms: C_18  and  C_19 
ROOT
HETATM    1  C   UNL     1       7.481  29.850  58.222  1.00  0.00     0.096 A 
HETATM    2  C   UNL     1       6.522  28.999  57.704  1.00  0.00     0.138 A 
HETATM    3  N   UNL     1       7.213  28.007  57.045  1.00  0.00    -0.240 N 
HETATM    4  C   UNL     1       6.592  26.927  56.298  1.00  0.00     0.221 C 
HETATM    5  C   UNL     1       5.092  26.831  56.634  1.00  0.00     0.068 C 
HETATM    6  C   UNL     1       4.444  28.221  56.695  1.00  0.00     0.143 C 
HETATM    7  N   UNL     1       5.158  29.020  57.712  1.00  0.00    -0.363 N 
HETATM    8  N   UNL     1       8.532  28.243  56.966  1.00  0.00    -0.181 NA
HETATM    9  C   UNL     1       8.696  29.344  57.703  1.00  0.00     0.160 A 
HETATM   10  H   UNL     1       4.697  29.921  57.863  1.00  0.00     0.162 HD
ENDROOT
BRANCH   1  11
HETATM   11  C   UNL     1       7.319  31.031  59.052  1.00  0.00     0.261 C 
HETATM   12  N   UNL     1       7.390  30.763  60.406  1.00  0.00    -0.323 N 
HETATM   13  H   UNL     1       7.677  29.820  60.648  1.00  0.00     0.169 HD
HETATM   14  O   UNL     1       7.177  32.136  58.540  1.00  0.00    -0.267 OA
BRANCH  12  15
HETATM   15  C   UNL     1       7.228  31.669  61.473  1.00  0.00     0.035 A 
HETATM   16  C   UNL     1       6.060  32.402  61.697  1.00  0.00     0.039 A 
HETATM   17  C   UNL     1       5.951  33.283  62.789  1.00  0.00    -0.028 A 
HETATM   18  C   UNL     1       7.048  33.431  63.647  1.00  0.00     0.010 A 
HETATM   19  C   UNL     1       8.216  32.700  63.435  1.00  0.00     0.003 A 
HETATM   20  C   UNL     1       8.302  31.818  62.358  1.00  0.00     0.029 A 
BRANCH  17  21
HETATM   21  C   UNL     1       4.673  34.069  62.989  1.00  0.00     0.147 C 
HETATM   22  C   UNL     1       4.959  35.522  63.344  1.00  0.00     0.044 C 
BRANCH  21  23
HETATM   23  O   UNL     1       3.889  33.479  64.025  1.00  0.00    -0.391 OA
HETATM   24  H   UNL     1       2.996  33.855  63.951  1.00  0.00     0.210 HD
ENDBRANCH  21  23
ENDBRANCH  17  21
ENDBRANCH  12  15
ENDBRANCH   1  11
BRANCH   4  25
HETATM   25  C   UNL     1       7.259  25.598  56.581  1.00  0.00     0.409 C 
HETATM   26  F   UNL     1       8.216  25.270  55.691  1.00  0.00    -0.169 F 
HETATM   27  F   UNL     1       7.798  25.550  57.822  1.00  0.00    -0.169 F 
HETATM   28  F   UNL     1       6.333  24.602  56.526  1.00  0.00    -0.169 F 
ENDBRANCH   4  25
BRANCH   6  29
HETATM   29  C   UNL     1       4.357  28.852  55.337  1.00  0.00     0.075 A 
HETATM   30  O   UNL     1       4.005  28.025  54.308  1.00  0.00    -0.325 OA
HETATM   31  C   UNL     1       4.003  28.775  53.175  1.00  0.00     0.142 A 
HETATM   32  C   UNL     1       4.345  30.076  53.459  1.00  0.00     0.027 A 
HETATM   33  C   UNL     1       4.572  30.129  54.855  1.00  0.00     0.037 A 
ENDBRANCH   6  29
TORSDOF 6
ENDMDL
MODEL 6
REMARK VINA RESULT:      -9.0      3.498      8.104
REMARK  6 active torsions:
REMARK  status: ('A' for Active; 'I' for Inactive)
REMARK    1  A    between atoms: C_2  and  O_3 
REMARK    2  A    between atoms: C_2  and  C_4 
REMARK    3  A    between atoms: C_6  and  N_7 
REMARK       I    between atoms: N_7  and  C_8 
REMARK    4  A    between atoms: C_8  and  C_9 
REMARK    5  A    between atoms: C_12  and  C_13 
REMARK    6  A    between atoms: C_18  and  C_19 
ROOT
HETATM    1  C   UNL     1       5.512  30.513  57.005  1.00  0.00     0.096 A 
HETATM    2  C   UNL     1       6.122  29.709  56.059  1.00  0.00     0.138 A 
HETATM    3  N   UNL     1       5.100  29.114  55.353  1.00  0.00    -0.240 N 
HETATM    4  C   UNL     1       5.289  28.138  54.294  1.00  0.00     0.221 C 
HETATM    5  C   UNL     1       6.758  28.126  53.827  1.00  0.00     0.068 C 
HETATM    6  C   UNL     1       7.723  28.193  55.019  1.00  0.00     0.143 C 
HETATM    7  N   UNL     1       7.427  29.421  55.785  1.00  0.00    -0.363 N 
HETATM    8  N   UNL     1       3.887  29.351  55.876  1.00  0.00    -0.181 NA
HETATM    9  C   UNL     1       4.135  30.220  56.859  1.00  0.00     0.160 A 
HETATM   10  H   UNL     1       8.112  29.564  56.531  1.00  0.00     0.162 HD
ENDROOT
BRANCH   1  11
HETATM   11  C   UNL     1       6.108  31.409  57.981  1.00  0.00     0.261 C 
HETATM   12  N   UNL     1       6.772  30.748  58.997  1.00  0.00    -0.323 N 
HETATM   13  H   UNL     1       6.878  29.747  58.868  1.00  0.00     0.169 HD
HETATM   14  O   UNL     1       6.030  32.624  57.838  1.00  0.00    -0.267 OA
BRANCH  12  15
HETATM   15  C   UNL     1       7.414  31.314  60.116  1.00  0.00     0.035 A 
HETATM   16  C   UNL     1       6.737  31.965  61.151  1.00  0.00     0.039 A 
HETATM   17  C   UNL     1       7.432  32.499  62.252  1.00  0.00    -0.028 A 
HETATM   18  C   UNL     1       8.827  32.385  62.289  1.00  0.00     0.010 A 
HETATM   19  C   UNL     1       9.510  31.733  61.264  1.00  0.00     0.003 A 
HETATM   20  C   UNL     1       8.806  31.193  60.187  1.00  0.00     0.029 A 
BRANCH  17  21
HETATM   21  C   UNL     1       6.662  33.209  63.346  1.00  0.00     0.147 C 
HETATM   22  C   UNL     1       7.525  33.435  64.580  1.00  0.00     0.044 C 
BRANCH  21  23
HETATM   23  O   UNL     1       5.512  32.448  63.712  1.00  0.00    -0.391 OA
HETATM   24  H   UNL     1       5.803  31.526  63.812  1.00  0.00     0.210 HD
ENDBRANCH  21  23
ENDBRANCH  17  21
ENDBRANCH  12  15
ENDBRANCH   1  11
BRANCH   4  25
HETATM   25  C   UNL     1       4.386  28.416  53.112  1.00  0.00     0.409 C 
HETATM   26  F   UNL     1       3.144  27.909  53.246  1.00  0.00    -0.169 F 
HETATM   27  F   UNL     1       4.279  29.739  52.849  1.00  0.00    -0.169 F 
HETATM   28  F   UNL     1       4.909  27.844  51.993  1.00  0.00    -0.169 F 
ENDBRANCH   4  25
BRANCH   6  29
HETATM   29  C   UNL     1       7.703  26.924  55.820  1.00  0.00     0.075 A 
HETATM   30  O   UNL     1       7.647  25.761  55.106  1.00  0.00    -0.325 OA
HETATM   31  C   UNL     1       7.618  24.742  56.004  1.00  0.00     0.142 A 
HETATM   32  C   UNL     1       7.659  25.232  57.288  1.00  0.00     0.027 A 
HETATM   33  C   UNL     1       7.716  26.642  57.171  1.00  0.00     0.037 A 
ENDBRANCH   6  29
TORSDOF 6
ENDMDL
MODEL 7
REMARK VINA RESULT:      -8.9      5.162      7.549
REMARK  6 active torsions:
REMARK  status: ('A' for Active; 'I' for Inactive)
REMARK    1  A    between atoms: C_2  and  O_3 
REMARK    2  A    between atoms: C_2  and  C_4 
REMARK    3  A    between atoms: C_6  and  N_7 
REMARK       I    between atoms: N_7  and  C_8 
REMARK    4  A    between atoms: C_8  and  C_9 
REMARK    5  A    between atoms: C_12  and  C_13 
REMARK    6  A    between atoms: C_18  and  C_19 
ROOT
HETATM    1  C   UNL     1       5.045  27.524  51.348  1.00  0.00     0.096 A 
HETATM    2  C   UNL     1       4.969  27.877  50.013  1.00  0.00     0.138 A 
HETATM    3  N   UNL     1       4.733  29.234  49.994  1.00  0.00    -0.240 N 
HETATM    4  C   UNL     1       4.523  30.017  48.789  1.00  0.00     0.221 C 
HETATM    5  C   UNL     1       4.949  29.216  47.544  1.00  0.00     0.068 C 
HETATM    6  C   UNL     1       4.476  27.758  47.628  1.00  0.00     0.143 C 
HETATM    7  N   UNL     1       5.041  27.160  48.855  1.00  0.00    -0.363 N 
HETATM    8  N   UNL     1       4.495  29.747  51.211  1.00  0.00    -0.181 NA
HETATM    9  C   UNL     1       4.711  28.717  52.032  1.00  0.00     0.160 A 
HETATM   10  H   UNL     1       4.839  26.158  48.903  1.00  0.00     0.162 HD
ENDROOT
BRANCH   1  11
HETATM   11  C   UNL     1       5.332  26.232  51.948  1.00  0.00     0.261 C 
HETATM   12  N   UNL     1       6.087  26.321  53.102  1.00  0.00    -0.323 N 
HETATM   13  H   UNL     1       6.230  27.261  53.457  1.00  0.00     0.169 HD
HETATM   14  O   UNL     1       4.884  25.204  51.453  1.00  0.00    -0.267 OA
BRANCH  12  15
HETATM   15  C   UNL     1       6.574  25.263  53.895  1.00  0.00     0.035 A 
HETATM   16  C   UNL     1       7.403  24.249  53.411  1.00  0.00     0.039 A 
HETATM   17  C   UNL     1       7.869  23.224  54.256  1.00  0.00    -0.028 A 
HETATM   18  C   UNL     1       7.471  23.224  55.599  1.00  0.00     0.010 A 
HETATM   19  C   UNL     1       6.648  24.235  56.092  1.00  0.00     0.003 A 
HETATM   20  C   UNL     1       6.208  25.253  55.246  1.00  0.00     0.029 A 
BRANCH  17  21
HETATM   21  C   UNL     1       8.756  22.135  53.689  1.00  0.00     0.147 C 
HETATM   22  C   UNL     1       7.936  20.974  53.141  1.00  0.00     0.044 C 
BRANCH  21  23
HETATM   23  O   UNL     1       9.643  21.649  54.695  1.00  0.00    -0.391 OA
HETATM   24  H   UNL     1       9.864  22.404  55.265  1.00  0.00     0.210 HD
ENDBRANCH  21  23
ENDBRANCH  17  21
ENDBRANCH  12  15
ENDBRANCH   1  11
BRANCH   4  25
HETATM   25  C   UNL     1       5.285  31.324  48.833  1.00  0.00     0.409 C 
HETATM   26  F   UNL     1       4.644  32.304  49.501  1.00  0.00    -0.169 F 
HETATM   27  F   UNL     1       6.518  31.180  49.372  1.00  0.00    -0.169 F 
HETATM   28  F   UNL     1       5.471  31.788  47.567  1.00  0.00    -0.169 F 
ENDBRANCH   4  25
BRANCH   6  29
HETATM   29  C   UNL     1       2.985  27.652  47.498  1.00  0.00     0.075 A 
HETATM   30  O   UNL     1       2.377  28.603  46.728  1.00  0.00    -0.325 OA
HETATM   31  C   UNL     1       1.043  28.344  46.754  1.00  0.00     0.142 A 
HETATM   32  C   UNL     1       0.783  27.237  47.526  1.00  0.00     0.027 A 
HETATM   33  C   UNL     1       2.036  26.786  48.006  1.00  0.00     0.037 A 
ENDBRANCH   6  29
TORSDOF 6
ENDMDL
MODEL 8
REMARK VINA RESULT:      -8.9      3.103      7.906
REMARK  6 active torsions:
REMARK  status: ('A' for Active; 'I' for Inactive)
REMARK    1  A    between atoms: C_2  and  O_3 
REMARK    2  A    between atoms: C_2  and  C_4 
REMARK    3  A    between atoms: C_6  and  N_7 
REMARK       I    between atoms: N_7  and  C_8 
REMARK    4  A    between atoms: C_8  and  C_9 
REMARK    5  A    between atoms: C_12  and  C_13 
REMARK    6  A    between atoms: C_18  and  C_19 
ROOT
HETATM    1  C   UNL     1       6.216  28.695  56.801  1.00  0.00     0.096 A 
HETATM    2  C   UNL     1       6.516  28.185  55.551  1.00  0.00     0.138 A 
HETATM    3  N   UNL     1       5.308  28.022  54.910  1.00  0.00    -0.240 N 
HETATM    4  C   UNL     1       5.150  27.451  53.583  1.00  0.00     0.221 C 
HETATM    5  C   UNL     1       6.508  27.388  52.858  1.00  0.00     0.068 C 
HETATM    6  C   UNL     1       7.621  26.902  53.797  1.00  0.00     0.143 C 
HETATM    7  N   UNL     1       7.686  27.823  54.951  1.00  0.00    -0.363 N 
HETATM    8  N   UNL     1       4.251  28.239  55.707  1.00  0.00    -0.181 NA
HETATM    9  C   UNL     1       4.802  28.673  56.844  1.00  0.00     0.160 A 
HETATM   10  H   UNL     1       8.481  27.601  55.555  1.00  0.00     0.162 HD
ENDROOT
BRANCH   1  11
HETATM   11  C   UNL     1       7.109  29.107  57.871  1.00  0.00     0.261 C 
HETATM   12  N   UNL     1       6.846  30.379  58.343  1.00  0.00    -0.323 N 
HETATM   13  H   UNL     1       5.997  30.808  57.989  1.00  0.00     0.169 HD
HETATM   14  O   UNL     1       7.964  28.340  58.297  1.00  0.00    -0.267 OA
BRANCH  12  15
HETATM   15  C   UNL     1       7.549  31.091  59.335  1.00  0.00     0.035 A 
HETATM   16  C   UNL     1       6.952  31.610  60.487  1.00  0.00     0.039 A 
HETATM   17  C   UNL     1       7.708  32.303  61.451  1.00  0.00    -0.028 A 
HETATM   18  C   UNL     1       9.079  32.482  61.230  1.00  0.00     0.010 A 
HETATM   19  C   UNL     1       9.685  31.963  60.086  1.00  0.00     0.003 A 
HETATM   20  C   UNL     1       8.925  31.265  59.148  1.00  0.00     0.029 A 
BRANCH  17  21
HETATM   21  C   UNL     1       7.021  32.861  62.678  1.00  0.00     0.147 C 
HETATM   22  C   UNL     1       7.944  32.852  63.889  1.00  0.00     0.044 C 
BRANCH  21  23
HETATM   23  O   UNL     1       5.850  32.101  62.976  1.00  0.00    -0.391 OA
HETATM   24  H   UNL     1       5.975  31.728  63.865  1.00  0.00     0.210 HD
ENDBRANCH  21  23
ENDBRANCH  17  21
ENDBRANCH  12  15
ENDBRANCH   1  11
BRANCH   4  25
HETATM   25  C   UNL     1       4.169  28.244  52.748  1.00  0.00     0.409 C 
HETATM   26  F   UNL     1       4.317  29.580  52.857  1.00  0.00    -0.169 F 
HETATM   27  F   UNL     1       4.231  27.917  51.436  1.00  0.00    -0.169 F 
HETATM   28  F   UNL     1       2.899  27.971  53.153  1.00  0.00    -0.169 F 
ENDBRANCH   4  25
BRANCH   6  29
HETATM   29  C   UNL     1       7.455  25.453  54.149  1.00  0.00     0.075 A 
HETATM   30  O   UNL     1       7.546  25.140  55.476  1.00  0.00    -0.325 OA
HETATM   31  C   UNL     1       7.390  23.795  55.580  1.00  0.00     0.142 A 
HETATM   32  C   UNL     1       7.195  23.236  54.339  1.00  0.00     0.027 A 
HETATM   33  C   UNL     1       7.234  24.306  53.414  1.00  0.00     0.037 A 
ENDBRANCH   6  29
TORSDOF 6
ENDMDL
MODEL 9
REMARK VINA RESULT:      -8.8      4.868      7.171
REMARK  6 active torsions:
REMARK  status: ('A' for Active; 'I' for Inactive)
REMARK    1  A    between atoms: C_2  and  O_3 
REMARK    2  A    between atoms: C_2  and  C_4 
REMARK    3  A    between atoms: C_6  and  N_7 
REMARK       I    between atoms: N_7  and  C_8 
REMARK    4  A    between atoms: C_8  and  C_9 
REMARK    5  A    between atoms: C_12  and  C_13 
REMARK    6  A    between atoms: C_18  and  C_19 
ROOT
HETATM    1  C   UNL     1       5.114  27.047  51.652  1.00  0.00     0.096 A 
HETATM    2  C   UNL     1       5.110  27.506  50.347  1.00  0.00     0.138 A 
HETATM    3  N   UNL     1       4.770  28.839  50.418  1.00  0.00    -0.240 N 
HETATM    4  C   UNL     1       4.589  29.705  49.266  1.00  0.00     0.221 C 
HETATM    5  C   UNL     1       5.168  29.046  47.999  1.00  0.00     0.068 C 
HETATM    6  C   UNL     1       4.805  27.557  47.929  1.00  0.00     0.143 C 
HETATM    7  N   UNL     1       5.323  26.897  49.146  1.00  0.00    -0.363 N 
HETATM    8  N   UNL     1       4.403  29.228  51.649  1.00  0.00    -0.181 NA
HETATM    9  C   UNL     1       4.638  28.149  52.400  1.00  0.00     0.160 A 
HETATM   10  H   UNL     1       5.197  25.884  49.097  1.00  0.00     0.162 HD
ENDROOT
BRANCH   1  11
HETATM   11  C   UNL     1       5.455  25.732  52.168  1.00  0.00     0.261 C 
HETATM   12  N   UNL     1       6.688  25.693  52.792  1.00  0.00    -0.323 N 
HETATM   13  H   UNL     1       7.134  26.594  52.931  1.00  0.00     0.169 HD
HETATM   14  O   UNL     1       4.666  24.800  52.066  1.00  0.00    -0.267 OA
BRANCH  12  15
HETATM   15  C   UNL     1       7.333  24.573  53.354  1.00  0.00     0.035 A 
HETATM   16  C   UNL     1       7.601  24.438  54.719  1.00  0.00     0.039 A 
HETATM   17  C   UNL     1       8.237  23.289  55.225  1.00  0.00    -0.028 A 
HETATM   18  C   UNL     1       8.618  22.280  54.331  1.00  0.00     0.010 A 
HETATM   19  C   UNL     1       8.350  22.404  52.969  1.00  0.00     0.003 A 
HETATM   20  C   UNL     1       7.703  23.541  52.485  1.00  0.00     0.029 A 
BRANCH  17  21
HETATM   21  C   UNL     1       8.523  23.187  56.708  1.00  0.00     0.147 C 
HETATM   22  C   UNL     1       8.338  21.763  57.217  1.00  0.00     0.044 C 
BRANCH  21  23
HETATM   23  O   UNL     1       7.661  24.060  57.437  1.00  0.00    -0.391 OA
HETATM   24  H   UNL     1       7.972  24.966  57.272  1.00  0.00     0.210 HD
ENDBRANCH  21  23
ENDBRANCH  17  21
ENDBRANCH  12  15
ENDBRANCH   1  11
BRANCH   4  25
HETATM   25  C   UNL     1       5.241  31.055  49.475  1.00  0.00     0.409 C 
HETATM   26  F   UNL     1       4.511  31.900  50.230  1.00  0.00    -0.169 F 
HETATM   27  F   UNL     1       6.472  30.949  50.028  1.00  0.00    -0.169 F 
HETATM   28  F   UNL     1       5.411  31.672  48.274  1.00  0.00    -0.169 F 
ENDBRANCH   4  25
BRANCH   6  29
HETATM   29  C   UNL     1       3.341  27.355  47.671  1.00  0.00     0.075 A 
HETATM   30  O   UNL     1       2.714  28.334  46.953  1.00  0.00    -0.325 OA
HETATM   31  C   UNL     1       1.408  27.976  46.847  1.00  0.00     0.142 A 
HETATM   32  C   UNL     1       1.184  26.779  47.484  1.00  0.00     0.027 A 
HETATM   33  C   UNL     1       2.432  26.374  48.015  1.00  0.00     0.037 A 
ENDBRANCH   6  29
TORSDOF 6
ENDMDL
MODEL 10
REMARK VINA RESULT:      -8.7      5.416      6.944
REMARK  6 active torsions:
REMARK  status: ('A' for Active; 'I' for Inactive)
REMARK    1  A    between atoms: C_2  and  O_3 
REMARK    2  A    between atoms: C_2  and  C_4 
REMARK    3  A    between atoms: C_6  and  N_7 
REMARK       I    between atoms: N_7  and  C_8 
REMARK    4  A    between atoms: C_8  and  C_9 
REMARK    5  A    between atoms: C_12  and  C_13 
REMARK    6  A    between atoms: C_18  and  C_19 
ROOT
HETATM    1  C   UNL     1       4.867  27.098  50.727  1.00  0.00     0.096 A 
HETATM    2  C   UNL     1       4.092  28.227  50.528  1.00  0.00     0.138 A 
HETATM    3  N   UNL     1       3.540  28.090  49.273  1.00  0.00    -0.240 N 
HETATM    4  C   UNL     1       2.698  29.083  48.631  1.00  0.00     0.221 C 
HETATM    5  C   UNL     1       2.216  30.127  49.657  1.00  0.00     0.068 C 
HETATM    6  C   UNL     1       3.351  30.548  50.600  1.00  0.00     0.143 C 
HETATM    7  N   UNL     1       3.858  29.339  51.281  1.00  0.00    -0.363 N 
HETATM    8  N   UNL     1       4.026  27.040  48.593  1.00  0.00    -0.181 NA
HETATM    9  C   UNL     1       4.808  26.426  49.484  1.00  0.00     0.160 A 
HETATM   10  H   UNL     1       4.547  29.582  51.998  1.00  0.00     0.162 HD
ENDROOT
BRANCH   1  11
HETATM   11  C   UNL     1       5.630  26.694  51.896  1.00  0.00     0.261 C 
HETATM   12  N   UNL     1       5.708  25.323  52.051  1.00  0.00    -0.323 N 
HETATM   13  H   UNL     1       5.348  24.776  51.275  1.00  0.00     0.169 HD
HETATM   14  O   UNL     1       6.162  27.535  52.611  1.00  0.00    -0.267 OA
BRANCH  12  15
HETATM   15  C   UNL     1       6.327  24.609  53.095  1.00  0.00     0.035 A 
HETATM   16  C   UNL     1       7.253  23.583  52.890  1.00  0.00     0.039 A 
HETATM   17  C   UNL     1       7.849  22.913  53.974  1.00  0.00    -0.028 A 
HETATM   18  C   UNL     1       7.486  23.280  55.276  1.00  0.00     0.010 A 
HETATM   19  C   UNL     1       6.567  24.306  55.491  1.00  0.00     0.003 A 
HETATM   20  C   UNL     1       5.997  24.972  54.406  1.00  0.00     0.029 A 
BRANCH  17  21
HETATM   21  C   UNL     1       8.838  21.797  53.709  1.00  0.00     0.147 C 
HETATM   22  C   UNL     1       8.181  20.628  52.988  1.00  0.00     0.044 C 
BRANCH  21  23
HETATM   23  O   UNL     1       9.400  21.335  54.937  1.00  0.00    -0.391 OA
HETATM   24  H   UNL     1       9.121  21.959  55.627  1.00  0.00     0.210 HD
ENDBRANCH  21  23
ENDBRANCH  17  21
ENDBRANCH  12  15
ENDBRANCH   1  11
BRANCH   4  25
HETATM   25  C   UNL     1       1.500  28.448  47.958  1.00  0.00     0.409 C 
HETATM   26  F   UNL     1       0.994  27.395  48.631  1.00  0.00    -0.169 F 
HETATM   27  F   UNL     1       0.501  29.336  47.745  1.00  0.00    -0.169 F 
HETATM   28  F   UNL     1       1.862  27.975  46.734  1.00  0.00    -0.169 F 
ENDBRANCH   4  25
BRANCH   6  29
HETATM   29  C   UNL     1       4.393  31.359  49.886  1.00  0.00     0.075 A 
HETATM   30  O   UNL     1       3.930  32.276  48.985  1.00  0.00    -0.325 OA
HETATM   31  C   UNL     1       5.017  32.883  48.440  1.00  0.00     0.142 A 
HETATM   32  C   UNL     1       6.174  32.373  48.981  1.00  0.00     0.027 A 
HETATM   33  C   UNL     1       5.773  31.390  49.917  1.00  0.00     0.037 A 
ENDBRANCH   6  29
TORSDOF 6
ENDMDL
