MODEL 1
REMARK VINA RESULT:     -11.7      0.000      0.000
REMARK  8 active torsions:
REMARK  status: ('A' for Active; 'I' for Inactive)
REMARK    1  A    between atoms: C_2  and  O_3 
REMARK    2  A    between atoms: C_2  and  C_14 
REMARK    3  A    between atoms: O_3  and  C_4 
REMARK       I    between atoms: C_14  and  N_15 
REMARK    4  A    between atoms: N_15  and  N_16 
REMARK       I    between atoms: N_16  and  C_17 
REMARK    5  A    between atoms: C_17  and  C_18 
REMARK    6  A    between atoms: C_18  and  C_19 
REMARK    7  A    between atoms: C_19  and  C_20 
REMARK    8  A    between atoms: C_20  and  C_21 
ROOT
HETATM    1  N   UNL     1       8.653  30.161  58.195  1.00  0.00    -0.267 N 
HETATM    2  C   UNL     1       9.695  31.069  58.311  1.00  0.00     0.236 C 
HETATM    3  O   UNL     1      10.633  31.127  57.523  1.00  0.00    -0.272 OA
HETATM    4  H   UNL     1       7.761  30.390  58.634  1.00  0.00     0.190 HD
ENDROOT
BRANCH   1   5
HETATM    5  N   UNL     1       8.530  29.463  56.981  1.00  0.00    -0.265 N 
HETATM    6  C   UNL     1       7.943  28.207  57.039  1.00  0.00     0.265 C 
HETATM    7  O   UNL     1       7.649  27.678  58.112  1.00  0.00    -0.269 OA
HETATM    8  H   UNL     1       8.463  30.034  56.140  1.00  0.00     0.190 HD
BRANCH   6   9
HETATM    9  C   UNL     1       7.770  27.535  55.672  1.00  0.00     0.218 C 
HETATM   10  C   UNL     1       6.788  28.328  54.819  1.00  0.00     0.050 C 
BRANCH   9  11
HETATM   11  O   UNL     1       7.234  26.247  55.991  1.00  0.00    -0.337 OA
BRANCH  11  12
HETATM   12  C   UNL     1       7.454  25.197  55.150  1.00  0.00     0.070 A 
HETATM   13  C   UNL     1       7.518  23.955  55.789  1.00  0.00     0.049 A 
HETATM   14  C   UNL     1       7.728  22.770  55.067  1.00  0.00    -0.023 A 
HETATM   15  C   UNL     1       7.861  22.835  53.663  1.00  0.00    -0.026 A 
HETATM   16  C   UNL     1       7.808  21.523  55.709  1.00  0.00     0.012 A 
HETATM   17  C   UNL     1       7.782  24.086  53.029  1.00  0.00     0.015 A 
HETATM   18  C   UNL     1       8.065  21.650  52.937  1.00  0.00     0.012 A 
HETATM   19  C   UNL     1       7.581  25.259  53.766  1.00  0.00     0.037 A 
HETATM   20  C   UNL     1       8.143  20.418  53.590  1.00  0.00     0.001 A 
HETATM   21  C   UNL     1       8.017  20.354  54.974  1.00  0.00     0.001 A 
ENDBRANCH  11  12
ENDBRANCH   9  11
ENDBRANCH   6   9
ENDBRANCH   1   5
BRANCH   2  22
HETATM   22  C   UNL     1       9.555  31.935  59.550  1.00  0.00     0.105 C 
BRANCH  22  23
HETATM   23  C   UNL     1       8.721  31.301  60.659  1.00  0.00     0.014 C 
BRANCH  23  24
HETATM   24  C   UNL     1       9.072  31.858  62.042  1.00  0.00     0.039 C 
BRANCH  24  25
HETATM   25  C   UNL     1       7.827  32.274  62.793  1.00  0.00    -0.056 A 
HETATM   26  C   UNL     1       7.945  33.020  63.979  1.00  0.00     0.039 A 
HETATM   27  C   UNL     1       6.780  33.338  64.635  1.00  0.00     0.063 A 
HETATM   28  C   UNL     1       5.529  32.946  64.165  1.00  0.00     0.063 A 
HETATM   29  N   UNL     1       6.590  34.052  65.813  1.00  0.00    -0.306 N 
HETATM   30  N   UNL     1       4.569  33.417  65.053  1.00  0.00    -0.307 N 
HETATM   31  C   UNL     1       5.376  32.215  63.012  1.00  0.00     0.032 A 
HETATM   32  C   UNL     1       5.216  34.108  66.088  1.00  0.00     0.325 A 
HETATM   33  H   UNL     1       3.573  33.296  64.998  1.00  0.00     0.170 HD
HETATM   34  O   UNL     1       4.686  34.652  67.041  1.00  0.00    -0.247 OA
HETATM   35  C   UNL     1       6.547  31.877  62.322  1.00  0.00     0.009 A 
HETATM   36  H   UNL     1       7.298  34.466  66.395  1.00  0.00     0.170 HD
ENDBRANCH  24  25
ENDBRANCH  23  24
ENDBRANCH  22  23
ENDBRANCH   2  22
TORSDOF 8
ENDMDL
MODEL 2
REMARK VINA RESULT:     -11.2      1.561      2.180
REMARK  8 active torsions:
REMARK  status: ('A' for Active; 'I' for Inactive)
REMARK    1  A    between atoms: C_2  and  O_3 
REMARK    2  A    between atoms: C_2  and  C_14 
REMARK    3  A    between atoms: O_3  and  C_4 
REMARK       I    between atoms: C_14  and  N_15 
REMARK    4  A    between atoms: N_15  and  N_16 
REMARK       I    between atoms: N_16  and  C_17 
REMARK    5  A    between atoms: C_17  and  C_18 
REMARK    6  A    between atoms: C_18  and  C_19 
REMARK    7  A    between atoms: C_19  and  C_20 
REMARK    8  A    between atoms: C_20  and  C_21 
ROOT
HETATM    1  N   UNL     1       9.054  28.745  57.217  1.00  0.00    -0.267 N 
HETATM    2  C   UNL     1       9.869  29.716  56.659  1.00  0.00     0.236 C 
HETATM    3  O   UNL     1      10.173  29.744  55.471  1.00  0.00    -0.272 OA
HETATM    4  H   UNL     1       8.556  28.967  58.080  1.00  0.00     0.190 HD
ENDROOT
BRANCH   1   5
HETATM    5  N   UNL     1       8.331  27.918  56.339  1.00  0.00    -0.265 N 
HETATM    6  C   UNL     1       7.012  28.272  56.091  1.00  0.00     0.265 C 
HETATM    7  O   UNL     1       6.464  29.195  56.696  1.00  0.00    -0.269 OA
HETATM    8  H   UNL     1       8.878  27.417  55.642  1.00  0.00     0.190 HD
BRANCH   6   9
HETATM    9  C   UNL     1       6.307  27.374  55.067  1.00  0.00     0.218 C 
HETATM   10  C   UNL     1       4.851  27.795  54.916  1.00  0.00     0.050 C 
BRANCH   9  11
HETATM   11  O   UNL     1       6.395  26.067  55.644  1.00  0.00    -0.337 OA
BRANCH  11  12
HETATM   12  C   UNL     1       6.830  25.023  54.884  1.00  0.00     0.070 A 
HETATM   13  C   UNL     1       7.067  23.848  55.606  1.00  0.00     0.049 A 
HETATM   14  C   UNL     1       7.509  22.676  54.974  1.00  0.00    -0.023 A 
HETATM   15  C   UNL     1       7.703  22.681  53.576  1.00  0.00    -0.026 A 
HETATM   16  C   UNL     1       7.761  21.500  55.699  1.00  0.00     0.012 A 
HETATM   17  C   UNL     1       7.451  23.861  52.857  1.00  0.00     0.015 A 
HETATM   18  C   UNL     1       8.139  21.507  52.939  1.00  0.00     0.012 A 
HETATM   19  C   UNL     1       7.019  25.025  53.506  1.00  0.00     0.037 A 
HETATM   20  C   UNL     1       8.387  20.346  53.675  1.00  0.00     0.001 A 
HETATM   21  C   UNL     1       8.200  20.343  55.053  1.00  0.00     0.001 A 
ENDBRANCH  11  12
ENDBRANCH   9  11
ENDBRANCH   6   9
ENDBRANCH   1   5
BRANCH   2  22
HETATM   22  C   UNL     1      10.375  30.697  57.701  1.00  0.00     0.105 C 
BRANCH  22  23
HETATM   23  C   UNL     1       9.532  30.742  58.972  1.00  0.00     0.014 C 
BRANCH  23  24
HETATM   24  C   UNL     1       9.581  32.111  59.656  1.00  0.00     0.039 C 
BRANCH  24  25
HETATM   25  C   UNL     1       8.554  32.205  60.761  1.00  0.00    -0.056 A 
HETATM   26  C   UNL     1       7.215  32.494  60.446  1.00  0.00     0.039 A 
HETATM   27  C   UNL     1       6.335  32.600  61.496  1.00  0.00     0.063 A 
HETATM   28  C   UNL     1       6.733  32.437  62.821  1.00  0.00     0.063 A 
HETATM   29  N   UNL     1       4.972  32.877  61.490  1.00  0.00    -0.306 N 
HETATM   30  N   UNL     1       5.616  32.614  63.630  1.00  0.00    -0.307 N 
HETATM   31  C   UNL     1       8.032  32.157  63.167  1.00  0.00     0.032 A 
HETATM   32  C   UNL     1       4.510  32.890  62.813  1.00  0.00     0.325 A 
HETATM   33  H   UNL     1       5.574  32.565  64.634  1.00  0.00     0.170 HD
HETATM   34  O   UNL     1       3.368  33.101  63.183  1.00  0.00    -0.247 OA
HETATM   35  C   UNL     1       8.951  32.042  62.115  1.00  0.00     0.009 A 
HETATM   36  H   UNL     1       4.390  33.047  60.688  1.00  0.00     0.170 HD
ENDBRANCH  24  25
ENDBRANCH  23  24
ENDBRANCH  22  23
ENDBRANCH   2  22
TORSDOF 8
ENDMDL
MODEL 3
REMARK VINA RESULT:     -11.2      1.647      2.657
REMARK  8 active torsions:
REMARK  status: ('A' for Active; 'I' for Inactive)
REMARK    1  A    between atoms: C_2  and  O_3 
REMARK    2  A    between atoms: C_2  and  C_14 
REMARK    3  A    between atoms: O_3  and  C_4 
REMARK       I    between atoms: C_14  and  N_15 
REMARK    4  A    between atoms: N_15  and  N_16 
REMARK       I    between atoms: N_16  and  C_17 
REMARK    5  A    between atoms: C_17  and  C_18 
REMARK    6  A    between atoms: C_18  and  C_19 
REMARK    7  A    between atoms: C_19  and  C_20 
REMARK    8  A    between atoms: C_20  and  C_21 
ROOT
HETATM    1  N   UNL     1       8.313  30.260  60.071  1.00  0.00    -0.267 N 
HETATM    2  C   UNL     1       8.107  31.585  60.420  1.00  0.00     0.236 C 
HETATM    3  O   UNL     1       7.538  32.395  59.694  1.00  0.00    -0.272 OA
HETATM    4  H   UNL     1       8.446  29.578  60.818  1.00  0.00     0.190 HD
ENDROOT
BRANCH   1   5
HETATM    5  N   UNL     1       7.608  29.760  58.962  1.00  0.00    -0.265 N 
HETATM    6  C   UNL     1       8.366  29.314  57.889  1.00  0.00     0.265 C 
HETATM    7  O   UNL     1       9.590  29.454  57.857  1.00  0.00    -0.269 OA
HETATM    8  H   UNL     1       6.691  29.363  59.155  1.00  0.00     0.190 HD
BRANCH   6   9
HETATM    9  C   UNL     1       7.538  28.713  56.747  1.00  0.00     0.218 C 
HETATM   10  C   UNL     1       6.390  29.647  56.385  1.00  0.00     0.050 C 
BRANCH   9  11
HETATM   11  O   UNL     1       7.037  27.491  57.297  1.00  0.00    -0.337 OA
BRANCH  11  12
HETATM   12  C   UNL     1       7.510  26.299  56.834  1.00  0.00     0.070 A 
HETATM   13  C   UNL     1       7.128  26.002  55.521  1.00  0.00     0.049 A 
HETATM   14  C   UNL     1       7.539  24.818  54.890  1.00  0.00    -0.023 A 
HETATM   15  C   UNL     1       8.368  23.917  55.592  1.00  0.00    -0.026 A 
HETATM   16  C   UNL     1       7.145  24.510  53.577  1.00  0.00     0.012 A 
HETATM   17  C   UNL     1       8.757  24.229  56.905  1.00  0.00     0.015 A 
HETATM   18  C   UNL     1       8.787  22.734  54.959  1.00  0.00     0.012 A 
HETATM   19  C   UNL     1       8.330  25.411  57.523  1.00  0.00     0.037 A 
HETATM   20  C   UNL     1       8.385  22.442  53.654  1.00  0.00     0.001 A 
HETATM   21  C   UNL     1       7.563  23.329  52.964  1.00  0.00     0.001 A 
ENDBRANCH  11  12
ENDBRANCH   9  11
ENDBRANCH   6   9
ENDBRANCH   1   5
BRANCH   2  22
HETATM   22  C   UNL     1       8.711  31.916  61.772  1.00  0.00     0.105 C 
BRANCH  22  23
HETATM   23  C   UNL     1       7.683  32.078  62.888  1.00  0.00     0.014 C 
BRANCH  23  24
HETATM   24  C   UNL     1       7.073  33.482  62.918  1.00  0.00     0.039 C 
BRANCH  24  25
HETATM   25  C   UNL     1       6.303  33.714  64.198  1.00  0.00    -0.056 A 
HETATM   26  C   UNL     1       6.992  33.807  65.419  1.00  0.00     0.039 A 
HETATM   27  C   UNL     1       6.235  33.983  66.553  1.00  0.00     0.063 A 
HETATM   28  C   UNL     1       4.845  34.063  66.515  1.00  0.00     0.063 A 
HETATM   29  N   UNL     1       6.634  34.103  67.880  1.00  0.00    -0.306 N 
HETATM   30  N   UNL     1       4.388  34.231  67.817  1.00  0.00    -0.307 N 
HETATM   31  C   UNL     1       4.138  33.973  65.341  1.00  0.00     0.032 A 
HETATM   32  C   UNL     1       5.493  34.257  68.680  1.00  0.00     0.325 A 
HETATM   33  H   UNL     1       3.435  34.318  68.125  1.00  0.00     0.170 HD
HETATM   34  O   UNL     1       5.466  34.388  69.891  1.00  0.00    -0.247 OA
HETATM   35  C   UNL     1       4.885  33.795  64.169  1.00  0.00     0.009 A 
HETATM   36  H   UNL     1       7.574  34.082  68.236  1.00  0.00     0.170 HD
ENDBRANCH  24  25
ENDBRANCH  23  24
ENDBRANCH  22  23
ENDBRANCH   2  22
TORSDOF 8
ENDMDL
MODEL 4
REMARK VINA RESULT:     -11.0      1.408      1.768
REMARK  8 active torsions:
REMARK  status: ('A' for Active; 'I' for Inactive)
REMARK    1  A    between atoms: C_2  and  O_3 
REMARK    2  A    between atoms: C_2  and  C_14 
REMARK    3  A    between atoms: O_3  and  C_4 
REMARK       I    between atoms: C_14  and  N_15 
REMARK    4  A    between atoms: N_15  and  N_16 
REMARK       I    between atoms: N_16  and  C_17 
REMARK    5  A    between atoms: C_17  and  C_18 
REMARK    6  A    between atoms: C_18  and  C_19 
REMARK    7  A    between atoms: C_19  and  C_20 
REMARK    8  A    between atoms: C_20  and  C_21 
ROOT
HETATM    1  N   UNL     1       8.246  29.999  58.584  1.00  0.00    -0.267 N 
HETATM    2  C   UNL     1       7.634  31.183  58.963  1.00  0.00     0.236 C 
HETATM    3  O   UNL     1       6.493  31.492  58.632  1.00  0.00    -0.272 OA
HETATM    4  H   UNL     1       9.008  29.641  59.161  1.00  0.00     0.190 HD
ENDROOT
BRANCH   1   5
HETATM    5  N   UNL     1       7.434  28.995  58.026  1.00  0.00    -0.265 N 
HETATM    6  C   UNL     1       7.615  28.724  56.678  1.00  0.00     0.265 C 
HETATM    7  O   UNL     1       8.364  29.403  55.974  1.00  0.00    -0.269 OA
HETATM    8  H   UNL     1       7.109  28.273  58.667  1.00  0.00     0.190 HD
BRANCH   6   9
HETATM    9  C   UNL     1       6.753  27.569  56.153  1.00  0.00     0.218 C 
HETATM   10  C   UNL     1       5.430  27.518  56.907  1.00  0.00     0.050 C 
BRANCH   9  11
HETATM   11  O   UNL     1       7.537  26.405  56.434  1.00  0.00    -0.337 OA
BRANCH  11  12
HETATM   12  C   UNL     1       7.621  25.408  55.508  1.00  0.00     0.070 A 
HETATM   13  C   UNL     1       7.681  24.121  56.054  1.00  0.00     0.049 A 
HETATM   14  C   UNL     1       7.759  22.982  55.238  1.00  0.00    -0.023 A 
HETATM   15  C   UNL     1       7.761  23.141  53.835  1.00  0.00    -0.026 A 
HETATM   16  C   UNL     1       7.835  21.690  55.785  1.00  0.00     0.012 A 
HETATM   17  C   UNL     1       7.687  24.436  53.296  1.00  0.00     0.015 A 
HETATM   18  C   UNL     1       7.832  22.002  53.016  1.00  0.00     0.012 A 
HETATM   19  C   UNL     1       7.619  25.562  54.125  1.00  0.00     0.037 A 
HETATM   20  C   UNL     1       7.908  20.724  53.575  1.00  0.00     0.001 A 
HETATM   21  C   UNL     1       7.911  20.569  54.958  1.00  0.00     0.001 A 
ENDBRANCH  11  12
ENDBRANCH   9  11
ENDBRANCH   6   9
ENDBRANCH   1   5
BRANCH   2  22
HETATM   22  C   UNL     1       8.560  32.062  59.784  1.00  0.00     0.105 C 
BRANCH  22  23
HETATM   23  C   UNL     1       9.337  31.309  60.860  1.00  0.00     0.014 C 
BRANCH  23  24
HETATM   24  C   UNL     1       8.415  30.582  61.843  1.00  0.00     0.039 C 
BRANCH  24  25
HETATM   25  C   UNL     1       7.626  31.565  62.677  1.00  0.00    -0.056 A 
HETATM   26  C   UNL     1       6.222  31.563  62.613  1.00  0.00     0.039 A 
HETATM   27  C   UNL     1       5.561  32.504  63.368  1.00  0.00     0.063 A 
HETATM   28  C   UNL     1       6.234  33.428  64.162  1.00  0.00     0.063 A 
HETATM   29  N   UNL     1       4.197  32.739  63.500  1.00  0.00    -0.306 N 
HETATM   30  N   UNL     1       5.286  34.233  64.782  1.00  0.00    -0.307 N 
HETATM   31  C   UNL     1       7.605  33.462  64.246  1.00  0.00     0.032 A 
HETATM   32  C   UNL     1       4.009  33.816  64.377  1.00  0.00     0.325 A 
HETATM   33  H   UNL     1       5.451  34.998  65.415  1.00  0.00     0.170 HD
HETATM   34  O   UNL     1       2.944  34.297  64.722  1.00  0.00    -0.247 OA
HETATM   35  C   UNL     1       8.304  32.513  63.488  1.00  0.00     0.009 A 
HETATM   36  H   UNL     1       3.447  32.242  63.051  1.00  0.00     0.170 HD
ENDBRANCH  24  25
ENDBRANCH  23  24
ENDBRANCH  22  23
ENDBRANCH   2  22
TORSDOF 8
ENDMDL
MODEL 5
REMARK VINA RESULT:     -10.9      1.547      2.438
REMARK  8 active torsions:
REMARK  status: ('A' for Active; 'I' for Inactive)
REMARK    1  A    between atoms: C_2  and  O_3 
REMARK    2  A    between atoms: C_2  and  C_14 
REMARK    3  A    between atoms: O_3  and  C_4 
REMARK       I    between atoms: C_14  and  N_15 
REMARK    4  A    between atoms: N_15  and  N_16 
REMARK       I    between atoms: N_16  and  C_17 
REMARK    5  A    between atoms: C_17  and  C_18 
REMARK    6  A    between atoms: C_18  and  C_19 
REMARK    7  A    between atoms: C_19  and  C_20 
REMARK    8  A    between atoms: C_20  and  C_21 
ROOT
HETATM    1  N   UNL     1       7.635  30.620  59.322  1.00  0.00    -0.267 N 
HETATM    2  C   UNL     1       7.202  31.937  59.324  1.00  0.00     0.236 C 
HETATM    3  O   UNL     1       6.436  32.399  58.484  1.00  0.00    -0.272 OA
HETATM    4  H   UNL     1       7.952  30.213  60.202  1.00  0.00     0.190 HD
ENDROOT
BRANCH   1   5
HETATM    5  N   UNL     1       6.960  29.714  58.484  1.00  0.00    -0.265 N 
HETATM    6  C   UNL     1       7.736  28.754  57.850  1.00  0.00     0.265 C 
HETATM    7  O   UNL     1       8.966  28.763  57.921  1.00  0.00    -0.269 OA
HETATM    8  H   UNL     1       5.986  29.531  58.714  1.00  0.00     0.190 HD
BRANCH   6   9
HETATM    9  C   UNL     1       6.928  27.753  57.014  1.00  0.00     0.218 C 
HETATM   10  C   UNL     1       5.450  28.122  57.039  1.00  0.00     0.050 C 
BRANCH   9  11
HETATM   11  O   UNL     1       7.146  26.503  57.677  1.00  0.00    -0.337 OA
BRANCH  11  12
HETATM   12  C   UNL     1       7.571  25.425  56.960  1.00  0.00     0.070 A 
HETATM   13  C   UNL     1       7.250  25.478  55.599  1.00  0.00     0.049 A 
HETATM   14  C   UNL     1       7.624  24.451  54.718  1.00  0.00    -0.023 A 
HETATM   15  C   UNL     1       8.353  23.350  55.217  1.00  0.00    -0.026 A 
HETATM   16  C   UNL     1       7.290  24.496  53.354  1.00  0.00     0.012 A 
HETATM   17  C   UNL     1       8.682  23.312  56.582  1.00  0.00     0.015 A 
HETATM   18  C   UNL     1       8.735  22.325  54.336  1.00  0.00     0.012 A 
HETATM   19  C   UNL     1       8.292  24.340  57.449  1.00  0.00     0.037 A 
HETATM   20  C   UNL     1       8.394  22.383  52.982  1.00  0.00     0.001 A 
HETATM   21  C   UNL     1       7.671  23.466  52.493  1.00  0.00     0.001 A 
ENDBRANCH  11  12
ENDBRANCH   9  11
ENDBRANCH   6   9
ENDBRANCH   1   5
BRANCH   2  22
HETATM   22  C   UNL     1       7.829  32.737  60.451  1.00  0.00     0.105 C 
BRANCH  22  23
HETATM   23  C   UNL     1       8.406  31.879  61.574  1.00  0.00     0.014 C 
BRANCH  23  24
HETATM   24  C   UNL     1       7.318  31.294  62.478  1.00  0.00     0.039 C 
BRANCH  24  25
HETATM   25  C   UNL     1       6.851  32.311  63.495  1.00  0.00    -0.056 A 
HETATM   26  C   UNL     1       5.475  32.491  63.719  1.00  0.00     0.039 A 
HETATM   27  C   UNL     1       5.111  33.454  64.630  1.00  0.00     0.063 A 
HETATM   28  C   UNL     1       6.048  34.230  65.307  1.00  0.00     0.063 A 
HETATM   29  N   UNL     1       3.845  33.851  65.046  1.00  0.00    -0.306 N 
HETATM   30  N   UNL     1       5.359  35.105  66.140  1.00  0.00    -0.307 N 
HETATM   31  C   UNL     1       7.399  34.084  65.112  1.00  0.00     0.032 A 
HETATM   32  C   UNL     1       3.983  34.881  65.987  1.00  0.00     0.325 A 
HETATM   33  H   UNL     1       5.749  35.798  66.756  1.00  0.00     0.170 HD
HETATM   34  O   UNL     1       3.083  35.468  66.561  1.00  0.00    -0.247 OA
HETATM   35  C   UNL     1       7.799  33.108  64.189  1.00  0.00     0.009 A 
HETATM   36  H   UNL     1       2.961  33.483  64.740  1.00  0.00     0.170 HD
ENDBRANCH  24  25
ENDBRANCH  23  24
ENDBRANCH  22  23
ENDBRANCH   2  22
TORSDOF 8
ENDMDL
MODEL 6
REMARK VINA RESULT:     -10.6      2.930     12.507
REMARK  8 active torsions:
REMARK  status: ('A' for Active; 'I' for Inactive)
REMARK    1  A    between atoms: C_2  and  O_3 
REMARK    2  A    between atoms: C_2  and  C_14 
REMARK    3  A    between atoms: O_3  and  C_4 
REMARK       I    between atoms: C_14  and  N_15 
REMARK    4  A    between atoms: N_15  and  N_16 
REMARK       I    between atoms: N_16  and  C_17 
REMARK    5  A    between atoms: C_17  and  C_18 
REMARK    6  A    between atoms: C_18  and  C_19 
REMARK    7  A    between atoms: C_19  and  C_20 
REMARK    8  A    between atoms: C_20  and  C_21 
ROOT
HETATM    1  N   UNL     1       6.621  29.699  58.045  1.00  0.00    -0.267 N 
HETATM    2  C   UNL     1       6.930  28.392  57.704  1.00  0.00     0.236 C 
HETATM    3  O   UNL     1       7.980  27.841  58.018  1.00  0.00    -0.272 OA
HETATM    4  H   UNL     1       5.638  29.970  58.083  1.00  0.00     0.190 HD
ENDROOT
BRANCH   1   5
HETATM    5  N   UNL     1       7.423  30.326  59.015  1.00  0.00    -0.265 N 
HETATM    6  C   UNL     1       7.247  31.692  59.183  1.00  0.00     0.265 C 
HETATM    7  O   UNL     1       6.510  32.347  58.444  1.00  0.00    -0.269 OA
HETATM    8  H   UNL     1       7.734  29.740  59.787  1.00  0.00     0.190 HD
BRANCH   6   9
HETATM    9  C   UNL     1       8.097  32.297  60.308  1.00  0.00     0.218 C 
HETATM   10  C   UNL     1       9.577  32.091  60.013  1.00  0.00     0.050 C 
BRANCH   9  11
HETATM   11  O   UNL     1       7.706  31.554  61.466  1.00  0.00    -0.337 OA
BRANCH  11  12
HETATM   12  C   UNL     1       6.812  32.092  62.343  1.00  0.00     0.070 A 
HETATM   13  C   UNL     1       7.390  32.600  63.512  1.00  0.00     0.049 A 
HETATM   14  C   UNL     1       6.610  33.199  64.514  1.00  0.00    -0.023 A 
HETATM   15  C   UNL     1       5.215  33.302  64.328  1.00  0.00    -0.026 A 
HETATM   16  C   UNL     1       7.187  33.697  65.694  1.00  0.00     0.012 A 
HETATM   17  C   UNL     1       4.645  32.801  63.146  1.00  0.00     0.015 A 
HETATM   18  C   UNL     1       4.433  33.907  65.327  1.00  0.00     0.012 A 
HETATM   19  C   UNL     1       5.437  32.198  62.161  1.00  0.00     0.037 A 
HETATM   20  C   UNL     1       5.021  34.396  66.495  1.00  0.00     0.001 A 
HETATM   21  C   UNL     1       6.396  34.289  66.680  1.00  0.00     0.001 A 
ENDBRANCH  11  12
ENDBRANCH   9  11
ENDBRANCH   6   9
ENDBRANCH   1   5
BRANCH   2  22
HETATM   22  C   UNL     1       5.841  27.755  56.860  1.00  0.00     0.105 C 
BRANCH  22  23
HETATM   23  C   UNL     1       6.198  26.369  56.330  1.00  0.00     0.014 C 
BRANCH  23  24
HETATM   24  C   UNL     1       6.198  26.313  54.799  1.00  0.00     0.039 C 
BRANCH  24  25
HETATM   25  C   UNL     1       6.815  25.026  54.302  1.00  0.00    -0.056 A 
HETATM   26  C   UNL     1       6.902  23.917  55.161  1.00  0.00     0.039 A 
HETATM   27  C   UNL     1       7.504  22.786  54.663  1.00  0.00     0.063 A 
HETATM   28  C   UNL     1       8.015  22.723  53.369  1.00  0.00     0.063 A 
HETATM   29  N   UNL     1       7.732  21.557  55.273  1.00  0.00    -0.306 N 
HETATM   30  N   UNL     1       8.559  21.457  53.183  1.00  0.00    -0.307 N 
HETATM   31  C   UNL     1       7.951  23.787  52.503  1.00  0.00     0.032 A 
HETATM   32  C   UNL     1       8.390  20.718  54.363  1.00  0.00     0.325 A 
HETATM   33  H   UNL     1       9.008  21.099  52.357  1.00  0.00     0.170 HD
HETATM   34  O   UNL     1       8.747  19.570  54.559  1.00  0.00    -0.247 OA
HETATM   35  C   UNL     1       7.341  24.953  52.984  1.00  0.00     0.009 A 
HETATM   36  H   UNL     1       7.483  21.287  56.209  1.00  0.00     0.170 HD
ENDBRANCH  24  25
ENDBRANCH  23  24
ENDBRANCH  22  23
ENDBRANCH   2  22
TORSDOF 8
ENDMDL
MODEL 7
REMARK VINA RESULT:     -10.5      1.772      2.739
REMARK  8 active torsions:
REMARK  status: ('A' for Active; 'I' for Inactive)
REMARK    1  A    between atoms: C_2  and  O_3 
REMARK    2  A    between atoms: C_2  and  C_14 
REMARK    3  A    between atoms: O_3  and  C_4 
REMARK       I    between atoms: C_14  and  N_15 
REMARK    4  A    between atoms: N_15  and  N_16 
REMARK       I    between atoms: N_16  and  C_17 
REMARK    5  A    between atoms: C_17  and  C_18 
REMARK    6  A    between atoms: C_18  and  C_19 
REMARK    7  A    between atoms: C_19  and  C_20 
REMARK    8  A    between atoms: C_20  and  C_21 
ROOT
HETATM    1  N   UNL     1       7.155  29.255  55.758  1.00  0.00    -0.267 N 
HETATM    2  C   UNL     1       6.567  29.302  57.012  1.00  0.00     0.236 C 
HETATM    3  O   UNL     1       5.832  28.423  57.449  1.00  0.00    -0.272 OA
HETATM    4  H   UNL     1       8.006  29.795  55.601  1.00  0.00     0.190 HD
ENDROOT
BRANCH   1   5
HETATM    5  N   UNL     1       7.122  28.029  55.069  1.00  0.00    -0.265 N 
HETATM    6  C   UNL     1       6.345  27.978  53.921  1.00  0.00     0.265 C 
HETATM    7  O   UNL     1       5.627  28.920  53.581  1.00  0.00    -0.269 OA
HETATM    8  H   UNL     1       7.942  27.434  55.173  1.00  0.00     0.190 HD
BRANCH   6   9
HETATM    9  C   UNL     1       6.415  26.637  53.179  1.00  0.00     0.218 C 
HETATM   10  C   UNL     1       5.253  25.746  53.598  1.00  0.00     0.050 C 
BRANCH   9  11
HETATM   11  O   UNL     1       7.660  26.076  53.609  1.00  0.00    -0.337 OA
BRANCH  11  12
HETATM   12  C   UNL     1       7.790  24.723  53.711  1.00  0.00     0.070 A 
HETATM   13  C   UNL     1       7.969  24.261  55.020  1.00  0.00     0.049 A 
HETATM   14  C   UNL     1       8.109  22.893  55.301  1.00  0.00    -0.023 A 
HETATM   15  C   UNL     1       8.052  21.965  54.240  1.00  0.00    -0.026 A 
HETATM   16  C   UNL     1       8.303  22.429  56.613  1.00  0.00     0.012 A 
HETATM   17  C   UNL     1       7.860  22.437  52.931  1.00  0.00     0.015 A 
HETATM   18  C   UNL     1       8.185  20.595  54.519  1.00  0.00     0.012 A 
HETATM   19  C   UNL     1       7.731  23.806  52.667  1.00  0.00     0.037 A 
HETATM   20  C   UNL     1       8.379  20.149  55.829  1.00  0.00     0.001 A 
HETATM   21  C   UNL     1       8.439  21.065  56.874  1.00  0.00     0.001 A 
ENDBRANCH  11  12
ENDBRANCH   9  11
ENDBRANCH   6   9
ENDBRANCH   1   5
BRANCH   2  22
HETATM   22  C   UNL     1       6.903  30.588  57.746  1.00  0.00     0.105 C 
BRANCH  22  23
HETATM   23  C   UNL     1       7.789  30.388  58.973  1.00  0.00     0.014 C 
BRANCH  23  24
HETATM   24  C   UNL     1       8.366  31.707  59.495  1.00  0.00     0.039 C 
BRANCH  24  25
HETATM   25  C   UNL     1       7.799  32.048  60.855  1.00  0.00    -0.056 A 
HETATM   26  C   UNL     1       6.456  32.446  60.970  1.00  0.00     0.039 A 
HETATM   27  C   UNL     1       6.008  32.776  62.227  1.00  0.00     0.063 A 
HETATM   28  C   UNL     1       6.834  32.729  63.348  1.00  0.00     0.063 A 
HETATM   29  N   UNL     1       4.750  33.202  62.640  1.00  0.00    -0.306 N 
HETATM   30  N   UNL     1       6.085  33.126  64.450  1.00  0.00    -0.307 N 
HETATM   31  C   UNL     1       8.151  32.348  63.273  1.00  0.00     0.032 A 
HETATM   32  C   UNL     1       4.782  33.426  64.023  1.00  0.00     0.325 A 
HETATM   33  H   UNL     1       6.393  33.203  65.404  1.00  0.00     0.170 HD
HETATM   34  O   UNL     1       3.859  33.807  64.721  1.00  0.00    -0.247 OA
HETATM   35  C   UNL     1       8.634  32.005  62.003  1.00  0.00     0.009 A 
HETATM   36  H   UNL     1       3.936  33.340  62.066  1.00  0.00     0.170 HD
ENDBRANCH  24  25
ENDBRANCH  23  24
ENDBRANCH  22  23
ENDBRANCH   2  22
TORSDOF 8
ENDMDL
MODEL 8
REMARK VINA RESULT:     -10.4      2.124      3.339
REMARK  8 active torsions:
REMARK  status: ('A' for Active; 'I' for Inactive)
REMARK    1  A    between atoms: C_2  and  O_3 
REMARK    2  A    between atoms: C_2  and  C_14 
REMARK    3  A    between atoms: O_3  and  C_4 
REMARK       I    between atoms: C_14  and  N_15 
REMARK    4  A    between atoms: N_15  and  N_16 
REMARK       I    between atoms: N_16  and  C_17 
REMARK    5  A    between atoms: C_17  and  C_18 
REMARK    6  A    between atoms: C_18  and  C_19 
REMARK    7  A    between atoms: C_19  and  C_20 
REMARK    8  A    between atoms: C_20  and  C_21 
ROOT
HETATM    1  N   UNL     1       7.844  30.848  60.367  1.00  0.00    -0.267 N 
HETATM    2  C   UNL     1       8.702  30.905  61.454  1.00  0.00     0.236 C 
HETATM    3  O   UNL     1       9.474  30.000  61.754  1.00  0.00    -0.272 OA
HETATM    4  H   UNL     1       7.514  31.725  59.964  1.00  0.00     0.190 HD
ENDROOT
BRANCH   1   5
HETATM    5  N   UNL     1       8.059  29.831  59.420  1.00  0.00    -0.265 N 
HETATM    6  C   UNL     1       8.900  30.132  58.359  1.00  0.00     0.265 C 
HETATM    7  O   UNL     1       9.346  31.268  58.187  1.00  0.00    -0.269 OA
HETATM    8  H   UNL     1       7.967  28.875  59.760  1.00  0.00     0.190 HD
BRANCH   6   9
HETATM    9  C   UNL     1       9.150  28.956  57.407  1.00  0.00     0.218 C 
HETATM   10  C   UNL     1      10.242  29.314  56.407  1.00  0.00     0.050 C 
BRANCH   9  11
HETATM   11  O   UNL     1       7.895  28.785  56.741  1.00  0.00    -0.337 OA
BRANCH  11  12
HETATM   12  C   UNL     1       7.773  27.842  55.764  1.00  0.00     0.070 A 
HETATM   13  C   UNL     1       7.699  26.529  56.241  1.00  0.00     0.049 A 
HETATM   14  C   UNL     1       7.560  25.439  55.366  1.00  0.00    -0.023 A 
HETATM   15  C   UNL     1       7.479  25.679  53.978  1.00  0.00    -0.026 A 
HETATM   16  C   UNL     1       7.501  24.119  55.842  1.00  0.00     0.012 A 
HETATM   17  C   UNL     1       7.541  27.002  53.510  1.00  0.00     0.015 A 
HETATM   18  C   UNL     1       7.333  24.591  53.101  1.00  0.00     0.012 A 
HETATM   19  C   UNL     1       7.689  28.076  54.395  1.00  0.00     0.037 A 
HETATM   20  C   UNL     1       7.277  23.284  53.590  1.00  0.00     0.001 A 
HETATM   21  C   UNL     1       7.362  23.048  54.958  1.00  0.00     0.001 A 
ENDBRANCH  11  12
ENDBRANCH   9  11
ENDBRANCH   6   9
ENDBRANCH   1   5
BRANCH   2  22
HETATM   22  C   UNL     1       8.531  32.189  62.244  1.00  0.00     0.105 C 
BRANCH  22  23
HETATM   23  C   UNL     1       7.942  31.986  63.637  1.00  0.00     0.014 C 
BRANCH  23  24
HETATM   24  C   UNL     1       7.622  33.313  64.333  1.00  0.00     0.039 C 
BRANCH  24  25
HETATM   25  C   UNL     1       6.139  33.601  64.299  1.00  0.00    -0.056 A 
HETATM   26  C   UNL     1       5.467  33.655  63.065  1.00  0.00     0.039 A 
HETATM   27  C   UNL     1       4.126  33.955  63.097  1.00  0.00     0.063 A 
HETATM   28  C   UNL     1       3.445  34.202  64.287  1.00  0.00     0.063 A 
HETATM   29  N   UNL     1       3.218  34.079  62.051  1.00  0.00    -0.306 N 
HETATM   30  N   UNL     1       2.120  34.480  63.974  1.00  0.00    -0.307 N 
HETATM   31  C   UNL     1       4.069  34.161  65.510  1.00  0.00     0.032 A 
HETATM   32  C   UNL     1       1.962  34.408  62.582  1.00  0.00     0.325 A 
HETATM   33  H   UNL     1       1.375  34.704  64.611  1.00  0.00     0.170 HD
HETATM   34  O   UNL     1       0.934  34.595  61.956  1.00  0.00    -0.247 OA
HETATM   35  C   UNL     1       5.437  33.857  65.507  1.00  0.00     0.009 A 
HETATM   36  H   UNL     1       3.401  33.963  61.069  1.00  0.00     0.170 HD
ENDBRANCH  24  25
ENDBRANCH  23  24
ENDBRANCH  22  23
ENDBRANCH   2  22
TORSDOF 8
ENDMDL
MODEL 9
REMARK VINA RESULT:     -10.2      3.354     12.208
REMARK  8 active torsions:
REMARK  status: ('A' for Active; 'I' for Inactive)
REMARK    1  A    between atoms: C_2  and  O_3 
REMARK    2  A    between atoms: C_2  and  C_14 
REMARK    3  A    between atoms: O_3  and  C_4 
REMARK       I    between atoms: C_14  and  N_15 
REMARK    4  A    between atoms: N_15  and  N_16 
REMARK       I    between atoms: N_16  and  C_17 
REMARK    5  A    between atoms: C_17  and  C_18 
REMARK    6  A    between atoms: C_18  and  C_19 
REMARK    7  A    between atoms: C_19  and  C_20 
REMARK    8  A    between atoms: C_20  and  C_21 
ROOT
HETATM    1  N   UNL     1       4.838  28.706  57.519  1.00  0.00    -0.267 N 
HETATM    2  C   UNL     1       4.548  28.598  56.168  1.00  0.00     0.236 C 
HETATM    3  O   UNL     1       3.961  29.467  55.531  1.00  0.00    -0.272 OA
HETATM    4  H   UNL     1       5.613  28.158  57.894  1.00  0.00     0.190 HD
ENDROOT
BRANCH   1   5
HETATM    5  N   UNL     1       4.693  29.970  58.118  1.00  0.00    -0.265 N 
HETATM    6  C   UNL     1       5.852  30.709  58.307  1.00  0.00     0.265 C 
HETATM    7  O   UNL     1       6.966  30.238  58.072  1.00  0.00    -0.269 OA
HETATM    8  H   UNL     1       3.796  30.431  57.980  1.00  0.00     0.190 HD
BRANCH   6   9
HETATM    9  C   UNL     1       5.613  32.106  58.893  1.00  0.00     0.218 C 
HETATM   10  C   UNL     1       5.086  33.043  57.814  1.00  0.00     0.050 C 
BRANCH   9  11
HETATM   11  O   UNL     1       6.912  32.519  59.327  1.00  0.00    -0.337 OA
BRANCH  11  12
HETATM   12  C   UNL     1       7.172  32.640  60.660  1.00  0.00     0.070 A 
HETATM   13  C   UNL     1       6.214  33.377  61.366  1.00  0.00     0.049 A 
HETATM   14  C   UNL     1       6.326  33.586  62.749  1.00  0.00    -0.023 A 
HETATM   15  C   UNL     1       7.420  33.027  63.443  1.00  0.00    -0.026 A 
HETATM   16  C   UNL     1       5.373  34.338  63.457  1.00  0.00     0.012 A 
HETATM   17  C   UNL     1       8.370  32.278  62.728  1.00  0.00     0.015 A 
HETATM   18  C   UNL     1       7.530  33.230  64.829  1.00  0.00     0.012 A 
HETATM   19  C   UNL     1       8.248  32.087  61.346  1.00  0.00     0.037 A 
HETATM   20  C   UNL     1       6.576  33.981  65.518  1.00  0.00     0.001 A 
HETATM   21  C   UNL     1       5.500  34.536  64.833  1.00  0.00     0.001 A 
ENDBRANCH  11  12
ENDBRANCH   9  11
ENDBRANCH   6   9
ENDBRANCH   1   5
BRANCH   2  22
HETATM   22  C   UNL     1       4.997  27.265  55.597  1.00  0.00     0.105 C 
BRANCH  22  23
HETATM   23  C   UNL     1       6.422  27.273  55.051  1.00  0.00     0.014 C 
BRANCH  23  24
HETATM   24  C   UNL     1       7.335  26.292  55.792  1.00  0.00     0.039 C 
BRANCH  24  25
HETATM   25  C   UNL     1       7.526  25.020  54.997  1.00  0.00    -0.056 A 
HETATM   26  C   UNL     1       7.952  23.849  55.647  1.00  0.00     0.039 A 
HETATM   27  C   UNL     1       8.141  22.734  54.865  1.00  0.00     0.063 A 
HETATM   28  C   UNL     1       7.930  22.745  53.489  1.00  0.00     0.063 A 
HETATM   29  N   UNL     1       8.555  21.456  55.225  1.00  0.00    -0.306 N 
HETATM   30  N   UNL     1       8.215  21.475  53.000  1.00  0.00    -0.307 N 
HETATM   31  C   UNL     1       7.517  23.871  52.820  1.00  0.00     0.032 A 
HETATM   32  C   UNL     1       8.607  20.659  54.072  1.00  0.00     0.325 A 
HETATM   33  H   UNL     1       8.164  21.161  52.046  1.00  0.00     0.170 HD
HETATM   34  O   UNL     1       8.931  19.487  54.012  1.00  0.00    -0.247 OA
HETATM   35  C   UNL     1       7.315  25.022  53.592  1.00  0.00     0.009 A 
HETATM   36  H   UNL     1       8.789  21.129  56.146  1.00  0.00     0.170 HD
ENDBRANCH  24  25
ENDBRANCH  23  24
ENDBRANCH  22  23
ENDBRANCH   2  22
TORSDOF 8
ENDMDL
MODEL 10
REMARK VINA RESULT:     -10.1      2.172      3.226
REMARK  8 active torsions:
REMARK  status: ('A' for Active; 'I' for Inactive)
REMARK    1  A    between atoms: C_2  and  O_3 
REMARK    2  A    between atoms: C_2  and  C_14 
REMARK    3  A    between atoms: O_3  and  C_4 
REMARK       I    between atoms: C_14  and  N_15 
REMARK    4  A    between atoms: N_15  and  N_16 
REMARK       I    between atoms: N_16  and  C_17 
REMARK    5  A    between atoms: C_17  and  C_18 
REMARK    6  A    between atoms: C_18  and  C_19 
REMARK    7  A    between atoms: C_19  and  C_20 
REMARK    8  A    between atoms: C_20  and  C_21 
ROOT
HETATM    1  N   UNL     1       6.013  31.364  59.193  1.00  0.00    -0.267 N 
HETATM    2  C   UNL     1       4.967  32.095  59.733  1.00  0.00     0.236 C 
HETATM    3  O   UNL     1       3.869  32.203  59.196  1.00  0.00    -0.272 OA
HETATM    4  H   UNL     1       6.737  31.016  59.822  1.00  0.00     0.190 HD
ENDROOT
BRANCH   1   5
HETATM    5  N   UNL     1       5.718  30.495  58.127  1.00  0.00    -0.265 N 
HETATM    6  C   UNL     1       6.743  29.664  57.697  1.00  0.00     0.265 C 
HETATM    7  O   UNL     1       7.887  29.760  58.145  1.00  0.00    -0.269 OA
HETATM    8  H   UNL     1       4.744  30.216  58.032  1.00  0.00     0.190 HD
BRANCH   6   9
HETATM    9  C   UNL     1       6.332  28.690  56.586  1.00  0.00     0.218 C 
HETATM   10  C   UNL     1       5.026  27.997  56.954  1.00  0.00     0.050 C 
BRANCH   9  11
HETATM   11  O   UNL     1       7.408  27.747  56.545  1.00  0.00    -0.337 OA
BRANCH  11  12
HETATM   12  C   UNL     1       7.497  26.870  55.506  1.00  0.00     0.070 A 
HETATM   13  C   UNL     1       7.549  25.526  55.892  1.00  0.00     0.049 A 
HETATM   14  C   UNL     1       7.631  24.495  54.944  1.00  0.00    -0.023 A 
HETATM   15  C   UNL     1       7.646  24.823  53.572  1.00  0.00    -0.026 A 
HETATM   16  C   UNL     1       7.698  23.146  55.331  1.00  0.00     0.012 A 
HETATM   17  C   UNL     1       7.581  26.174  53.193  1.00  0.00     0.015 A 
HETATM   18  C   UNL     1       7.722  23.791  52.620  1.00  0.00     0.012 A 
HETATM   19  C   UNL     1       7.508  27.191  54.152  1.00  0.00     0.037 A 
HETATM   20  C   UNL     1       7.789  22.455  53.021  1.00  0.00     0.001 A 
HETATM   21  C   UNL     1       7.779  22.133  54.374  1.00  0.00     0.001 A 
ENDBRANCH  11  12
ENDBRANCH   9  11
ENDBRANCH   6   9
ENDBRANCH   1   5
BRANCH   2  22
HETATM   22  C   UNL     1       5.364  32.779  61.028  1.00  0.00     0.105 C 
BRANCH  22  23
HETATM   23  C   UNL     1       4.278  32.754  62.101  1.00  0.00     0.014 C 
BRANCH  23  24
HETATM   24  C   UNL     1       4.158  34.090  62.840  1.00  0.00     0.039 C 
BRANCH  24  25
HETATM   25  C   UNL     1       4.856  34.035  64.180  1.00  0.00    -0.056 A 
HETATM   26  C   UNL     1       4.110  34.189  65.361  1.00  0.00     0.039 A 
HETATM   27  C   UNL     1       4.805  34.165  66.547  1.00  0.00     0.063 A 
HETATM   28  C   UNL     1       6.188  34.001  66.596  1.00  0.00     0.063 A 
HETATM   29  N   UNL     1       4.343  34.293  67.852  1.00  0.00    -0.306 N 
HETATM   30  N   UNL     1       6.576  34.030  67.931  1.00  0.00    -0.307 N 
HETATM   31  C   UNL     1       6.949  33.851  65.463  1.00  0.00     0.032 A 
HETATM   32  C   UNL     1       5.435  34.213  68.727  1.00  0.00     0.325 A 
HETATM   33  H   UNL     1       7.508  33.943  68.299  1.00  0.00     0.170 HD
HETATM   34  O   UNL     1       5.402  34.287  69.942  1.00  0.00    -0.247 OA
HETATM   35  C   UNL     1       6.266  33.871  64.240  1.00  0.00     0.009 A 
HETATM   36  H   UNL     1       3.392  34.427  68.150  1.00  0.00     0.170 HD
ENDBRANCH  24  25
ENDBRANCH  23  24
ENDBRANCH  22  23
ENDBRANCH   2  22
TORSDOF 8
ENDMDL
