MODEL 1
REMARK VINA RESULT:     -10.3      0.000      0.000
REMARK  7 active torsions:
REMARK  status: ('A' for Active; 'I' for Inactive)
REMARK    1  A    between atoms: C_2  and  C_3 
REMARK    2  A    between atoms: N_21  and  N_23 
REMARK       I    between atoms: N_23  and  C_24 
REMARK    3  A    between atoms: C_24  and  C_25 
REMARK    4  A    between atoms: C_25  and  N_26 
REMARK    5  A    between atoms: C_25  and  C_34 
REMARK       I    between atoms: N_26  and  C_27 
REMARK    6  A    between atoms: C_27  and  O_28 
REMARK    7  A    between atoms: O_28  and  C_29 
ROOT
HETATM    1  C   UNL     1       4.111  26.956  49.075  1.00  0.00    -0.041 C 
HETATM    2  C   UNL     1       3.846  28.253  49.716  1.00  0.00     0.005 C 
HETATM    3  C   UNL     1       4.574  28.582  50.862  1.00  0.00     0.091 C 
HETATM    4  C   UNL     1       4.755  29.912  51.237  1.00  0.00     0.075 C 
HETATM    5  C   UNL     1       4.112  30.902  50.497  1.00  0.00     0.079 C 
HETATM    6  C   UNL     1       3.122  30.564  49.572  1.00  0.00    -0.024 C 
HETATM    7  C   UNL     1       2.251  31.621  48.947  1.00  0.00     0.044 C 
HETATM    8  C   UNL     1       2.665  33.019  49.396  1.00  0.00     0.043 C 
HETATM    9  C   UNL     1       4.192  33.090  49.571  1.00  0.00     0.068 C 
HETATM   10  C   UNL     1       4.937  32.749  48.247  1.00  0.00     0.038 C 
HETATM   11  C   UNL     1       6.448  32.922  48.348  1.00  0.00     0.003 C 
HETATM   12  C   UNL     1       6.802  34.339  48.768  1.00  0.00     0.000 C 
HETATM   13  C   UNL     1       6.115  34.710  50.078  1.00  0.00     0.003 C 
HETATM   14  C   UNL     1       4.596  34.515  50.010  1.00  0.00     0.038 C 
HETATM   15  O   UNL     1       4.551  32.193  50.658  1.00  0.00    -0.340 OA
HETATM   16  C   UNL     1       3.026  29.233  49.150  1.00  0.00     0.024 C 
HETATM   17  O   UNL     1       5.167  27.577  51.659  1.00  0.00    -0.292 OA
HETATM   18  C   UNL     1       5.187  26.301  51.153  1.00  0.00     0.163 C 
HETATM   19  N   UNL     1       5.602  25.384  51.944  1.00  0.00    -0.277 N 
HETATM   20  H   UNL     1       5.762  24.444  51.552  1.00  0.00     0.189 HD
HETATM   21  C   UNL     1       4.804  26.041  49.767  1.00  0.00     0.065 C 
ENDROOT
BRANCH  19  22
HETATM   22  N   UNL     1       5.699  25.480  53.344  1.00  0.00    -0.266 N 
HETATM   23  C   UNL     1       6.998  25.350  53.815  1.00  0.00     0.263 C 
HETATM   24  O   UNL     1       7.938  25.535  53.032  1.00  0.00    -0.269 OA
HETATM   25  H   UNL     1       4.878  25.234  53.895  1.00  0.00     0.190 HD
BRANCH  23  26
HETATM   26  C   UNL     1       7.204  24.736  55.215  1.00  0.00     0.214 C 
BRANCH  26  27
HETATM   27  N   UNL     1       8.017  25.624  56.034  1.00  0.00    -0.319 N 
HETATM   28  C   UNL     1       7.520  26.494  56.952  1.00  0.00     0.362 C 
HETATM   29  O   UNL     1       6.338  26.555  57.262  1.00  0.00    -0.238 OA
HETATM   30  H   UNL     1       8.995  25.752  55.803  1.00  0.00     0.166 HD
BRANCH  28  31
HETATM   31  O   UNL     1       8.530  27.233  57.449  1.00  0.00    -0.294 OA
BRANCH  31  32
HETATM   32  C   UNL     1       8.645  28.653  57.163  1.00  0.00     0.061 C 
HETATM   33  C   UNL     1       7.852  29.032  55.907  1.00  0.00     0.046 C 
HETATM   34  C   UNL     1       8.010  29.353  58.375  1.00  0.00     0.046 C 
HETATM   35  C   UNL     1      10.114  29.075  57.060  1.00  0.00     0.046 C 
ENDBRANCH  31  32
ENDBRANCH  28  31
ENDBRANCH  26  27
BRANCH  26  36
HETATM   36  C   UNL     1       7.618  23.280  55.243  1.00  0.00    -0.026 A 
HETATM   37  C   UNL     1       7.509  22.528  54.058  1.00  0.00     0.010 A 
HETATM   38  C   UNL     1       7.849  21.176  54.034  1.00  0.00     0.001 A 
HETATM   39  C   UNL     1       8.310  20.553  55.189  1.00  0.00     0.000 A 
HETATM   40  C   UNL     1       8.435  21.283  56.367  1.00  0.00     0.001 A 
HETATM   41  C   UNL     1       8.095  22.638  56.396  1.00  0.00     0.010 A 
ENDBRANCH  26  36
ENDBRANCH  23  26
ENDBRANCH  19  22
BRANCH   1  42
HETATM   42  C   UNL     1       3.809  26.760  47.606  1.00  0.00     0.035 C 
HETATM   43  C   UNL     1       2.882  25.589  47.330  1.00  0.00     0.010 C 
ENDBRANCH   1  42
TORSDOF 7
ENDMDL
MODEL 2
REMARK VINA RESULT:     -10.2      2.264      4.608
REMARK  7 active torsions:
REMARK  status: ('A' for Active; 'I' for Inactive)
REMARK    1  A    between atoms: C_2  and  C_3 
REMARK    2  A    between atoms: N_21  and  N_23 
REMARK       I    between atoms: N_23  and  C_24 
REMARK    3  A    between atoms: C_24  and  C_25 
REMARK    4  A    between atoms: C_25  and  N_26 
REMARK    5  A    between atoms: C_25  and  C_34 
REMARK       I    between atoms: N_26  and  C_27 
REMARK    6  A    between atoms: C_27  and  O_28 
REMARK    7  A    between atoms: O_28  and  C_29 
ROOT
HETATM    1  C   UNL     1       3.205  28.748  48.417  1.00  0.00    -0.041 C 
HETATM    2  C   UNL     1       3.907  29.915  48.973  1.00  0.00     0.005 C 
HETATM    3  C   UNL     1       5.213  29.737  49.439  1.00  0.00     0.091 C 
HETATM    4  C   UNL     1       6.097  30.812  49.516  1.00  0.00     0.075 C 
HETATM    5  C   UNL     1       5.621  32.085  49.209  1.00  0.00     0.079 C 
HETATM    6  C   UNL     1       4.250  32.314  49.076  1.00  0.00    -0.024 C 
HETATM    7  C   UNL     1       3.703  33.715  48.989  1.00  0.00     0.044 C 
HETATM    8  C   UNL     1       4.824  34.750  48.983  1.00  0.00     0.043 C 
HETATM    9  C   UNL     1       6.045  34.205  48.222  1.00  0.00     0.068 C 
HETATM   10  C   UNL     1       5.688  33.845  46.749  1.00  0.00     0.038 C 
HETATM   11  C   UNL     1       6.897  33.412  45.929  1.00  0.00     0.003 C 
HETATM   12  C   UNL     1       7.967  34.493  45.932  1.00  0.00     0.000 C 
HETATM   13  C   UNL     1       8.369  34.860  47.356  1.00  0.00     0.003 C 
HETATM   14  C   UNL     1       7.164  35.270  48.210  1.00  0.00     0.038 C 
HETATM   15  O   UNL     1       6.552  33.063  48.966  1.00  0.00    -0.340 OA
HETATM   16  C   UNL     1       3.400  31.216  48.911  1.00  0.00     0.024 C 
HETATM   17  O   UNL     1       5.680  28.460  49.822  1.00  0.00    -0.292 OA
HETATM   18  C   UNL     1       4.887  27.381  49.517  1.00  0.00     0.163 C 
HETATM   19  N   UNL     1       5.259  26.251  49.992  1.00  0.00    -0.277 N 
HETATM   20  H   UNL     1       4.768  25.406  49.665  1.00  0.00     0.189 HD
HETATM   21  C   UNL     1       3.720  27.533  48.649  1.00  0.00     0.065 C 
ENDROOT
BRANCH  19  22
HETATM   22  N   UNL     1       6.161  26.057  51.053  1.00  0.00    -0.266 N 
HETATM   23  C   UNL     1       5.601  25.397  52.137  1.00  0.00     0.263 C 
HETATM   24  O   UNL     1       4.566  24.740  51.966  1.00  0.00    -0.269 OA
HETATM   25  H   UNL     1       6.942  26.706  51.136  1.00  0.00     0.190 HD
BRANCH  23  26
HETATM   26  C   UNL     1       6.145  25.720  53.543  1.00  0.00     0.214 C 
BRANCH  26  27
HETATM   27  N   UNL     1       6.362  24.489  54.289  1.00  0.00    -0.319 N 
HETATM   28  C   UNL     1       7.359  23.601  54.035  1.00  0.00     0.362 C 
HETATM   29  O   UNL     1       8.244  23.789  53.212  1.00  0.00    -0.238 OA
HETATM   30  H   UNL     1       5.641  24.160  54.920  1.00  0.00     0.166 HD
BRANCH  28  31
HETATM   31  O   UNL     1       7.206  22.528  54.834  1.00  0.00    -0.294 OA
BRANCH  31  32
HETATM   32  C   UNL     1       8.084  21.374  54.735  1.00  0.00     0.061 C 
HETATM   33  C   UNL     1       9.548  21.772  54.955  1.00  0.00     0.046 C 
HETATM   34  C   UNL     1       7.649  20.448  55.881  1.00  0.00     0.046 C 
HETATM   35  C   UNL     1       7.883  20.644  53.404  1.00  0.00     0.046 C 
ENDBRANCH  31  32
ENDBRANCH  28  31
ENDBRANCH  26  27
BRANCH  26  36
HETATM   36  C   UNL     1       5.414  26.808  54.301  1.00  0.00    -0.026 A 
HETATM   37  C   UNL     1       5.544  26.854  55.702  1.00  0.00     0.010 A 
HETATM   38  C   UNL     1       4.870  27.817  56.453  1.00  0.00     0.001 A 
HETATM   39  C   UNL     1       4.060  28.753  55.819  1.00  0.00     0.000 A 
HETATM   40  C   UNL     1       3.928  28.730  54.434  1.00  0.00     0.001 A 
HETATM   41  C   UNL     1       4.601  27.767  53.678  1.00  0.00     0.010 A 
ENDBRANCH  26  36
ENDBRANCH  23  26
ENDBRANCH  19  22
BRANCH   1  42
HETATM   42  C   UNL     1       2.076  28.943  47.429  1.00  0.00     0.035 C 
HETATM   43  C   UNL     1       1.419  27.642  47.000  1.00  0.00     0.010 C 
ENDBRANCH   1  42
TORSDOF 7
ENDMDL
MODEL 3
REMARK VINA RESULT:      -9.9      2.141      4.060
REMARK  7 active torsions:
REMARK  status: ('A' for Active; 'I' for Inactive)
REMARK    1  A    between atoms: C_2  and  C_3 
REMARK    2  A    between atoms: N_21  and  N_23 
REMARK       I    between atoms: N_23  and  C_24 
REMARK    3  A    between atoms: C_24  and  C_25 
REMARK    4  A    between atoms: C_25  and  N_26 
REMARK    5  A    between atoms: C_25  and  C_34 
REMARK       I    between atoms: N_26  and  C_27 
REMARK    6  A    between atoms: C_27  and  O_28 
REMARK    7  A    between atoms: O_28  and  C_29 
ROOT
HETATM    1  C   UNL     1       3.381  30.591  54.533  1.00  0.00    -0.041 C 
HETATM    2  C   UNL     1       3.991  30.625  53.195  1.00  0.00     0.005 C 
HETATM    3  C   UNL     1       4.307  29.407  52.585  1.00  0.00     0.091 C 
HETATM    4  C   UNL     1       4.416  29.309  51.200  1.00  0.00     0.075 C 
HETATM    5  C   UNL     1       4.298  30.472  50.442  1.00  0.00     0.079 C 
HETATM    6  C   UNL     1       4.323  31.725  51.059  1.00  0.00    -0.024 C 
HETATM    7  C   UNL     1       4.443  32.987  50.247  1.00  0.00     0.044 C 
HETATM    8  C   UNL     1       4.443  32.688  48.750  1.00  0.00     0.043 C 
HETATM    9  C   UNL     1       3.512  31.500  48.447  1.00  0.00     0.068 C 
HETATM   10  C   UNL     1       2.050  31.787  48.901  1.00  0.00     0.038 C 
HETATM   11  C   UNL     1       1.075  30.683  48.512  1.00  0.00     0.003 C 
HETATM   12  C   UNL     1       1.094  30.450  47.010  1.00  0.00     0.000 C 
HETATM   13  C   UNL     1       2.505  30.137  46.522  1.00  0.00     0.003 C 
HETATM   14  C   UNL     1       3.510  31.220  46.928  1.00  0.00     0.038 C 
HETATM   15  O   UNL     1       4.075  30.326  49.095  1.00  0.00    -0.340 OA
HETATM   16  C   UNL     1       4.121  31.794  52.441  1.00  0.00     0.024 C 
HETATM   17  O   UNL     1       4.502  28.238  53.355  1.00  0.00    -0.292 OA
HETATM   18  C   UNL     1       4.158  28.293  54.683  1.00  0.00     0.163 C 
HETATM   19  N   UNL     1       4.468  27.273  55.392  1.00  0.00    -0.277 N 
HETATM   20  H   UNL     1       4.100  27.224  56.353  1.00  0.00     0.189 HD
HETATM   21  C   UNL     1       3.428  29.441  55.219  1.00  0.00     0.065 C 
ENDROOT
BRANCH  19  22
HETATM   22  N   UNL     1       5.410  26.285  55.052  1.00  0.00    -0.266 N 
HETATM   23  C   UNL     1       5.698  25.418  56.096  1.00  0.00     0.263 C 
HETATM   24  O   UNL     1       4.900  25.333  57.039  1.00  0.00    -0.269 OA
HETATM   25  H   UNL     1       6.067  26.494  54.302  1.00  0.00     0.190 HD
BRANCH  23  26
HETATM   26  C   UNL     1       7.108  24.798  56.157  1.00  0.00     0.214 C 
BRANCH  26  27
HETATM   27  N   UNL     1       8.113  25.849  56.227  1.00  0.00    -0.319 N 
HETATM   28  C   UNL     1       8.273  26.691  57.282  1.00  0.00     0.362 C 
HETATM   29  O   UNL     1       7.652  26.592  58.331  1.00  0.00    -0.238 OA
HETATM   30  H   UNL     1       8.616  26.109  55.387  1.00  0.00     0.166 HD
BRANCH  28  31
HETATM   31  O   UNL     1       9.213  27.605  56.976  1.00  0.00    -0.294 OA
BRANCH  31  32
HETATM   32  C   UNL     1       8.891  29.017  56.857  1.00  0.00     0.061 C 
HETATM   33  C   UNL     1       8.717  29.664  58.236  1.00  0.00     0.046 C 
HETATM   34  C   UNL     1      10.114  29.645  56.171  1.00  0.00     0.046 C 
HETATM   35  C   UNL     1       7.662  29.228  55.967  1.00  0.00     0.046 C 
ENDBRANCH  31  32
ENDBRANCH  28  31
ENDBRANCH  26  27
BRANCH  26  36
HETATM   36  C   UNL     1       7.394  23.706  55.148  1.00  0.00    -0.026 A 
HETATM   37  C   UNL     1       7.559  22.387  55.614  1.00  0.00     0.010 A 
HETATM   38  C   UNL     1       7.851  21.347  54.732  1.00  0.00     0.001 A 
HETATM   39  C   UNL     1       7.978  21.603  53.370  1.00  0.00     0.000 A 
HETATM   40  C   UNL     1       7.807  22.897  52.890  1.00  0.00     0.001 A 
HETATM   41  C   UNL     1       7.514  23.943  53.770  1.00  0.00     0.010 A 
ENDBRANCH  26  36
ENDBRANCH  23  26
ENDBRANCH  19  22
BRANCH   1  42
HETATM   42  C   UNL     1       2.534  31.750  55.009  1.00  0.00     0.035 C 
HETATM   43  C   UNL     1       3.156  32.521  56.160  1.00  0.00     0.010 C 
ENDBRANCH   1  42
TORSDOF 7
ENDMDL
MODEL 4
REMARK VINA RESULT:      -9.9      1.707      2.647
REMARK  7 active torsions:
REMARK  status: ('A' for Active; 'I' for Inactive)
REMARK    1  A    between atoms: C_2  and  C_3 
REMARK    2  A    between atoms: N_21  and  N_23 
REMARK       I    between atoms: N_23  and  C_24 
REMARK    3  A    between atoms: C_24  and  C_25 
REMARK    4  A    between atoms: C_25  and  N_26 
REMARK    5  A    between atoms: C_25  and  C_34 
REMARK       I    between atoms: N_26  and  C_27 
REMARK    6  A    between atoms: C_27  and  O_28 
REMARK    7  A    between atoms: O_28  and  C_29 
ROOT
HETATM    1  C   UNL     1       2.617  29.510  49.531  1.00  0.00    -0.041 C 
HETATM    2  C   UNL     1       3.617  30.551  49.811  1.00  0.00     0.005 C 
HETATM    3  C   UNL     1       4.945  30.156  49.989  1.00  0.00     0.091 C 
HETATM    4  C   UNL     1       5.992  31.051  49.772  1.00  0.00     0.075 C 
HETATM    5  C   UNL     1       5.680  32.374  49.467  1.00  0.00     0.079 C 
HETATM    6  C   UNL     1       4.376  32.847  49.621  1.00  0.00    -0.024 C 
HETATM    7  C   UNL     1       4.069  34.319  49.534  1.00  0.00     0.044 C 
HETATM    8  C   UNL     1       5.317  35.127  49.187  1.00  0.00     0.043 C 
HETATM    9  C   UNL     1       6.215  34.329  48.225  1.00  0.00     0.068 C 
HETATM   10  C   UNL     1       5.467  33.972  46.906  1.00  0.00     0.038 C 
HETATM   11  C   UNL     1       6.359  33.284  45.880  1.00  0.00     0.003 C 
HETATM   12  C   UNL     1       7.566  34.146  45.550  1.00  0.00     0.000 C 
HETATM   13  C   UNL     1       8.348  34.500  46.810  1.00  0.00     0.003 C 
HETATM   14  C   UNL     1       7.464  35.166  47.871  1.00  0.00     0.038 C 
HETATM   15  O   UNL     1       6.681  33.150  48.936  1.00  0.00    -0.340 OA
HETATM   16  C   UNL     1       3.337  31.919  49.747  1.00  0.00     0.024 C 
HETATM   17  O   UNL     1       5.266  28.835  50.372  1.00  0.00    -0.292 OA
HETATM   18  C   UNL     1       4.252  27.908  50.347  1.00  0.00     0.163 C 
HETATM   19  N   UNL     1       4.527  26.753  50.827  1.00  0.00    -0.277 N 
HETATM   20  H   UNL     1       3.838  25.999  50.694  1.00  0.00     0.189 HD
HETATM   21  C   UNL     1       2.958  28.232  49.750  1.00  0.00     0.065 C 
ENDROOT
BRANCH  19  22
HETATM   22  N   UNL     1       5.607  26.445  51.674  1.00  0.00    -0.266 N 
HETATM   23  C   UNL     1       5.425  25.272  52.392  1.00  0.00     0.263 C 
HETATM   24  O   UNL     1       4.590  24.450  51.992  1.00  0.00    -0.269 OA
HETATM   25  H   UNL     1       6.189  27.215  52.000  1.00  0.00     0.190 HD
BRANCH  23  26
HETATM   26  C   UNL     1       6.081  25.164  53.784  1.00  0.00     0.214 C 
BRANCH  26  27
HETATM   27  N   UNL     1       6.731  26.420  54.129  1.00  0.00    -0.319 N 
HETATM   28  C   UNL     1       6.287  27.279  55.083  1.00  0.00     0.362 C 
HETATM   29  O   UNL     1       5.345  27.041  55.828  1.00  0.00    -0.238 OA
HETATM   30  H   UNL     1       7.451  26.788  53.519  1.00  0.00     0.166 HD
BRANCH  28  31
HETATM   31  O   UNL     1       7.052  28.386  55.070  1.00  0.00    -0.294 OA
BRANCH  31  32
HETATM   32  C   UNL     1       7.957  28.700  56.163  1.00  0.00     0.061 C 
HETATM   33  C   UNL     1       9.261  29.316  55.643  1.00  0.00     0.046 C 
HETATM   34  C   UNL     1       7.215  29.754  57.000  1.00  0.00     0.046 C 
HETATM   35  C   UNL     1       8.214  27.467  57.034  1.00  0.00     0.046 C 
ENDBRANCH  31  32
ENDBRANCH  28  31
ENDBRANCH  26  27
BRANCH  26  36
HETATM   36  C   UNL     1       6.915  23.924  54.026  1.00  0.00    -0.026 A 
HETATM   37  C   UNL     1       7.106  23.492  55.353  1.00  0.00     0.010 A 
HETATM   38  C   UNL     1       7.888  22.372  55.636  1.00  0.00     0.001 A 
HETATM   39  C   UNL     1       8.488  21.662  54.601  1.00  0.00     0.000 A 
HETATM   40  C   UNL     1       8.302  22.068  53.283  1.00  0.00     0.001 A 
HETATM   41  C   UNL     1       7.519  23.188  52.994  1.00  0.00     0.010 A 
ENDBRANCH  26  36
ENDBRANCH  23  26
ENDBRANCH  19  22
BRANCH   1  42
HETATM   42  C   UNL     1       1.337  29.863  48.805  1.00  0.00     0.035 C 
HETATM   43  C   UNL     1       1.359  29.499  47.330  1.00  0.00     0.010 C 
ENDBRANCH   1  42
TORSDOF 7
ENDMDL
MODEL 5
REMARK VINA RESULT:      -9.4      3.007      9.163
REMARK  7 active torsions:
REMARK  status: ('A' for Active; 'I' for Inactive)
REMARK    1  A    between atoms: C_2  and  C_3 
REMARK    2  A    between atoms: N_21  and  N_23 
REMARK       I    between atoms: N_23  and  C_24 
REMARK    3  A    between atoms: C_24  and  C_25 
REMARK    4  A    between atoms: C_25  and  N_26 
REMARK    5  A    between atoms: C_25  and  C_34 
REMARK       I    between atoms: N_26  and  C_27 
REMARK    6  A    between atoms: C_27  and  O_28 
REMARK    7  A    between atoms: O_28  and  C_29 
ROOT
HETATM    1  C   UNL     1       7.774  26.617  56.638  1.00  0.00    -0.041 C 
HETATM    2  C   UNL     1       7.967  28.063  56.827  1.00  0.00     0.005 C 
HETATM    3  C   UNL     1       6.843  28.891  56.760  1.00  0.00     0.091 C 
HETATM    4  C   UNL     1       6.835  30.136  57.386  1.00  0.00     0.075 C 
HETATM    5  C   UNL     1       8.005  30.578  57.998  1.00  0.00     0.079 C 
HETATM    6  C   UNL     1       9.214  29.914  57.777  1.00  0.00    -0.024 C 
HETATM    7  C   UNL     1      10.521  30.512  58.226  1.00  0.00     0.044 C 
HETATM    8  C   UNL     1      10.303  31.820  58.982  1.00  0.00     0.043 C 
HETATM    9  C   UNL     1       9.009  31.744  59.811  1.00  0.00     0.068 C 
HETATM   10  C   UNL     1       9.053  30.573  60.837  1.00  0.00     0.038 C 
HETATM   11  C   UNL     1       7.839  30.537  61.757  1.00  0.00     0.003 C 
HETATM   12  C   UNL     1       7.690  31.852  62.506  1.00  0.00     0.000 C 
HETATM   13  C   UNL     1       7.615  33.028  61.539  1.00  0.00     0.003 C 
HETATM   14  C   UNL     1       8.812  33.068  60.582  1.00  0.00     0.038 C 
HETATM   15  O   UNL     1       7.899  31.625  58.879  1.00  0.00    -0.340 OA
HETATM   16  C   UNL     1       9.181  28.627  57.229  1.00  0.00     0.024 C 
HETATM   17  O   UNL     1       5.677  28.479  56.077  1.00  0.00    -0.292 OA
HETATM   18  C   UNL     1       5.611  27.168  55.676  1.00  0.00     0.163 C 
HETATM   19  N   UNL     1       4.612  26.849  54.941  1.00  0.00    -0.277 N 
HETATM   20  H   UNL     1       4.459  25.849  54.743  1.00  0.00     0.189 HD
HETATM   21  C   UNL     1       6.609  26.198  56.125  1.00  0.00     0.065 C 
ENDROOT
BRANCH  19  22
HETATM   22  N   UNL     1       3.793  27.741  54.226  1.00  0.00    -0.266 N 
HETATM   23  C   UNL     1       4.104  27.810  52.876  1.00  0.00     0.263 C 
HETATM   24  O   UNL     1       4.751  26.887  52.364  1.00  0.00    -0.269 OA
HETATM   25  H   UNL     1       3.366  28.509  54.741  1.00  0.00     0.190 HD
BRANCH  23  26
HETATM   26  C   UNL     1       3.852  29.142  52.140  1.00  0.00     0.214 C 
BRANCH  26  27
HETATM   27  N   UNL     1       3.159  30.074  53.018  1.00  0.00    -0.319 N 
HETATM   28  C   UNL     1       3.374  31.416  53.041  1.00  0.00     0.362 C 
HETATM   29  O   UNL     1       4.106  32.000  52.253  1.00  0.00    -0.238 OA
HETATM   30  H   UNL     1       2.612  29.712  53.790  1.00  0.00     0.166 HD
BRANCH  28  31
HETATM   31  O   UNL     1       2.653  31.960  54.037  1.00  0.00    -0.294 OA
BRANCH  31  32
HETATM   32  C   UNL     1       3.227  32.199  55.351  1.00  0.00     0.061 C 
HETATM   33  C   UNL     1       4.734  32.463  55.256  1.00  0.00     0.046 C 
HETATM   34  C   UNL     1       2.536  33.474  55.859  1.00  0.00     0.046 C 
HETATM   35  C   UNL     1       2.907  31.048  56.308  1.00  0.00     0.046 C 
ENDBRANCH  31  32
ENDBRANCH  28  31
ENDBRANCH  26  27
BRANCH  26  36
HETATM   36  C   UNL     1       3.275  29.028  50.745  1.00  0.00    -0.026 A 
HETATM   37  C   UNL     1       4.164  28.945  49.656  1.00  0.00     0.010 A 
HETATM   38  C   UNL     1       3.688  28.866  48.347  1.00  0.00     0.001 A 
HETATM   39  C   UNL     1       2.318  28.863  48.104  1.00  0.00     0.000 A 
HETATM   40  C   UNL     1       1.424  28.932  49.168  1.00  0.00     0.001 A 
HETATM   41  C   UNL     1       1.897  29.011  50.480  1.00  0.00     0.010 A 
ENDBRANCH  26  36
ENDBRANCH  23  26
ENDBRANCH  19  22
BRANCH   1  42
HETATM   42  C   UNL     1       8.769  25.637  57.219  1.00  0.00     0.035 C 
HETATM   43  C   UNL     1       8.699  24.258  56.585  1.00  0.00     0.010 C 
ENDBRANCH   1  42
TORSDOF 7
ENDMDL
MODEL 6
REMARK VINA RESULT:      -9.4      2.216      4.830
REMARK  7 active torsions:
REMARK  status: ('A' for Active; 'I' for Inactive)
REMARK    1  A    between atoms: C_2  and  C_3 
REMARK    2  A    between atoms: N_21  and  N_23 
REMARK       I    between atoms: N_23  and  C_24 
REMARK    3  A    between atoms: C_24  and  C_25 
REMARK    4  A    between atoms: C_25  and  N_26 
REMARK    5  A    between atoms: C_25  and  C_34 
REMARK       I    between atoms: N_26  and  C_27 
REMARK    6  A    between atoms: C_27  and  O_28 
REMARK    7  A    between atoms: O_28  and  C_29 
ROOT
HETATM    1  C   UNL     1       2.654  30.254  50.537  1.00  0.00    -0.041 C 
HETATM    2  C   UNL     1       3.846  31.110  50.434  1.00  0.00     0.005 C 
HETATM    3  C   UNL     1       5.078  30.495  50.198  1.00  0.00     0.091 C 
HETATM    4  C   UNL     1       6.130  31.200  49.617  1.00  0.00     0.075 C 
HETATM    5  C   UNL     1       5.956  32.559  49.364  1.00  0.00     0.079 C 
HETATM    6  C   UNL     1       4.865  33.246  49.903  1.00  0.00    -0.024 C 
HETATM    7  C   UNL     1       4.790  34.749  49.848  1.00  0.00     0.044 C 
HETATM    8  C   UNL     1       5.974  35.336  49.084  1.00  0.00     0.043 C 
HETATM    9  C   UNL     1       6.372  34.405  47.925  1.00  0.00     0.068 C 
HETATM   10  C   UNL     1       5.192  34.189  46.932  1.00  0.00     0.038 C 
HETATM   11  C   UNL     1       5.582  33.368  45.709  1.00  0.00     0.003 C 
HETATM   12  C   UNL     1       6.742  34.016  44.971  1.00  0.00     0.000 C 
HETATM   13  C   UNL     1       7.934  34.223  45.899  1.00  0.00     0.003 C 
HETATM   14  C   UNL     1       7.559  35.021  47.152  1.00  0.00     0.038 C 
HETATM   15  O   UNL     1       6.845  33.159  48.507  1.00  0.00    -0.340 OA
HETATM   16  C   UNL     1       3.786  32.505  50.398  1.00  0.00     0.024 C 
HETATM   17  O   UNL     1       5.286  29.135  50.522  1.00  0.00    -0.292 OA
HETATM   18  C   UNL     1       4.182  28.394  50.865  1.00  0.00     0.163 C 
HETATM   19  N   UNL     1       4.405  27.205  51.286  1.00  0.00    -0.277 N 
HETATM   20  H   UNL     1       3.597  26.579  51.416  1.00  0.00     0.189 HD
HETATM   21  C   UNL     1       2.835  28.936  50.697  1.00  0.00     0.065 C 
ENDROOT
BRANCH  19  22
HETATM   22  N   UNL     1       5.635  26.713  51.759  1.00  0.00    -0.266 N 
HETATM   23  C   UNL     1       5.498  25.768  52.766  1.00  0.00     0.263 C 
HETATM   24  O   UNL     1       4.413  25.188  52.897  1.00  0.00    -0.269 OA
HETATM   25  H   UNL     1       6.454  27.310  51.661  1.00  0.00     0.190 HD
BRANCH  23  26
HETATM   26  C   UNL     1       6.613  25.672  53.827  1.00  0.00     0.214 C 
BRANCH  26  27
HETATM   27  N   UNL     1       6.761  24.294  54.273  1.00  0.00    -0.319 N 
HETATM   28  C   UNL     1       7.372  23.314  53.555  1.00  0.00     0.362 C 
HETATM   29  O   UNL     1       7.953  23.509  52.497  1.00  0.00    -0.238 OA
HETATM   30  H   UNL     1       6.232  23.975  55.076  1.00  0.00     0.166 HD
BRANCH  28  31
HETATM   31  O   UNL     1       7.237  22.144  54.206  1.00  0.00    -0.294 OA
BRANCH  31  32
HETATM   32  C   UNL     1       8.382  21.296  54.492  1.00  0.00     0.061 C 
HETATM   33  C   UNL     1       9.589  22.128  54.942  1.00  0.00     0.046 C 
HETATM   34  C   UNL     1       7.934  20.408  55.663  1.00  0.00     0.046 C 
HETATM   35  C   UNL     1       8.719  20.404  53.294  1.00  0.00     0.046 C 
ENDBRANCH  31  32
ENDBRANCH  28  31
ENDBRANCH  26  27
BRANCH  26  36
HETATM   36  C   UNL     1       6.560  26.701  54.937  1.00  0.00    -0.026 A 
HETATM   37  C   UNL     1       7.491  27.757  54.917  1.00  0.00     0.010 A 
HETATM   38  C   UNL     1       7.506  28.718  55.929  1.00  0.00     0.001 A 
HETATM   39  C   UNL     1       6.589  28.644  56.973  1.00  0.00     0.000 A 
HETATM   40  C   UNL     1       5.654  27.614  57.003  1.00  0.00     0.001 A 
HETATM   41  C   UNL     1       5.636  26.649  55.991  1.00  0.00     0.010 A 
ENDBRANCH  26  36
ENDBRANCH  23  26
ENDBRANCH  19  22
BRANCH   1  42
HETATM   42  C   UNL     1       1.284  30.824  50.240  1.00  0.00     0.035 C 
HETATM   43  C   UNL     1       0.946  30.844  48.759  1.00  0.00     0.010 C 
ENDBRANCH   1  42
TORSDOF 7
ENDMDL
MODEL 7
REMARK VINA RESULT:      -9.2      4.035      9.066
REMARK  7 active torsions:
REMARK  status: ('A' for Active; 'I' for Inactive)
REMARK    1  A    between atoms: C_2  and  C_3 
REMARK    2  A    between atoms: N_21  and  N_23 
REMARK       I    between atoms: N_23  and  C_24 
REMARK    3  A    between atoms: C_24  and  C_25 
REMARK    4  A    between atoms: C_25  and  N_26 
REMARK    5  A    between atoms: C_25  and  C_34 
REMARK       I    between atoms: N_26  and  C_27 
REMARK    6  A    between atoms: C_27  and  O_28 
REMARK    7  A    between atoms: O_28  and  C_29 
ROOT
HETATM    1  C   UNL     1       5.039  26.787  53.923  1.00  0.00    -0.041 C 
HETATM    2  C   UNL     1       6.292  26.161  54.370  1.00  0.00     0.005 C 
HETATM    3  C   UNL     1       6.550  26.112  55.743  1.00  0.00     0.091 C 
HETATM    4  C   UNL     1       7.410  25.155  56.276  1.00  0.00     0.075 C 
HETATM    5  C   UNL     1       8.083  24.307  55.398  1.00  0.00     0.079 C 
HETATM    6  C   UNL     1       8.092  24.571  54.027  1.00  0.00    -0.024 C 
HETATM    7  C   UNL     1       9.006  23.817  53.098  1.00  0.00     0.044 C 
HETATM    8  C   UNL     1       9.791  22.741  53.843  1.00  0.00     0.043 C 
HETATM    9  C   UNL     1       8.925  22.128  54.958  1.00  0.00     0.068 C 
HETATM   10  C   UNL     1       7.622  21.492  54.387  1.00  0.00     0.038 C 
HETATM   11  C   UNL     1       6.795  20.772  55.445  1.00  0.00     0.003 C 
HETATM   12  C   UNL     1       7.617  19.693  56.131  1.00  0.00     0.000 C 
HETATM   13  C   UNL     1       8.893  20.275  56.731  1.00  0.00     0.003 C 
HETATM   14  C   UNL     1       9.727  21.031  55.691  1.00  0.00     0.038 C 
HETATM   15  O   UNL     1       8.653  23.176  55.928  1.00  0.00    -0.340 OA
HETATM   16  C   UNL     1       7.154  25.472  53.512  1.00  0.00     0.024 C 
HETATM   17  O   UNL     1       5.927  27.018  56.631  1.00  0.00    -0.292 OA
HETATM   18  C   UNL     1       4.908  27.791  56.132  1.00  0.00     0.163 C 
HETATM   19  N   UNL     1       4.451  28.699  56.911  1.00  0.00    -0.277 N 
HETATM   20  H   UNL     1       3.597  29.198  56.620  1.00  0.00     0.189 HD
HETATM   21  C   UNL     1       4.357  27.533  54.803  1.00  0.00     0.065 C 
ENDROOT
BRANCH  19  22
HETATM   22  N   UNL     1       5.094  29.211  58.052  1.00  0.00    -0.266 N 
HETATM   23  C   UNL     1       6.018  30.205  57.762  1.00  0.00     0.263 C 
HETATM   24  O   UNL     1       5.941  30.794  56.676  1.00  0.00    -0.269 OA
HETATM   25  H   UNL     1       5.161  28.608  58.870  1.00  0.00     0.190 HD
BRANCH  23  26
HETATM   26  C   UNL     1       7.241  30.351  58.689  1.00  0.00     0.214 C 
BRANCH  26  27
HETATM   27  N   UNL     1       7.124  31.567  59.483  1.00  0.00    -0.319 N 
HETATM   28  C   UNL     1       7.543  31.689  60.769  1.00  0.00     0.362 C 
HETATM   29  O   UNL     1       8.157  30.817  61.371  1.00  0.00    -0.238 OA
HETATM   30  H   UNL     1       6.541  32.323  59.145  1.00  0.00     0.166 HD
BRANCH  28  31
HETATM   31  O   UNL     1       7.187  32.900  61.235  1.00  0.00    -0.294 OA
BRANCH  31  32
HETATM   32  C   UNL     1       6.555  33.062  62.533  1.00  0.00     0.061 C 
HETATM   33  C   UNL     1       7.587  32.993  63.664  1.00  0.00     0.046 C 
HETATM   34  C   UNL     1       5.950  34.474  62.505  1.00  0.00     0.046 C 
HETATM   35  C   UNL     1       5.427  32.044  62.725  1.00  0.00     0.046 C 
ENDBRANCH  31  32
ENDBRANCH  28  31
ENDBRANCH  26  27
BRANCH  26  36
HETATM   36  C   UNL     1       8.592  30.139  58.039  1.00  0.00    -0.026 A 
HETATM   37  C   UNL     1       8.795  28.972  57.278  1.00  0.00     0.010 A 
HETATM   38  C   UNL     1      10.028  28.711  56.680  1.00  0.00     0.001 A 
HETATM   39  C   UNL     1      11.077  29.613  56.827  1.00  0.00     0.000 A 
HETATM   40  C   UNL     1      10.892  30.777  57.566  1.00  0.00     0.001 A 
HETATM   41  C   UNL     1       9.659  31.042  58.167  1.00  0.00     0.010 A 
ENDBRANCH  26  36
ENDBRANCH  23  26
ENDBRANCH  19  22
BRANCH   1  42
HETATM   42  C   UNL     1       4.437  26.407  52.588  1.00  0.00     0.035 C 
HETATM   43  C   UNL     1       4.650  27.454  51.508  1.00  0.00     0.010 C 
ENDBRANCH   1  42
TORSDOF 7
ENDMDL
MODEL 8
REMARK VINA RESULT:      -8.9      3.058      6.159
REMARK  7 active torsions:
REMARK  status: ('A' for Active; 'I' for Inactive)
REMARK    1  A    between atoms: C_2  and  C_3 
REMARK    2  A    between atoms: N_21  and  N_23 
REMARK       I    between atoms: N_23  and  C_24 
REMARK    3  A    between atoms: C_24  and  C_25 
REMARK    4  A    between atoms: C_25  and  N_26 
REMARK    5  A    between atoms: C_25  and  C_34 
REMARK       I    between atoms: N_26  and  C_27 
REMARK    6  A    between atoms: C_27  and  O_28 
REMARK    7  A    between atoms: O_28  and  C_29 
ROOT
HETATM    1  C   UNL     1       4.961  31.204  57.251  1.00  0.00    -0.041 C 
HETATM    2  C   UNL     1       4.683  31.476  55.833  1.00  0.00     0.005 C 
HETATM    3  C   UNL     1       4.138  30.446  55.060  1.00  0.00     0.091 C 
HETATM    4  C   UNL     1       3.411  30.728  53.905  1.00  0.00     0.075 C 
HETATM    5  C   UNL     1       3.321  32.053  53.485  1.00  0.00     0.079 C 
HETATM    6  C   UNL     1       4.138  33.033  54.055  1.00  0.00    -0.024 C 
HETATM    7  C   UNL     1       4.232  34.410  53.453  1.00  0.00     0.044 C 
HETATM    8  C   UNL     1       3.289  34.562  52.263  1.00  0.00     0.043 C 
HETATM    9  C   UNL     1       1.995  33.766  52.507  1.00  0.00     0.068 C 
HETATM   10  C   UNL     1       1.259  34.246  53.792  1.00  0.00     0.038 C 
HETATM   11  C   UNL     1      -0.086  33.562  54.004  1.00  0.00     0.003 C 
HETATM   12  C   UNL     1      -0.993  33.773  52.803  1.00  0.00     0.000 C 
HETATM   13  C   UNL     1      -0.325  33.291  51.520  1.00  0.00     0.003 C 
HETATM   14  C   UNL     1       1.045  33.943  51.301  1.00  0.00     0.038 C 
HETATM   15  O   UNL     1       2.351  32.357  52.563  1.00  0.00    -0.340 OA
HETATM   16  C   UNL     1       4.783  32.747  55.263  1.00  0.00     0.024 C 
HETATM   17  O   UNL     1       4.289  29.094  55.441  1.00  0.00    -0.292 OA
HETATM   18  C   UNL     1       4.792  28.844  56.694  1.00  0.00     0.163 C 
HETATM   19  N   UNL     1       5.050  27.620  56.968  1.00  0.00    -0.277 N 
HETATM   20  H   UNL     1       5.293  27.385  57.942  1.00  0.00     0.189 HD
HETATM   21  C   UNL     1       4.962  29.928  57.661  1.00  0.00     0.065 C 
ENDROOT
BRANCH  19  22
HETATM   22  N   UNL     1       5.206  26.579  56.036  1.00  0.00    -0.266 N 
HETATM   23  C   UNL     1       6.524  26.375  55.655  1.00  0.00     0.263 C 
HETATM   24  O   UNL     1       7.429  26.811  56.379  1.00  0.00    -0.269 OA
HETATM   25  H   UNL     1       4.411  26.353  55.440  1.00  0.00     0.190 HD
BRANCH  23  26
HETATM   26  C   UNL     1       6.795  25.846  54.232  1.00  0.00     0.214 C 
BRANCH  26  27
HETATM   27  N   UNL     1       5.742  26.284  53.327  1.00  0.00    -0.319 N 
HETATM   28  C   UNL     1       5.639  27.540  52.817  1.00  0.00     0.362 C 
HETATM   29  O   UNL     1       6.479  28.413  52.986  1.00  0.00    -0.238 OA
HETATM   30  H   UNL     1       4.928  25.696  53.195  1.00  0.00     0.166 HD
BRANCH  28  31
HETATM   31  O   UNL     1       4.498  27.635  52.110  1.00  0.00    -0.294 OA
BRANCH  31  32
HETATM   32  C   UNL     1       4.506  27.956  50.693  1.00  0.00     0.061 C 
HETATM   33  C   UNL     1       5.544  29.037  50.375  1.00  0.00     0.046 C 
HETATM   34  C   UNL     1       4.924  26.652  49.994  1.00  0.00     0.046 C 
HETATM   35  C   UNL     1       3.106  28.348  50.211  1.00  0.00     0.046 C 
ENDBRANCH  31  32
ENDBRANCH  28  31
ENDBRANCH  26  27
BRANCH  26  36
HETATM   36  C   UNL     1       7.157  24.379  54.130  1.00  0.00    -0.026 A 
HETATM   37  C   UNL     1       7.161  23.606  55.307  1.00  0.00     0.010 A 
HETATM   38  C   UNL     1       7.513  22.256  55.277  1.00  0.00     0.001 A 
HETATM   39  C   UNL     1       7.862  21.655  54.072  1.00  0.00     0.000 A 
HETATM   40  C   UNL     1       7.853  22.400  52.897  1.00  0.00     0.001 A 
HETATM   41  C   UNL     1       7.500  23.752  52.923  1.00  0.00     0.010 A 
ENDBRANCH  26  36
ENDBRANCH  23  26
ENDBRANCH  19  22
BRANCH   1  42
HETATM   42  C   UNL     1       5.013  32.343  58.246  1.00  0.00     0.035 C 
HETATM   43  C   UNL     1       3.647  32.925  58.569  1.00  0.00     0.010 C 
ENDBRANCH   1  42
TORSDOF 7
ENDMDL
MODEL 9
REMARK VINA RESULT:      -8.8      5.117      8.103
REMARK  7 active torsions:
REMARK  status: ('A' for Active; 'I' for Inactive)
REMARK    1  A    between atoms: C_2  and  C_3 
REMARK    2  A    between atoms: N_21  and  N_23 
REMARK       I    between atoms: N_23  and  C_24 
REMARK    3  A    between atoms: C_24  and  C_25 
REMARK    4  A    between atoms: C_25  and  N_26 
REMARK    5  A    between atoms: C_25  and  C_34 
REMARK       I    between atoms: N_26  and  C_27 
REMARK    6  A    between atoms: C_27  and  O_28 
REMARK    7  A    between atoms: O_28  and  C_29 
ROOT
HETATM    1  C   UNL     1       5.560  28.087  55.247  1.00  0.00    -0.041 C 
HETATM    2  C   UNL     1       4.586  28.885  54.488  1.00  0.00     0.005 C 
HETATM    3  C   UNL     1       4.402  30.221  54.855  1.00  0.00     0.091 C 
HETATM    4  C   UNL     1       3.908  31.152  53.943  1.00  0.00     0.075 C 
HETATM    5  C   UNL     1       3.510  30.701  52.686  1.00  0.00     0.079 C 
HETATM    6  C   UNL     1       3.374  29.334  52.435  1.00  0.00    -0.024 C 
HETATM    7  C   UNL     1       2.716  28.838  51.174  1.00  0.00     0.044 C 
HETATM    8  C   UNL     1       2.338  29.995  50.253  1.00  0.00     0.043 C 
HETATM    9  C   UNL     1       3.390  31.115  50.348  1.00  0.00     0.068 C 
HETATM   10  C   UNL     1       4.807  30.604  49.953  1.00  0.00     0.038 C 
HETATM   11  C   UNL     1       5.854  31.710  49.921  1.00  0.00     0.003 C 
HETATM   12  C   UNL     1       5.440  32.818  48.966  1.00  0.00     0.000 C 
HETATM   13  C   UNL     1       4.065  33.370  49.330  1.00  0.00     0.003 C 
HETATM   14  C   UNL     1       3.001  32.270  49.399  1.00  0.00     0.038 C 
HETATM   15  O   UNL     1       3.346  31.644  51.702  1.00  0.00    -0.340 OA
HETATM   16  C   UNL     1       3.960  28.428  53.325  1.00  0.00     0.024 C 
HETATM   17  O   UNL     1       4.734  30.670  56.153  1.00  0.00    -0.292 OA
HETATM   18  C   UNL     1       5.438  29.809  56.957  1.00  0.00     0.163 C 
HETATM   19  N   UNL     1       5.609  30.178  58.171  1.00  0.00    -0.277 N 
HETATM   20  H   UNL     1       6.250  29.624  58.758  1.00  0.00     0.189 HD
HETATM   21  C   UNL     1       5.999  28.572  56.417  1.00  0.00     0.065 C 
ENDROOT
BRANCH  19  22
HETATM   22  N   UNL     1       4.874  31.169  58.846  1.00  0.00    -0.266 N 
HETATM   23  C   UNL     1       5.663  32.195  59.344  1.00  0.00     0.263 C 
HETATM   24  O   UNL     1       6.796  32.360  58.873  1.00  0.00    -0.269 OA
HETATM   25  H   UNL     1       3.982  30.900  59.258  1.00  0.00     0.190 HD
BRANCH  23  26
HETATM   26  C   UNL     1       5.196  32.913  60.627  1.00  0.00     0.214 C 
BRANCH  26  27
HETATM   27  N   UNL     1       4.687  34.238  60.300  1.00  0.00    -0.319 N 
HETATM   28  C   UNL     1       3.513  34.474  59.657  1.00  0.00     0.362 C 
HETATM   29  O   UNL     1       2.707  33.600  59.370  1.00  0.00    -0.238 OA
HETATM   30  H   UNL     1       5.303  35.038  60.383  1.00  0.00     0.166 HD
BRANCH  28  31
HETATM   31  O   UNL     1       3.401  35.794  59.419  1.00  0.00    -0.294 OA
BRANCH  31  32
HETATM   32  C   UNL     1       3.672  36.357  58.107  1.00  0.00     0.061 C 
HETATM   33  C   UNL     1       4.476  35.380  57.241  1.00  0.00     0.046 C 
HETATM   34  C   UNL     1       2.288  36.555  57.469  1.00  0.00     0.046 C 
HETATM   35  C   UNL     1       4.362  37.718  58.226  1.00  0.00     0.046 C 
ENDBRANCH  31  32
ENDBRANCH  28  31
ENDBRANCH  26  27
BRANCH  26  36
HETATM   36  C   UNL     1       6.156  32.866  61.797  1.00  0.00    -0.026 A 
HETATM   37  C   UNL     1       6.038  33.847  62.801  1.00  0.00     0.010 A 
HETATM   38  C   UNL     1       6.914  33.869  63.887  1.00  0.00     0.001 A 
HETATM   39  C   UNL     1       7.916  32.909  63.993  1.00  0.00     0.000 A 
HETATM   40  C   UNL     1       8.039  31.926  63.017  1.00  0.00     0.001 A 
HETATM   41  C   UNL     1       7.165  31.900  61.927  1.00  0.00     0.010 A 
ENDBRANCH  26  36
ENDBRANCH  23  26
ENDBRANCH  19  22
BRANCH   1  42
HETATM   42  C   UNL     1       6.209  26.877  54.610  1.00  0.00     0.035 C 
HETATM   43  C   UNL     1       7.459  27.211  53.814  1.00  0.00     0.010 C 
ENDBRANCH   1  42
TORSDOF 7
ENDMDL
MODEL 10
REMARK VINA RESULT:      -8.6      5.211      9.262
REMARK  7 active torsions:
REMARK  status: ('A' for Active; 'I' for Inactive)
REMARK    1  A    between atoms: C_2  and  C_3 
REMARK    2  A    between atoms: N_21  and  N_23 
REMARK       I    between atoms: N_23  and  C_24 
REMARK    3  A    between atoms: C_24  and  C_25 
REMARK    4  A    between atoms: C_25  and  N_26 
REMARK    5  A    between atoms: C_25  and  C_34 
REMARK       I    between atoms: N_26  and  C_27 
REMARK    6  A    between atoms: C_27  and  O_28 
REMARK    7  A    between atoms: O_28  and  C_29 
ROOT
HETATM    1  C   UNL     1       4.452  33.926  56.560  1.00  0.00    -0.041 C 
HETATM    2  C   UNL     1       3.876  33.531  57.854  1.00  0.00     0.005 C 
HETATM    3  C   UNL     1       4.257  32.301  58.396  1.00  0.00     0.091 C 
HETATM    4  C   UNL     1       4.171  32.065  59.767  1.00  0.00     0.075 C 
HETATM    5  C   UNL     1       3.605  33.051  60.574  1.00  0.00     0.079 C 
HETATM    6  C   UNL     1       2.920  34.126  60.003  1.00  0.00    -0.024 C 
HETATM    7  C   UNL     1       2.098  35.060  60.851  1.00  0.00     0.044 C 
HETATM    8  C   UNL     1       2.209  34.709  62.332  1.00  0.00     0.043 C 
HETATM    9  C   UNL     1       3.627  34.204  62.653  1.00  0.00     0.068 C 
HETATM   10  C   UNL     1       4.708  35.271  62.309  1.00  0.00     0.038 C 
HETATM   11  C   UNL     1       6.114  34.853  62.721  1.00  0.00     0.003 C 
HETATM   12  C   UNL     1       6.172  34.547  64.209  1.00  0.00     0.000 C 
HETATM   13  C   UNL     1       5.147  33.484  64.589  1.00  0.00     0.003 C 
HETATM   14  C   UNL     1       3.728  33.868  64.157  1.00  0.00     0.038 C 
HETATM   15  O   UNL     1       3.823  32.959  61.926  1.00  0.00    -0.340 OA
HETATM   16  C   UNL     1       3.100  34.387  58.640  1.00  0.00     0.024 C 
HETATM   17  O   UNL     1       4.763  31.270  57.573  1.00  0.00    -0.292 OA
HETATM   18  C   UNL     1       5.068  31.593  56.274  1.00  0.00     0.163 C 
HETATM   19  N   UNL     1       5.393  30.619  55.508  1.00  0.00    -0.277 N 
HETATM   20  H   UNL     1       5.762  30.843  54.573  1.00  0.00     0.189 HD
HETATM   21  C   UNL     1       5.068  32.985  55.830  1.00  0.00     0.065 C 
ENDROOT
BRANCH  19  22
HETATM   22  N   UNL     1       5.135  29.257  55.748  1.00  0.00    -0.266 N 
HETATM   23  C   UNL     1       6.199  28.430  55.418  1.00  0.00     0.263 C 
HETATM   24  O   UNL     1       7.331  28.924  55.318  1.00  0.00    -0.269 OA
HETATM   25  H   UNL     1       4.164  28.949  55.737  1.00  0.00     0.190 HD
BRANCH  23  26
HETATM   26  C   UNL     1       5.885  26.996  54.945  1.00  0.00     0.214 C 
BRANCH  26  27
HETATM   27  N   UNL     1       6.856  26.063  55.500  1.00  0.00    -0.319 N 
HETATM   28  C   UNL     1       6.575  25.138  56.454  1.00  0.00     0.362 C 
HETATM   29  O   UNL     1       5.450  24.921  56.881  1.00  0.00    -0.238 OA
HETATM   30  H   UNL     1       7.841  26.208  55.315  1.00  0.00     0.166 HD
BRANCH  28  31
HETATM   31  O   UNL     1       7.715  24.520  56.816  1.00  0.00    -0.294 OA
BRANCH  31  32
HETATM   32  C   UNL     1       8.171  23.312  56.148  1.00  0.00     0.061 C 
HETATM   33  C   UNL     1       9.616  23.461  55.660  1.00  0.00     0.046 C 
HETATM   34  C   UNL     1       8.127  22.222  57.230  1.00  0.00     0.046 C 
HETATM   35  C   UNL     1       7.221  22.920  55.013  1.00  0.00     0.046 C 
ENDBRANCH  31  32
ENDBRANCH  28  31
ENDBRANCH  26  27
BRANCH  26  36
HETATM   36  C   UNL     1       5.614  26.833  53.464  1.00  0.00    -0.026 A 
HETATM   37  C   UNL     1       5.659  27.977  52.644  1.00  0.00     0.010 A 
HETATM   38  C   UNL     1       5.390  27.890  51.278  1.00  0.00     0.001 A 
HETATM   39  C   UNL     1       5.078  26.661  50.707  1.00  0.00     0.000 A 
HETATM   40  C   UNL     1       5.041  25.518  51.500  1.00  0.00     0.001 A 
HETATM   41  C   UNL     1       5.310  25.600  52.868  1.00  0.00     0.010 A 
ENDBRANCH  26  36
ENDBRANCH  23  26
ENDBRANCH  19  22
BRANCH   1  42
HETATM   42  C   UNL     1       4.542  35.389  56.185  1.00  0.00     0.035 C 
HETATM   43  C   UNL     1       3.513  35.812  55.151  1.00  0.00     0.010 C 
ENDBRANCH   1  42
TORSDOF 7
ENDMDL
