MODEL 1
REMARK VINA RESULT:      -9.8      0.000      0.000
REMARK  8 active torsions:
REMARK  status: ('A' for Active; 'I' for Inactive)
REMARK    1  A    between atoms: C_2  and  O_3 
REMARK    2  A    between atoms: O_3  and  C_4 
REMARK    3  A    between atoms: C_5  and  C_6 
REMARK    4  A    between atoms: C_6  and  N_7 
REMARK    5  A    between atoms: C_9  and  C_10 
REMARK    6  A    between atoms: C_10  and  C_11 
REMARK       I    between atoms: C_11  and  N_12 
REMARK    7  A    between atoms: N_12  and  C_13 
REMARK    8  A    between atoms: C_13  and  C_14 
ROOT
HETATM    1  N   UNL     1       6.435  25.177  53.861  1.00  0.00    -0.052 N 
HETATM    2  H   UNL     1       5.850  24.666  54.532  1.00  0.00     0.281 HD
HETATM    3  C   UNL     1       6.366  26.692  54.247  1.00  0.00     0.288 C 
HETATM    4  C   UNL     1       4.900  27.223  54.159  1.00  0.00     0.249 C 
HETATM    5  O   UNL     1       4.435  28.077  54.910  1.00  0.00    -0.271 OA
HETATM    6  N   UNL     1       4.121  26.724  53.146  1.00  0.00    -0.358 N 
HETATM    7  C   UNL     1       4.352  25.443  52.508  1.00  0.00     0.150 C 
HETATM    8  C   UNL     1       5.827  25.030  52.460  1.00  0.00     0.256 C 
HETATM    9  H   UNL     1       3.175  27.100  53.139  1.00  0.00     0.162 HD
ENDROOT
BRANCH   3  10
HETATM   10  C   UNL     1       6.908  26.957  55.658  1.00  0.00     0.145 C 
BRANCH  10  11
HETATM   11  C   UNL     1       7.937  28.062  55.570  1.00  0.00     0.220 C 
HETATM   12  N   UNL     1       8.433  28.467  56.780  1.00  0.00    -0.355 N 
HETATM   13  H   UNL     1       8.047  28.107  57.643  1.00  0.00     0.162 HD
HETATM   14  O   UNL     1       8.292  28.515  54.487  1.00  0.00    -0.274 OA
BRANCH  12  15
HETATM   15  C   UNL     1       9.199  29.686  56.906  1.00  0.00     0.179 C 
BRANCH  15  16
HETATM   16  C   UNL     1       8.748  30.338  58.162  1.00  0.00     0.028 A 
HETATM   17  N   UNL     1       9.568  30.444  59.263  1.00  0.00    -0.357 N 
HETATM   18  H   UNL     1      10.526  30.115  59.314  1.00  0.00     0.166 HD
HETATM   19  C   UNL     1       8.927  31.122  60.277  1.00  0.00     0.043 A 
HETATM   20  C   UNL     1       7.648  31.436  59.816  1.00  0.00    -0.005 A 
HETATM   21  C   UNL     1       9.383  31.476  61.553  1.00  0.00     0.033 A 
HETATM   22  C   UNL     1       7.545  30.932  58.490  1.00  0.00     0.040 A 
HETATM   23  C   UNL     1       6.772  32.133  60.666  1.00  0.00     0.056 A 
HETATM   24  C   UNL     1       7.220  32.491  61.938  1.00  0.00     0.117 A 
HETATM   25  C   UNL     1       8.498  32.172  62.380  1.00  0.00     0.044 A 
HETATM   26  F   UNL     1       6.395  33.161  62.754  1.00  0.00    -0.206 F 
ENDBRANCH  15  16
ENDBRANCH  12  15
ENDBRANCH  10  11
ENDBRANCH   3  10
BRANCH   1  27
HETATM   27  C   UNL     1       7.838  24.598  53.921  1.00  0.00     0.277 C 
BRANCH  27  28
HETATM   28  C   UNL     1       7.948  23.093  54.019  1.00  0.00     0.001 A 
HETATM   29  C   UNL     1       7.766  22.478  55.275  1.00  0.00     0.076 A 
HETATM   30  C   UNL     1       7.870  21.089  55.397  1.00  0.00     0.037 A 
HETATM   31  C   UNL     1       8.101  20.301  54.271  1.00  0.00     0.003 A 
HETATM   32  C   UNL     1       8.215  20.891  53.018  1.00  0.00     0.001 A 
HETATM   33  C   UNL     1       8.127  22.277  52.887  1.00  0.00     0.012 A 
BRANCH  29  34
HETATM   34  O   UNL     1       7.495  23.324  56.317  1.00  0.00    -0.351 OA
BRANCH  34  35
HETATM   35  C   UNL     1       8.436  23.340  57.397  1.00  0.00     0.171 C 
HETATM   36  C   UNL     1       8.920  24.768  57.571  1.00  0.00     0.034 C 
ENDBRANCH  34  35
ENDBRANCH  29  34
ENDBRANCH  27  28
ENDBRANCH   1  27
TORSDOF 8
ENDMDL
MODEL 2
REMARK VINA RESULT:      -9.8      1.945      2.907
REMARK  8 active torsions:
REMARK  status: ('A' for Active; 'I' for Inactive)
REMARK    1  A    between atoms: C_2  and  O_3 
REMARK    2  A    between atoms: O_3  and  C_4 
REMARK    3  A    between atoms: C_5  and  C_6 
REMARK    4  A    between atoms: C_6  and  N_7 
REMARK    5  A    between atoms: C_9  and  C_10 
REMARK    6  A    between atoms: C_10  and  C_11 
REMARK       I    between atoms: C_11  and  N_12 
REMARK    7  A    between atoms: N_12  and  C_13 
REMARK    8  A    between atoms: C_13  and  C_14 
ROOT
HETATM    1  N   UNL     1       6.200  27.758  54.923  1.00  0.00    -0.052 N 
HETATM    2  H   UNL     1       5.646  26.983  55.303  1.00  0.00     0.281 HD
HETATM    3  C   UNL     1       6.309  28.844  56.045  1.00  0.00     0.288 C 
HETATM    4  C   UNL     1       4.895  29.372  56.447  1.00  0.00     0.249 C 
HETATM    5  O   UNL     1       4.591  29.713  57.587  1.00  0.00    -0.271 OA
HETATM    6  N   UNL     1       3.972  29.498  55.439  1.00  0.00    -0.358 N 
HETATM    7  C   UNL     1       4.019  28.741  54.204  1.00  0.00     0.150 C 
HETATM    8  C   UNL     1       5.438  28.385  53.748  1.00  0.00     0.256 C 
HETATM    9  H   UNL     1       3.068  29.842  55.758  1.00  0.00     0.162 HD
ENDROOT
BRANCH   3  10
HETATM   10  C   UNL     1       7.018  28.313  57.299  1.00  0.00     0.145 C 
BRANCH  10  11
HETATM   11  C   UNL     1       8.183  29.228  57.605  1.00  0.00     0.220 C 
HETATM   12  N   UNL     1       8.263  29.617  58.915  1.00  0.00    -0.355 N 
HETATM   13  H   UNL     1       7.532  29.376  59.571  1.00  0.00     0.162 HD
HETATM   14  O   UNL     1       8.983  29.553  56.734  1.00  0.00    -0.274 OA
BRANCH  12  15
HETATM   15  C   UNL     1       9.130  30.700  59.324  1.00  0.00     0.179 C 
BRANCH  15  16
HETATM   16  C   UNL     1       8.515  31.295  60.538  1.00  0.00     0.028 A 
HETATM   17  N   UNL     1       7.152  31.318  60.728  1.00  0.00    -0.357 N 
HETATM   18  H   UNL     1       6.465  30.930  60.091  1.00  0.00     0.166 HD
HETATM   19  C   UNL     1       6.845  31.885  61.946  1.00  0.00     0.043 A 
HETATM   20  C   UNL     1       8.050  32.260  62.539  1.00  0.00    -0.005 A 
HETATM   21  C   UNL     1       5.601  32.090  62.556  1.00  0.00     0.033 A 
HETATM   22  C   UNL     1       9.091  31.892  61.643  1.00  0.00     0.040 A 
HETATM   23  C   UNL     1       8.023  32.875  63.803  1.00  0.00     0.056 A 
HETATM   24  C   UNL     1       6.787  33.081  64.418  1.00  0.00     0.117 A 
HETATM   25  C   UNL     1       5.596  32.699  63.813  1.00  0.00     0.044 A 
HETATM   26  F   UNL     1       6.750  33.661  65.626  1.00  0.00    -0.206 F 
ENDBRANCH  15  16
ENDBRANCH  12  15
ENDBRANCH  10  11
ENDBRANCH   3  10
BRANCH   1  27
HETATM   27  C   UNL     1       7.545  27.205  54.481  1.00  0.00     0.277 C 
BRANCH  27  28
HETATM   28  C   UNL     1       7.549  25.802  53.916  1.00  0.00     0.001 A 
HETATM   29  C   UNL     1       7.137  24.735  54.741  1.00  0.00     0.076 A 
HETATM   30  C   UNL     1       7.138  23.427  54.249  1.00  0.00     0.037 A 
HETATM   31  C   UNL     1       7.495  23.176  52.926  1.00  0.00     0.003 A 
HETATM   32  C   UNL     1       7.838  24.227  52.083  1.00  0.00     0.001 A 
HETATM   33  C   UNL     1       7.853  25.535  52.569  1.00  0.00     0.012 A 
BRANCH  29  34
HETATM   34  O   UNL     1       6.757  25.079  56.012  1.00  0.00    -0.351 OA
BRANCH  34  35
HETATM   35  C   UNL     1       7.356  24.344  57.086  1.00  0.00     0.171 C 
HETATM   36  C   UNL     1       8.732  24.933  57.342  1.00  0.00     0.034 C 
ENDBRANCH  34  35
ENDBRANCH  29  34
ENDBRANCH  27  28
ENDBRANCH   1  27
TORSDOF 8
ENDMDL
MODEL 3
REMARK VINA RESULT:      -9.6      2.176      3.645
REMARK  8 active torsions:
REMARK  status: ('A' for Active; 'I' for Inactive)
REMARK    1  A    between atoms: C_2  and  O_3 
REMARK    2  A    between atoms: O_3  and  C_4 
REMARK    3  A    between atoms: C_5  and  C_6 
REMARK    4  A    between atoms: C_6  and  N_7 
REMARK    5  A    between atoms: C_9  and  C_10 
REMARK    6  A    between atoms: C_10  and  C_11 
REMARK       I    between atoms: C_11  and  N_12 
REMARK    7  A    between atoms: N_12  and  C_13 
REMARK    8  A    between atoms: C_13  and  C_14 
ROOT
HETATM    1  N   UNL     1       6.199  27.716  55.243  1.00  0.00    -0.052 N 
HETATM    2  H   UNL     1       5.525  27.027  55.594  1.00  0.00     0.281 HD
HETATM    3  C   UNL     1       6.351  28.818  56.345  1.00  0.00     0.288 C 
HETATM    4  C   UNL     1       4.985  29.526  56.617  1.00  0.00     0.249 C 
HETATM    5  O   UNL     1       4.636  29.937  57.720  1.00  0.00    -0.271 OA
HETATM    6  N   UNL     1       4.167  29.728  55.534  1.00  0.00    -0.358 N 
HETATM    7  C   UNL     1       4.218  28.930  54.325  1.00  0.00     0.150 C 
HETATM    8  C   UNL     1       5.614  28.391  53.996  1.00  0.00     0.256 C 
HETATM    9  H   UNL     1       3.290  30.188  55.769  1.00  0.00     0.162 HD
ENDROOT
BRANCH   3  10
HETATM   10  C   UNL     1       6.888  28.247  57.665  1.00  0.00     0.145 C 
BRANCH  10  11
HETATM   11  C   UNL     1       8.095  29.062  58.075  1.00  0.00     0.220 C 
HETATM   12  N   UNL     1       7.955  29.710  59.273  1.00  0.00    -0.355 N 
HETATM   13  H   UNL     1       7.070  29.703  59.764  1.00  0.00     0.162 HD
HETATM   14  O   UNL     1       9.104  29.097  57.380  1.00  0.00    -0.274 OA
BRANCH  12  15
HETATM   15  C   UNL     1       8.879  30.745  59.678  1.00  0.00     0.179 C 
BRANCH  15  16
HETATM   16  C   UNL     1       8.295  31.382  60.886  1.00  0.00     0.028 A 
HETATM   17  N   UNL     1       6.935  31.448  61.089  1.00  0.00    -0.357 N 
HETATM   18  H   UNL     1       6.231  31.067  60.467  1.00  0.00     0.166 HD
HETATM   19  C   UNL     1       6.657  32.048  62.297  1.00  0.00     0.043 A 
HETATM   20  C   UNL     1       7.880  32.401  62.871  1.00  0.00    -0.005 A 
HETATM   21  C   UNL     1       5.427  32.301  62.916  1.00  0.00     0.033 A 
HETATM   22  C   UNL     1       8.900  31.985  61.972  1.00  0.00     0.040 A 
HETATM   23  C   UNL     1       7.883  33.042  64.122  1.00  0.00     0.056 A 
HETATM   24  C   UNL     1       6.661  33.296  64.745  1.00  0.00     0.117 A 
HETATM   25  C   UNL     1       5.453  32.936  64.160  1.00  0.00     0.044 A 
HETATM   26  F   UNL     1       6.653  33.901  65.940  1.00  0.00    -0.206 F 
ENDBRANCH  15  16
ENDBRANCH  12  15
ENDBRANCH  10  11
ENDBRANCH   3  10
BRANCH   1  27
HETATM   27  C   UNL     1       7.496  26.991  54.927  1.00  0.00     0.277 C 
BRANCH  27  28
HETATM   28  C   UNL     1       7.499  25.491  55.118  1.00  0.00     0.001 A 
HETATM   29  C   UNL     1       7.100  24.667  54.045  1.00  0.00     0.076 A 
HETATM   30  C   UNL     1       7.083  23.278  54.196  1.00  0.00     0.037 A 
HETATM   31  C   UNL     1       7.512  22.696  55.388  1.00  0.00     0.003 A 
HETATM   32  C   UNL     1       7.972  23.495  56.429  1.00  0.00     0.001 A 
HETATM   33  C   UNL     1       7.978  24.884  56.293  1.00  0.00     0.012 A 
BRANCH  29  34
HETATM   34  O   UNL     1       6.740  25.321  52.896  1.00  0.00    -0.351 OA
BRANCH  34  35
HETATM   35  C   UNL     1       5.442  25.030  52.367  1.00  0.00     0.171 C 
HETATM   36  C   UNL     1       5.249  25.873  51.119  1.00  0.00     0.034 C 
ENDBRANCH  34  35
ENDBRANCH  29  34
ENDBRANCH  27  28
ENDBRANCH   1  27
TORSDOF 8
ENDMDL
MODEL 4
REMARK VINA RESULT:      -9.2      3.745      8.696
REMARK  8 active torsions:
REMARK  status: ('A' for Active; 'I' for Inactive)
REMARK    1  A    between atoms: C_2  and  O_3 
REMARK    2  A    between atoms: O_3  and  C_4 
REMARK    3  A    between atoms: C_5  and  C_6 
REMARK    4  A    between atoms: C_6  and  N_7 
REMARK    5  A    between atoms: C_9  and  C_10 
REMARK    6  A    between atoms: C_10  and  C_11 
REMARK       I    between atoms: C_11  and  N_12 
REMARK    7  A    between atoms: N_12  and  C_13 
REMARK    8  A    between atoms: C_13  and  C_14 
ROOT
HETATM    1  N   UNL     1       5.880  30.031  56.534  1.00  0.00    -0.052 N 
HETATM    2  H   UNL     1       6.462  30.417  55.783  1.00  0.00     0.281 HD
HETATM    3  C   UNL     1       5.051  28.854  55.920  1.00  0.00     0.288 C 
HETATM    4  C   UNL     1       4.129  29.365  54.767  1.00  0.00     0.249 C 
HETATM    5  O   UNL     1       3.856  28.706  53.767  1.00  0.00    -0.271 OA
HETATM    6  N   UNL     1       3.567  30.607  54.928  1.00  0.00    -0.358 N 
HETATM    7  C   UNL     1       4.129  31.642  55.773  1.00  0.00     0.150 C 
HETATM    8  C   UNL     1       4.886  31.105  56.993  1.00  0.00     0.256 C 
HETATM    9  H   UNL     1       2.981  30.891  54.146  1.00  0.00     0.162 HD
ENDROOT
BRANCH   3  10
HETATM   10  C   UNL     1       5.948  27.732  55.381  1.00  0.00     0.145 C 
BRANCH  10  11
HETATM   11  C   UNL     1       6.086  26.679  56.458  1.00  0.00     0.220 C 
HETATM   12  N   UNL     1       7.376  26.289  56.701  1.00  0.00    -0.355 N 
HETATM   13  H   UNL     1       8.134  26.623  56.122  1.00  0.00     0.162 HD
HETATM   14  O   UNL     1       5.106  26.251  57.059  1.00  0.00    -0.274 OA
BRANCH  12  15
HETATM   15  C   UNL     1       7.667  25.107  57.482  1.00  0.00     0.179 C 
BRANCH  15  16
HETATM   16  C   UNL     1       7.881  24.004  56.510  1.00  0.00     0.028 A 
HETATM   17  N   UNL     1       8.318  22.760  56.904  1.00  0.00    -0.357 N 
HETATM   18  H   UNL     1       8.509  22.483  57.861  1.00  0.00     0.166 HD
HETATM   19  C   UNL     1       8.396  21.912  55.821  1.00  0.00     0.043 A 
HETATM   20  C   UNL     1       8.024  22.647  54.696  1.00  0.00    -0.005 A 
HETATM   21  C   UNL     1       8.766  20.562  55.759  1.00  0.00     0.033 A 
HETATM   22  C   UNL     1       7.710  23.962  55.139  1.00  0.00     0.040 A 
HETATM   23  C   UNL     1       8.021  22.014  53.441  1.00  0.00     0.056 A 
HETATM   24  C   UNL     1       8.387  20.669  53.371  1.00  0.00     0.117 A 
HETATM   25  C   UNL     1       8.753  19.951  54.503  1.00  0.00     0.044 A 
HETATM   26  F   UNL     1       8.382  20.055  52.180  1.00  0.00    -0.206 F 
ENDBRANCH  15  16
ENDBRANCH  12  15
ENDBRANCH  10  11
ENDBRANCH   3  10
BRANCH   1  27
HETATM   27  C   UNL     1       6.797  29.602  57.668  1.00  0.00     0.277 C 
BRANCH  27  28
HETATM   28  C   UNL     1       8.265  29.929  57.515  1.00  0.00     0.001 A 
HETATM   29  C   UNL     1       8.883  30.752  58.479  1.00  0.00     0.076 A 
HETATM   30  C   UNL     1      10.237  31.078  58.359  1.00  0.00     0.037 A 
HETATM   31  C   UNL     1      10.996  30.550  57.316  1.00  0.00     0.003 A 
HETATM   32  C   UNL     1      10.413  29.684  56.398  1.00  0.00     0.001 A 
HETATM   33  C   UNL     1       9.060  29.363  56.501  1.00  0.00     0.012 A 
BRANCH  29  34
HETATM   34  O   UNL     1       8.073  31.186  59.495  1.00  0.00    -0.351 OA
BRANCH  34  35
HETATM   35  C   UNL     1       8.492  30.880  60.830  1.00  0.00     0.171 C 
HETATM   36  C   UNL     1       8.466  32.168  61.633  1.00  0.00     0.034 C 
ENDBRANCH  34  35
ENDBRANCH  29  34
ENDBRANCH  27  28
ENDBRANCH   1  27
TORSDOF 8
ENDMDL
MODEL 5
REMARK VINA RESULT:      -9.1      3.365      8.669
REMARK  8 active torsions:
REMARK  status: ('A' for Active; 'I' for Inactive)
REMARK    1  A    between atoms: C_2  and  O_3 
REMARK    2  A    between atoms: O_3  and  C_4 
REMARK    3  A    between atoms: C_5  and  C_6 
REMARK    4  A    between atoms: C_6  and  N_7 
REMARK    5  A    between atoms: C_9  and  C_10 
REMARK    6  A    between atoms: C_10  and  C_11 
REMARK       I    between atoms: C_11  and  N_12 
REMARK    7  A    between atoms: N_12  and  C_13 
REMARK    8  A    between atoms: C_13  and  C_14 
ROOT
HETATM    1  N   UNL     1       5.876  29.681  56.776  1.00  0.00    -0.052 N 
HETATM    2  H   UNL     1       6.309  30.550  56.445  1.00  0.00     0.281 HD
HETATM    3  C   UNL     1       5.344  28.920  55.516  1.00  0.00     0.288 C 
HETATM    4  C   UNL     1       4.274  29.772  54.761  1.00  0.00     0.249 C 
HETATM    5  O   UNL     1       4.133  29.768  53.541  1.00  0.00    -0.271 OA
HETATM    6  N   UNL     1       3.426  30.525  55.534  1.00  0.00    -0.358 N 
HETATM    7  C   UNL     1       3.745  30.981  56.872  1.00  0.00     0.150 C 
HETATM    8  C   UNL     1       4.664  30.031  57.648  1.00  0.00     0.256 C 
HETATM    9  H   UNL     1       2.753  31.063  54.991  1.00  0.00     0.162 HD
ENDROOT
BRANCH   3  10
HETATM   10  C   UNL     1       6.470  28.556  54.540  1.00  0.00     0.145 C 
BRANCH  10  11
HETATM   11  C   UNL     1       6.165  27.196  53.952  1.00  0.00     0.220 C 
HETATM   12  N   UNL     1       7.198  26.645  53.242  1.00  0.00    -0.355 N 
HETATM   13  H   UNL     1       8.040  27.175  53.061  1.00  0.00     0.162 HD
HETATM   14  O   UNL     1       5.082  26.651  54.137  1.00  0.00    -0.274 OA
BRANCH  12  15
HETATM   15  C   UNL     1       6.991  25.499  52.385  1.00  0.00     0.179 C 
BRANCH  15  16
HETATM   16  C   UNL     1       7.476  24.316  53.141  1.00  0.00     0.028 A 
HETATM   17  N   UNL     1       7.539  23.064  52.573  1.00  0.00    -0.357 N 
HETATM   18  H   UNL     1       7.288  22.842  51.616  1.00  0.00     0.166 HD
HETATM   19  C   UNL     1       8.058  22.155  53.468  1.00  0.00     0.043 A 
HETATM   20  C   UNL     1       8.309  22.845  54.655  1.00  0.00    -0.005 A 
HETATM   21  C   UNL     1       8.321  20.788  53.314  1.00  0.00     0.033 A 
HETATM   22  C   UNL     1       7.932  24.199  54.440  1.00  0.00     0.040 A 
HETATM   23  C   UNL     1       8.844  22.142  55.749  1.00  0.00     0.056 A 
HETATM   24  C   UNL     1       9.109  20.780  55.603  1.00  0.00     0.117 A 
HETATM   25  C   UNL     1       8.856  20.109  54.412  1.00  0.00     0.044 A 
HETATM   26  F   UNL     1       9.625  20.103  56.637  1.00  0.00    -0.206 F 
ENDBRANCH  15  16
ENDBRANCH  12  15
ENDBRANCH  10  11
ENDBRANCH   3  10
BRANCH   1  27
HETATM   27  C   UNL     1       6.919  28.903  57.561  1.00  0.00     0.277 C 
BRANCH  27  28
HETATM   28  C   UNL     1       8.322  29.465  57.567  1.00  0.00     0.001 A 
HETATM   29  C   UNL     1       8.604  30.581  58.383  1.00  0.00     0.076 A 
HETATM   30  C   UNL     1       9.890  31.128  58.403  1.00  0.00     0.037 A 
HETATM   31  C   UNL     1      10.913  30.543  57.660  1.00  0.00     0.003 A 
HETATM   32  C   UNL     1      10.663  29.402  56.905  1.00  0.00     0.001 A 
HETATM   33  C   UNL     1       9.380  28.857  56.867  1.00  0.00     0.012 A 
BRANCH  29  34
HETATM   34  O   UNL     1       7.551  31.061  59.116  1.00  0.00    -0.351 OA
BRANCH  34  35
HETATM   35  C   UNL     1       7.815  32.185  59.964  1.00  0.00     0.171 C 
HETATM   36  C   UNL     1       7.871  31.683  61.397  1.00  0.00     0.034 C 
ENDBRANCH  34  35
ENDBRANCH  29  34
ENDBRANCH  27  28
ENDBRANCH   1  27
TORSDOF 8
ENDMDL
MODEL 6
REMARK VINA RESULT:      -9.1      3.493      9.811
REMARK  8 active torsions:
REMARK  status: ('A' for Active; 'I' for Inactive)
REMARK    1  A    between atoms: C_2  and  O_3 
REMARK    2  A    between atoms: O_3  and  C_4 
REMARK    3  A    between atoms: C_5  and  C_6 
REMARK    4  A    between atoms: C_6  and  N_7 
REMARK    5  A    between atoms: C_9  and  C_10 
REMARK    6  A    between atoms: C_10  and  C_11 
REMARK       I    between atoms: C_11  and  N_12 
REMARK    7  A    between atoms: N_12  and  C_13 
REMARK    8  A    between atoms: C_13  and  C_14 
ROOT
HETATM    1  N   UNL     1       8.491  30.568  58.534  1.00  0.00    -0.052 N 
HETATM    2  H   UNL     1       8.722  29.956  59.325  1.00  0.00     0.281 HD
HETATM    3  C   UNL     1       7.952  29.653  57.384  1.00  0.00     0.288 C 
HETATM    4  C   UNL     1       9.037  28.623  56.936  1.00  0.00     0.249 C 
HETATM    5  O   UNL     1       8.782  27.483  56.556  1.00  0.00    -0.271 OA
HETATM    6  N   UNL     1      10.338  29.058  56.932  1.00  0.00    -0.358 N 
HETATM    7  C   UNL     1      10.826  30.150  57.751  1.00  0.00     0.150 C 
HETATM    8  C   UNL     1       9.778  31.233  58.030  1.00  0.00     0.256 C 
HETATM    9  H   UNL     1      11.003  28.345  56.637  1.00  0.00     0.162 HD
ENDROOT
BRANCH   3  10
HETATM   10  C   UNL     1       6.682  28.895  57.793  1.00  0.00     0.145 C 
BRANCH  10  11
HETATM   11  C   UNL     1       5.914  28.547  56.536  1.00  0.00     0.220 C 
HETATM   12  N   UNL     1       5.811  27.203  56.294  1.00  0.00    -0.355 N 
HETATM   13  H   UNL     1       6.304  26.535  56.872  1.00  0.00     0.162 HD
HETATM   14  O   UNL     1       5.420  29.419  55.831  1.00  0.00    -0.274 OA
BRANCH  12  15
HETATM   15  C   UNL     1       5.368  26.704  55.012  1.00  0.00     0.179 C 
BRANCH  15  16
HETATM   16  C   UNL     1       6.227  25.535  54.696  1.00  0.00     0.028 A 
HETATM   17  N   UNL     1       7.215  25.103  55.552  1.00  0.00    -0.357 N 
HETATM   18  H   UNL     1       7.429  25.516  56.453  1.00  0.00     0.166 HD
HETATM   19  C   UNL     1       7.836  23.983  55.045  1.00  0.00     0.043 A 
HETATM   20  C   UNL     1       7.242  23.707  53.813  1.00  0.00    -0.005 A 
HETATM   21  C   UNL     1       8.867  23.203  55.584  1.00  0.00     0.033 A 
HETATM   22  C   UNL     1       6.240  24.692  53.600  1.00  0.00     0.040 A 
HETATM   23  C   UNL     1       7.699  22.602  53.072  1.00  0.00     0.056 A 
HETATM   24  C   UNL     1       8.725  21.820  53.603  1.00  0.00     0.117 A 
HETATM   25  C   UNL     1       9.303  22.109  54.833  1.00  0.00     0.044 A 
HETATM   26  F   UNL     1       9.163  20.762  52.908  1.00  0.00    -0.206 F 
ENDBRANCH  15  16
ENDBRANCH  12  15
ENDBRANCH  10  11
ENDBRANCH   3  10
BRANCH   1  27
HETATM   27  C   UNL     1       7.483  31.599  59.014  1.00  0.00     0.277 C 
BRANCH  27  28
HETATM   28  C   UNL     1       7.499  31.928  60.489  1.00  0.00     0.001 A 
HETATM   29  C   UNL     1       6.292  32.301  61.116  1.00  0.00     0.076 A 
HETATM   30  C   UNL     1       6.277  32.619  62.477  1.00  0.00     0.037 A 
HETATM   31  C   UNL     1       7.443  32.518  63.234  1.00  0.00     0.003 A 
HETATM   32  C   UNL     1       8.625  32.087  62.642  1.00  0.00     0.001 A 
HETATM   33  C   UNL     1       8.653  31.781  61.281  1.00  0.00     0.012 A 
BRANCH  29  34
HETATM   34  O   UNL     1       5.186  32.326  60.308  1.00  0.00    -0.351 OA
BRANCH  34  35
HETATM   35  C   UNL     1       4.061  33.080  60.776  1.00  0.00     0.171 C 
HETATM   36  C   UNL     1       4.119  34.452  60.127  1.00  0.00     0.034 C 
ENDBRANCH  34  35
ENDBRANCH  29  34
ENDBRANCH  27  28
ENDBRANCH   1  27
TORSDOF 8
ENDMDL
MODEL 7
REMARK VINA RESULT:      -8.8      3.945      8.013
REMARK  8 active torsions:
REMARK  status: ('A' for Active; 'I' for Inactive)
REMARK    1  A    between atoms: C_2  and  O_3 
REMARK    2  A    between atoms: O_3  and  C_4 
REMARK    3  A    between atoms: C_5  and  C_6 
REMARK    4  A    between atoms: C_6  and  N_7 
REMARK    5  A    between atoms: C_9  and  C_10 
REMARK    6  A    between atoms: C_10  and  C_11 
REMARK       I    between atoms: C_11  and  N_12 
REMARK    7  A    between atoms: N_12  and  C_13 
REMARK    8  A    between atoms: C_13  and  C_14 
ROOT
HETATM    1  N   UNL     1       6.282  29.133  55.442  1.00  0.00    -0.052 N 
HETATM    2  H   UNL     1       5.749  28.345  55.829  1.00  0.00     0.281 HD
HETATM    3  C   UNL     1       7.627  29.217  56.240  1.00  0.00     0.288 C 
HETATM    4  C   UNL     1       7.359  29.473  57.757  1.00  0.00     0.249 C 
HETATM    5  O   UNL     1       8.054  29.017  58.661  1.00  0.00    -0.271 OA
HETATM    6  N   UNL     1       6.308  30.298  58.069  1.00  0.00    -0.358 N 
HETATM    7  C   UNL     1       5.172  30.522  57.196  1.00  0.00     0.150 C 
HETATM    8  C   UNL     1       5.509  30.431  55.704  1.00  0.00     0.256 C 
HETATM    9  H   UNL     1       6.177  30.426  59.070  1.00  0.00     0.162 HD
ENDROOT
BRANCH   3  10
HETATM   10  C   UNL     1       8.471  27.944  56.090  1.00  0.00     0.145 C 
BRANCH  10  11
HETATM   11  C   UNL     1       7.777  26.827  56.838  1.00  0.00     0.220 C 
HETATM   12  N   UNL     1       8.628  25.974  57.489  1.00  0.00    -0.355 N 
HETATM   13  H   UNL     1       9.629  26.055  57.374  1.00  0.00     0.162 HD
HETATM   14  O   UNL     1       6.555  26.738  56.859  1.00  0.00    -0.274 OA
BRANCH  12  15
HETATM   15  C   UNL     1       8.165  24.706  58.009  1.00  0.00     0.179 C 
BRANCH  15  16
HETATM   16  C   UNL     1       8.287  23.727  56.898  1.00  0.00     0.028 A 
HETATM   17  N   UNL     1       8.453  22.380  57.129  1.00  0.00    -0.357 N 
HETATM   18  H   UNL     1       8.487  21.943  58.043  1.00  0.00     0.166 HD
HETATM   19  C   UNL     1       8.498  21.690  55.937  1.00  0.00     0.043 A 
HETATM   20  C   UNL     1       8.385  22.631  54.913  1.00  0.00    -0.005 A 
HETATM   21  C   UNL     1       8.630  20.317  55.697  1.00  0.00     0.033 A 
HETATM   22  C   UNL     1       8.261  23.907  55.528  1.00  0.00     0.040 A 
HETATM   23  C   UNL     1       8.408  22.189  53.579  1.00  0.00     0.056 A 
HETATM   24  C   UNL     1       8.538  20.822  53.331  1.00  0.00     0.117 A 
HETATM   25  C   UNL     1       8.647  19.898  54.364  1.00  0.00     0.044 A 
HETATM   26  F   UNL     1       8.554  20.389  52.063  1.00  0.00    -0.206 F 
ENDBRANCH  15  16
ENDBRANCH  12  15
ENDBRANCH  10  11
ENDBRANCH   3  10
BRANCH   1  27
HETATM   27  C   UNL     1       6.472  28.889  53.955  1.00  0.00     0.277 C 
BRANCH  27  28
HETATM   28  C   UNL     1       6.216  27.484  53.459  1.00  0.00     0.001 A 
HETATM   29  C   UNL     1       4.885  27.025  53.369  1.00  0.00     0.076 A 
HETATM   30  C   UNL     1       4.619  25.728  52.923  1.00  0.00     0.037 A 
HETATM   31  C   UNL     1       5.661  24.899  52.513  1.00  0.00     0.003 A 
HETATM   32  C   UNL     1       6.972  25.363  52.533  1.00  0.00     0.001 A 
HETATM   33  C   UNL     1       7.249  26.651  52.990  1.00  0.00     0.012 A 
BRANCH  29  34
HETATM   34  O   UNL     1       3.922  27.923  53.747  1.00  0.00    -0.351 OA
BRANCH  34  35
HETATM   35  C   UNL     1       3.078  28.438  52.711  1.00  0.00     0.171 C 
HETATM   36  C   UNL     1       3.393  29.914  52.545  1.00  0.00     0.034 C 
ENDBRANCH  34  35
ENDBRANCH  29  34
ENDBRANCH  27  28
ENDBRANCH   1  27
TORSDOF 8
ENDMDL
MODEL 8
REMARK VINA RESULT:      -8.8      3.707      8.670
REMARK  8 active torsions:
REMARK  status: ('A' for Active; 'I' for Inactive)
REMARK    1  A    between atoms: C_2  and  O_3 
REMARK    2  A    between atoms: O_3  and  C_4 
REMARK    3  A    between atoms: C_5  and  C_6 
REMARK    4  A    between atoms: C_6  and  N_7 
REMARK    5  A    between atoms: C_9  and  C_10 
REMARK    6  A    between atoms: C_10  and  C_11 
REMARK       I    between atoms: C_11  and  N_12 
REMARK    7  A    between atoms: N_12  and  C_13 
REMARK    8  A    between atoms: C_13  and  C_14 
ROOT
HETATM    1  N   UNL     1       5.976  31.059  57.607  1.00  0.00    -0.052 N 
HETATM    2  H   UNL     1       6.575  31.752  57.145  1.00  0.00     0.281 HD
HETATM    3  C   UNL     1       4.886  30.625  56.570  1.00  0.00     0.288 C 
HETATM    4  C   UNL     1       4.017  31.847  56.132  1.00  0.00     0.249 C 
HETATM    5  O   UNL     1       3.551  31.986  55.004  1.00  0.00    -0.271 OA
HETATM    6  N   UNL     1       3.732  32.781  57.096  1.00  0.00    -0.358 N 
HETATM    7  C   UNL     1       4.546  32.995  58.276  1.00  0.00     0.150 C 
HETATM    8  C   UNL     1       5.253  31.733  58.780  1.00  0.00     0.256 C 
HETATM    9  H   UNL     1       3.167  33.557  56.755  1.00  0.00     0.162 HD
ENDROOT
BRANCH   3  10
HETATM   10  C   UNL     1       5.499  29.976  55.322  1.00  0.00     0.145 C 
BRANCH  10  11
HETATM   11  C   UNL     1       4.841  28.629  55.118  1.00  0.00     0.220 C 
HETATM   12  N   UNL     1       5.407  27.870  54.130  1.00  0.00    -0.355 N 
HETATM   13  H   UNL     1       6.136  28.250  53.540  1.00  0.00     0.162 HD
HETATM   14  O   UNL     1       3.897  28.271  55.814  1.00  0.00    -0.274 OA
BRANCH  12  15
HETATM   15  C   UNL     1       4.742  26.695  53.613  1.00  0.00     0.179 C 
BRANCH  15  16
HETATM   16  C   UNL     1       5.734  25.591  53.670  1.00  0.00     0.028 A 
HETATM   17  N   UNL     1       6.536  25.388  54.770  1.00  0.00    -0.357 N 
HETATM   18  H   UNL     1       6.514  25.941  55.620  1.00  0.00     0.166 HD
HETATM   19  C   UNL     1       7.335  24.281  54.586  1.00  0.00     0.043 A 
HETATM   20  C   UNL     1       7.052  23.778  53.316  1.00  0.00    -0.005 A 
HETATM   21  C   UNL     1       8.276  23.697  55.443  1.00  0.00     0.033 A 
HETATM   22  C   UNL     1       6.051  24.613  52.747  1.00  0.00     0.040 A 
HETATM   23  C   UNL     1       7.741  22.637  52.869  1.00  0.00     0.056 A 
HETATM   24  C   UNL     1       8.679  22.048  53.718  1.00  0.00     0.117 A 
HETATM   25  C   UNL     1       8.947  22.562  54.981  1.00  0.00     0.044 A 
HETATM   26  F   UNL     1       9.337  20.957  53.303  1.00  0.00    -0.206 F 
ENDBRANCH  15  16
ENDBRANCH  12  15
ENDBRANCH  10  11
ENDBRANCH   3  10
BRANCH   1  27
HETATM   27  C   UNL     1       6.855  29.914  58.079  1.00  0.00     0.277 C 
BRANCH  27  28
HETATM   28  C   UNL     1       8.322  29.993  57.722  1.00  0.00     0.001 A 
HETATM   29  C   UNL     1       9.193  30.698  58.578  1.00  0.00     0.076 A 
HETATM   30  C   UNL     1      10.553  30.796  58.270  1.00  0.00     0.037 A 
HETATM   31  C   UNL     1      11.065  30.152  57.144  1.00  0.00     0.003 A 
HETATM   32  C   UNL     1      10.228  29.398  56.330  1.00  0.00     0.001 A 
HETATM   33  C   UNL     1       8.867  29.306  56.622  1.00  0.00     0.012 A 
BRANCH  29  34
HETATM   34  O   UNL     1       8.613  31.258  59.686  1.00  0.00    -0.351 OA
BRANCH  34  35
HETATM   35  C   UNL     1       8.997  30.721  60.957  1.00  0.00     0.171 C 
HETATM   36  C   UNL     1       8.973  31.854  61.967  1.00  0.00     0.034 C 
ENDBRANCH  34  35
ENDBRANCH  29  34
ENDBRANCH  27  28
ENDBRANCH   1  27
TORSDOF 8
ENDMDL
MODEL 9
REMARK VINA RESULT:      -8.7      3.798      9.986
REMARK  8 active torsions:
REMARK  status: ('A' for Active; 'I' for Inactive)
REMARK    1  A    between atoms: C_2  and  O_3 
REMARK    2  A    between atoms: O_3  and  C_4 
REMARK    3  A    between atoms: C_5  and  C_6 
REMARK    4  A    between atoms: C_6  and  N_7 
REMARK    5  A    between atoms: C_9  and  C_10 
REMARK    6  A    between atoms: C_10  and  C_11 
REMARK       I    between atoms: C_11  and  N_12 
REMARK    7  A    between atoms: N_12  and  C_13 
REMARK    8  A    between atoms: C_13  and  C_14 
ROOT
HETATM    1  N   UNL     1       5.792  30.539  58.312  1.00  0.00    -0.052 N 
HETATM    2  H   UNL     1       5.538  30.102  59.206  1.00  0.00     0.281 HD
HETATM    3  C   UNL     1       6.390  29.415  57.402  1.00  0.00     0.288 C 
HETATM    4  C   UNL     1       7.668  28.794  58.051  1.00  0.00     0.249 C 
HETATM    5  O   UNL     1       7.985  27.612  57.943  1.00  0.00    -0.271 OA
HETATM    6  N   UNL     1       8.491  29.650  58.738  1.00  0.00    -0.358 N 
HETATM    7  C   UNL     1       8.046  30.899  59.324  1.00  0.00     0.150 C 
HETATM    8  C   UNL     1       6.900  31.570  58.561  1.00  0.00     0.256 C 
HETATM    9  H   UNL     1       9.305  29.192  59.144  1.00  0.00     0.162 HD
ENDROOT
BRANCH   3  10
HETATM   10  C   UNL     1       5.379  28.295  57.121  1.00  0.00     0.145 C 
BRANCH  10  11
HETATM   11  C   UNL     1       5.449  27.954  55.649  1.00  0.00     0.220 C 
HETATM   12  N   UNL     1       5.055  26.678  55.348  1.00  0.00    -0.355 N 
HETATM   13  H   UNL     1       4.839  26.017  56.083  1.00  0.00     0.162 HD
HETATM   14  O   UNL     1       5.809  28.783  54.820  1.00  0.00    -0.274 OA
BRANCH  12  15
HETATM   15  C   UNL     1       5.323  26.096  54.052  1.00  0.00     0.179 C 
BRANCH  15  16
HETATM   16  C   UNL     1       6.178  24.906  54.295  1.00  0.00     0.028 A 
HETATM   17  N   UNL     1       6.545  24.053  53.279  1.00  0.00    -0.357 N 
HETATM   18  H   UNL     1       6.292  24.161  52.303  1.00  0.00     0.166 HD
HETATM   19  C   UNL     1       7.368  23.058  53.759  1.00  0.00     0.043 A 
HETATM   20  C   UNL     1       7.508  23.268  55.132  1.00  0.00    -0.005 A 
HETATM   21  C   UNL     1       7.990  21.999  53.085  1.00  0.00     0.033 A 
HETATM   22  C   UNL     1       6.750  24.426  55.458  1.00  0.00     0.040 A 
HETATM   23  C   UNL     1       8.303  22.380  55.877  1.00  0.00     0.056 A 
HETATM   24  C   UNL     1       8.927  21.324  55.212  1.00  0.00     0.117 A 
HETATM   25  C   UNL     1       8.778  21.131  53.844  1.00  0.00     0.044 A 
HETATM   26  F   UNL     1       9.692  20.475  55.912  1.00  0.00    -0.206 F 
ENDBRANCH  15  16
ENDBRANCH  12  15
ENDBRANCH  10  11
ENDBRANCH   3  10
BRANCH   1  27
HETATM   27  C   UNL     1       4.546  31.190  57.734  1.00  0.00     0.277 C 
BRANCH  27  28
HETATM   28  C   UNL     1       4.346  32.658  58.034  1.00  0.00     0.001 A 
HETATM   29  C   UNL     1       3.981  33.042  59.342  1.00  0.00     0.076 A 
HETATM   30  C   UNL     1       3.781  34.391  59.646  1.00  0.00     0.037 A 
HETATM   31  C   UNL     1       3.993  35.368  58.675  1.00  0.00     0.003 A 
HETATM   32  C   UNL     1       4.418  35.007  57.402  1.00  0.00     0.001 A 
HETATM   33  C   UNL     1       4.607  33.662  57.084  1.00  0.00     0.012 A 
BRANCH  29  34
HETATM   34  O   UNL     1       3.842  32.020  60.243  1.00  0.00    -0.351 OA
BRANCH  34  35
HETATM   35  C   UNL     1       3.669  32.390  61.616  1.00  0.00     0.171 C 
HETATM   36  C   UNL     1       4.960  32.072  62.350  1.00  0.00     0.034 C 
ENDBRANCH  34  35
ENDBRANCH  29  34
ENDBRANCH  27  28
ENDBRANCH   1  27
TORSDOF 8
ENDMDL
MODEL 10
REMARK VINA RESULT:      -8.6      3.688      8.853
REMARK  8 active torsions:
REMARK  status: ('A' for Active; 'I' for Inactive)
REMARK    1  A    between atoms: C_2  and  O_3 
REMARK    2  A    between atoms: O_3  and  C_4 
REMARK    3  A    between atoms: C_5  and  C_6 
REMARK    4  A    between atoms: C_6  and  N_7 
REMARK    5  A    between atoms: C_9  and  C_10 
REMARK    6  A    between atoms: C_10  and  C_11 
REMARK       I    between atoms: C_11  and  N_12 
REMARK    7  A    between atoms: N_12  and  C_13 
REMARK    8  A    between atoms: C_13  and  C_14 
ROOT
HETATM    1  N   UNL     1       5.684  31.707  57.234  1.00  0.00    -0.052 N 
HETATM    2  H   UNL     1       6.533  32.067  56.783  1.00  0.00     0.281 HD
HETATM    3  C   UNL     1       4.871  30.935  56.141  1.00  0.00     0.288 C 
HETATM    4  C   UNL     1       4.466  31.889  54.972  1.00  0.00     0.249 C 
HETATM    5  O   UNL     1       4.391  31.537  53.798  1.00  0.00    -0.271 OA
HETATM    6  N   UNL     1       4.136  33.177  55.310  1.00  0.00    -0.358 N 
HETATM    7  C   UNL     1       4.602  33.839  56.512  1.00  0.00     0.150 C 
HETATM    8  C   UNL     1       4.827  32.892  57.696  1.00  0.00     0.256 C 
HETATM    9  H   UNL     1       3.886  33.755  54.510  1.00  0.00     0.162 HD
ENDROOT
BRANCH   3  10
HETATM   10  C   UNL     1       5.653  29.747  55.567  1.00  0.00     0.145 C 
BRANCH  10  11
HETATM   11  C   UNL     1       4.811  28.501  55.737  1.00  0.00     0.220 C 
HETATM   12  N   UNL     1       5.133  27.751  56.836  1.00  0.00    -0.355 N 
HETATM   13  H   UNL     1       5.936  27.986  57.405  1.00  0.00     0.162 HD
HETATM   14  O   UNL     1       3.910  28.231  54.951  1.00  0.00    -0.274 OA
BRANCH  12  15
HETATM   15  C   UNL     1       4.634  26.403  56.995  1.00  0.00     0.179 C 
BRANCH  15  16
HETATM   16  C   UNL     1       5.541  25.524  56.213  1.00  0.00     0.028 A 
HETATM   17  N   UNL     1       5.385  25.336  54.858  1.00  0.00    -0.357 N 
HETATM   18  H   UNL     1       4.674  25.777  54.285  1.00  0.00     0.166 HD
HETATM   19  C   UNL     1       6.374  24.512  54.369  1.00  0.00     0.043 A 
HETATM   20  C   UNL     1       7.172  24.142  55.452  1.00  0.00    -0.005 A 
HETATM   21  C   UNL     1       6.617  24.075  53.061  1.00  0.00     0.033 A 
HETATM   22  C   UNL     1       6.635  24.776  56.605  1.00  0.00     0.040 A 
HETATM   23  C   UNL     1       8.267  23.288  55.228  1.00  0.00     0.056 A 
HETATM   24  C   UNL     1       8.516  22.849  53.928  1.00  0.00     0.117 A 
HETATM   25  C   UNL     1       7.711  23.230  52.860  1.00  0.00     0.044 A 
HETATM   26  F   UNL     1       9.560  22.040  53.703  1.00  0.00    -0.206 F 
ENDBRANCH  15  16
ENDBRANCH  12  15
ENDBRANCH  10  11
ENDBRANCH   3  10
BRANCH   1  27
HETATM   27  C   UNL     1       6.106  30.835  58.405  1.00  0.00     0.277 C 
BRANCH  27  28
HETATM   28  C   UNL     1       7.332  31.276  59.172  1.00  0.00     0.001 A 
HETATM   29  C   UNL     1       8.603  31.084  58.591  1.00  0.00     0.076 A 
HETATM   30  C   UNL     1       9.755  31.474  59.280  1.00  0.00     0.037 A 
HETATM   31  C   UNL     1       9.652  32.101  60.520  1.00  0.00     0.003 A 
HETATM   32  C   UNL     1       8.402  32.356  61.073  1.00  0.00     0.001 A 
HETATM   33  C   UNL     1       7.247  31.958  60.399  1.00  0.00     0.012 A 
BRANCH  29  34
HETATM   34  O   UNL     1       8.607  30.505  57.350  1.00  0.00    -0.351 OA
BRANCH  34  35
HETATM   35  C   UNL     1       9.443  29.354  57.177  1.00  0.00     0.171 C 
HETATM   36  C   UNL     1       8.567  28.120  57.305  1.00  0.00     0.034 C 
ENDBRANCH  34  35
ENDBRANCH  29  34
ENDBRANCH  27  28
ENDBRANCH   1  27
TORSDOF 8
ENDMDL
