MODEL 1
REMARK VINA RESULT:      -9.0      0.000      0.000
REMARK  8 active torsions:
REMARK  status: ('A' for Active; 'I' for Inactive)
REMARK    1  A    between atoms: O_2  and  C_3 
REMARK    2  A    between atoms: C_5  and  N_6 
REMARK    3  A    between atoms: N_6  and  C_7 
REMARK    4  A    between atoms: C_9  and  N_10 
REMARK    5  A    between atoms: C_12  and  C_13 
REMARK    6  A    between atoms: C_13  and  N_14 
REMARK    7  A    between atoms: N_18  and  C_19 
REMARK    8  A    between atoms: C_29  and  O_30 
ROOT
HETATM    1  C   UNL     1       5.889  31.463  58.155  1.00  0.00     0.731 A 
HETATM    2  N   UNL     1       4.578  31.249  58.134  1.00  0.00    -0.031 NA
HETATM    3  C   UNL     1       4.133  30.315  57.318  1.00  0.00     0.219 A 
HETATM    4  N   UNL     1       4.905  29.536  56.580  1.00  0.00    -0.200 NA
HETATM    5  C   UNL     1       6.209  29.786  56.679  1.00  0.00     0.174 A 
HETATM    6  N   UNL     1       6.750  30.726  57.453  1.00  0.00    -0.045 NA
ENDROOT
BRANCH   5   7
HETATM    7  C   UNL     1       7.146  28.737  56.112  1.00  0.00     0.316 C 
BRANCH   7   8
HETATM    8  N   UNL     1       6.623  27.282  56.177  1.00  0.00    -0.061 N 
HETATM    9  H   UNL     1       5.806  27.323  56.800  1.00  0.00     0.280 HD
HETATM   10  C   UNL     1       6.147  26.778  54.818  1.00  0.00     0.255 C 
HETATM   11  C   UNL     1       5.566  25.349  54.950  1.00  0.00     0.152 C 
HETATM   12  N   UNL     1       6.484  24.410  55.646  1.00  0.00    -0.364 N 
HETATM   13  C   UNL     1       7.028  24.910  56.934  1.00  0.00     0.152 C 
HETATM   14  C   UNL     1       7.640  26.326  56.794  1.00  0.00     0.255 C 
BRANCH  12  15
HETATM   15  C   UNL     1       7.274  23.544  54.912  1.00  0.00     0.102 A 
HETATM   16  N   UNL     1       8.128  22.755  55.591  1.00  0.00    -0.352 N 
HETATM   17  H   UNL     1       8.108  22.813  56.606  1.00  0.00     0.166 HD
HETATM   18  C   UNL     1       8.937  21.851  55.016  1.00  0.00     0.089 A 
HETATM   19  C   UNL     1       8.923  21.686  53.641  1.00  0.00     0.017 A 
HETATM   20  C   UNL     1       8.050  22.458  52.888  1.00  0.00     0.005 A 
HETATM   21  C   UNL     1       7.218  23.381  53.522  1.00  0.00     0.048 A 
ENDBRANCH  12  15
ENDBRANCH   7   8
ENDBRANCH   5   7
BRANCH   3  22
HETATM   22  N   UNL     1       2.774  30.093  57.278  1.00  0.00    -0.270 NA
HETATM   23  H   UNL     1       2.366  30.333  58.178  1.00  0.00     0.127 HD
HETATM   24  H   UNL     1       2.344  30.557  56.489  1.00  0.00     0.127 HD
ENDBRANCH   3  22
BRANCH   1  25
HETATM   25  N   UNL     1       6.442  32.459  58.949  1.00  0.00    -0.185 N 
HETATM   26  H   UNL     1       6.092  33.380  58.703  1.00  0.00     0.184 HD
BRANCH  25  27
HETATM   27  C   UNL     1       6.921  32.403  60.275  1.00  0.00     0.085 A 
HETATM   28  C   UNL     1       6.058  32.313  61.376  1.00  0.00     0.069 A 
HETATM   29  C   UNL     1       6.551  32.231  62.680  1.00  0.00     0.070 A 
HETATM   30  C   UNL     1       7.927  32.258  62.892  1.00  0.00     0.039 A 
HETATM   31  C   UNL     1       8.806  32.357  61.807  1.00  0.00     0.042 A 
HETATM   32  C   UNL     1       8.312  32.431  60.502  1.00  0.00     0.095 A 
BRANCH  29  33
HETATM   33  O   UNL     1       5.588  32.118  63.645  1.00  0.00    -0.356 OA
HETATM   34  C   UNL     1       5.380  33.250  64.483  1.00  0.00     0.210 C 
ENDBRANCH  29  33
BRANCH  32  35
HETATM   35  O   UNL     1       9.086  32.529  59.368  1.00  0.00    -0.354 OA
HETATM   36  C   UNL     1       9.856  31.379  59.026  1.00  0.00     0.210 C 
ENDBRANCH  32  35
ENDBRANCH  25  27
ENDBRANCH   1  25
TORSDOF 8
ENDMDL
MODEL 2
REMARK VINA RESULT:      -9.0      1.984      3.038
REMARK  8 active torsions:
REMARK  status: ('A' for Active; 'I' for Inactive)
REMARK    1  A    between atoms: O_2  and  C_3 
REMARK    2  A    between atoms: C_5  and  N_6 
REMARK    3  A    between atoms: N_6  and  C_7 
REMARK    4  A    between atoms: C_9  and  N_10 
REMARK    5  A    between atoms: C_12  and  C_13 
REMARK    6  A    between atoms: C_13  and  N_14 
REMARK    7  A    between atoms: N_18  and  C_19 
REMARK    8  A    between atoms: C_29  and  O_30 
ROOT
HETATM    1  C   UNL     1       7.563  28.961  57.249  1.00  0.00     0.731 A 
HETATM    2  N   UNL     1       7.978  27.900  57.931  1.00  0.00    -0.031 NA
HETATM    3  C   UNL     1       7.381  26.751  57.681  1.00  0.00     0.219 A 
HETATM    4  N   UNL     1       6.457  26.575  56.753  1.00  0.00    -0.200 NA
HETATM    5  C   UNL     1       6.117  27.677  56.086  1.00  0.00     0.174 A 
HETATM    6  N   UNL     1       6.643  28.884  56.288  1.00  0.00    -0.045 NA
ENDROOT
BRANCH   5   7
HETATM    7  C   UNL     1       5.309  27.480  54.818  1.00  0.00     0.316 C 
BRANCH   7   8
HETATM    8  N   UNL     1       5.902  26.468  53.809  1.00  0.00    -0.061 N 
HETATM    9  H   UNL     1       5.827  26.932  52.895  1.00  0.00     0.280 HD
HETATM   10  C   UNL     1       7.379  26.190  54.071  1.00  0.00     0.255 C 
HETATM   11  C   UNL     1       7.942  25.231  52.994  1.00  0.00     0.152 C 
HETATM   12  N   UNL     1       7.125  24.002  52.824  1.00  0.00    -0.364 N 
HETATM   13  C   UNL     1       5.670  24.240  52.650  1.00  0.00     0.152 C 
HETATM   14  C   UNL     1       5.099  25.172  53.748  1.00  0.00     0.255 C 
BRANCH  12  15
HETATM   15  C   UNL     1       7.510  22.825  53.440  1.00  0.00     0.102 A 
HETATM   16  N   UNL     1       7.461  22.782  54.786  1.00  0.00    -0.352 N 
HETATM   17  H   UNL     1       7.102  23.604  55.264  1.00  0.00     0.166 HD
HETATM   18  C   UNL     1       7.781  21.703  55.517  1.00  0.00     0.089 A 
HETATM   19  C   UNL     1       8.188  20.538  54.888  1.00  0.00     0.017 A 
HETATM   20  C   UNL     1       8.241  20.514  53.502  1.00  0.00     0.005 A 
HETATM   21  C   UNL     1       7.893  21.653  52.775  1.00  0.00     0.048 A 
ENDBRANCH  12  15
ENDBRANCH   7   8
ENDBRANCH   5   7
BRANCH   3  22
HETATM   22  N   UNL     1       7.794  25.646  58.392  1.00  0.00    -0.270 NA
HETATM   23  H   UNL     1       8.790  25.718  58.578  1.00  0.00     0.127 HD
HETATM   24  H   UNL     1       7.226  25.501  59.216  1.00  0.00     0.127 HD
ENDBRANCH   3  22
BRANCH   1  25
HETATM   25  N   UNL     1       8.103  30.220  57.481  1.00  0.00    -0.185 N 
HETATM   26  H   UNL     1       7.784  30.902  56.801  1.00  0.00     0.184 HD
BRANCH  25  27
HETATM   27  C   UNL     1       8.524  30.820  58.687  1.00  0.00     0.085 A 
HETATM   28  C   UNL     1       7.703  30.869  59.821  1.00  0.00     0.069 A 
HETATM   29  C   UNL     1       8.147  31.444  61.014  1.00  0.00     0.070 A 
HETATM   30  C   UNL     1       9.425  31.995  61.072  1.00  0.00     0.039 A 
HETATM   31  C   UNL     1      10.257  31.964  59.947  1.00  0.00     0.042 A 
HETATM   32  C   UNL     1       9.815  31.382  58.757  1.00  0.00     0.095 A 
BRANCH  29  33
HETATM   33  O   UNL     1       7.243  31.390  62.040  1.00  0.00    -0.356 OA
HETATM   34  C   UNL     1       7.428  32.313  63.109  1.00  0.00     0.210 C 
ENDBRANCH  29  33
BRANCH  32  35
HETATM   35  O   UNL     1      10.552  31.298  57.596  1.00  0.00    -0.354 OA
HETATM   36  C   UNL     1      11.333  30.117  57.427  1.00  0.00     0.210 C 
ENDBRANCH  32  35
ENDBRANCH  25  27
ENDBRANCH   1  25
TORSDOF 8
ENDMDL
MODEL 3
REMARK VINA RESULT:      -8.9      3.295     10.126
REMARK  8 active torsions:
REMARK  status: ('A' for Active; 'I' for Inactive)
REMARK    1  A    between atoms: O_2  and  C_3 
REMARK    2  A    between atoms: C_5  and  N_6 
REMARK    3  A    between atoms: N_6  and  C_7 
REMARK    4  A    between atoms: C_9  and  N_10 
REMARK    5  A    between atoms: C_12  and  C_13 
REMARK    6  A    between atoms: C_13  and  N_14 
REMARK    7  A    between atoms: N_18  and  C_19 
REMARK    8  A    between atoms: C_29  and  O_30 
ROOT
HETATM    1  C   UNL     1       8.226  28.526  57.741  1.00  0.00     0.731 A 
HETATM    2  N   UNL     1       9.364  28.604  57.061  1.00  0.00    -0.031 NA
HETATM    3  C   UNL     1      10.196  29.574  57.386  1.00  0.00     0.219 A 
HETATM    4  N   UNL     1      10.005  30.420  58.383  1.00  0.00    -0.200 NA
HETATM    5  C   UNL     1       8.858  30.259  59.041  1.00  0.00     0.174 A 
HETATM    6  N   UNL     1       7.945  29.328  58.768  1.00  0.00    -0.045 NA
ENDROOT
BRANCH   5   7
HETATM    7  C   UNL     1       8.732  30.979  60.370  1.00  0.00     0.316 C 
BRANCH   7   8
HETATM    8  N   UNL     1       7.284  31.175  60.878  1.00  0.00    -0.061 N 
HETATM    9  H   UNL     1       6.790  30.316  60.605  1.00  0.00     0.280 HD
HETATM   10  C   UNL     1       7.215  31.289  62.398  1.00  0.00     0.255 C 
HETATM   11  C   UNL     1       5.742  31.410  62.860  1.00  0.00     0.152 C 
HETATM   12  N   UNL     1       4.995  32.477  62.148  1.00  0.00    -0.364 N 
HETATM   13  C   UNL     1       5.111  32.440  60.668  1.00  0.00     0.152 C 
HETATM   14  C   UNL     1       6.587  32.354  60.205  1.00  0.00     0.255 C 
BRANCH  12  15
HETATM   15  C   UNL     1       4.819  33.714  62.743  1.00  0.00     0.102 A 
HETATM   16  N   UNL     1       3.907  33.806  63.729  1.00  0.00    -0.352 N 
HETATM   17  H   UNL     1       3.433  32.950  64.005  1.00  0.00     0.166 HD
HETATM   18  C   UNL     1       3.647  34.932  64.412  1.00  0.00     0.089 A 
HETATM   19  C   UNL     1       4.341  36.094  64.118  1.00  0.00     0.017 A 
HETATM   20  C   UNL     1       5.308  36.058  63.125  1.00  0.00     0.005 A 
HETATM   21  C   UNL     1       5.557  34.867  62.442  1.00  0.00     0.048 A 
ENDBRANCH  12  15
ENDBRANCH   7   8
ENDBRANCH   5   7
BRANCH   3  22
HETATM   22  N   UNL     1      11.373  29.674  56.678  1.00  0.00    -0.270 NA
HETATM   23  H   UNL     1      12.045  29.005  57.045  1.00  0.00     0.127 HD
HETATM   24  H   UNL     1      11.215  29.600  55.681  1.00  0.00     0.127 HD
ENDBRANCH   3  22
BRANCH   1  25
HETATM   25  N   UNL     1       7.271  27.566  57.435  1.00  0.00    -0.185 N 
HETATM   26  H   UNL     1       6.341  27.965  57.358  1.00  0.00     0.184 HD
BRANCH  25  27
HETATM   27  C   UNL     1       7.396  26.354  56.723  1.00  0.00     0.085 A 
HETATM   28  C   UNL     1       7.870  25.181  57.325  1.00  0.00     0.069 A 
HETATM   29  C   UNL     1       7.962  23.984  56.612  1.00  0.00     0.070 A 
HETATM   30  C   UNL     1       7.591  23.960  55.270  1.00  0.00     0.039 A 
HETATM   31  C   UNL     1       7.123  25.123  54.647  1.00  0.00     0.042 A 
HETATM   32  C   UNL     1       7.025  26.317  55.363  1.00  0.00     0.095 A 
BRANCH  29  33
HETATM   33  O   UNL     1       8.415  22.920  57.343  1.00  0.00    -0.356 OA
HETATM   34  C   UNL     1       8.435  21.654  56.694  1.00  0.00     0.210 C 
ENDBRANCH  29  33
BRANCH  32  35
HETATM   35  O   UNL     1       6.577  27.514  54.848  1.00  0.00    -0.354 OA
HETATM   36  C   UNL     1       7.397  28.119  53.850  1.00  0.00     0.210 C 
ENDBRANCH  32  35
ENDBRANCH  25  27
ENDBRANCH   1  25
TORSDOF 8
ENDMDL
MODEL 4
REMARK VINA RESULT:      -8.8      1.911      3.270
REMARK  8 active torsions:
REMARK  status: ('A' for Active; 'I' for Inactive)
REMARK    1  A    between atoms: O_2  and  C_3 
REMARK    2  A    between atoms: C_5  and  N_6 
REMARK    3  A    between atoms: N_6  and  C_7 
REMARK    4  A    between atoms: C_9  and  N_10 
REMARK    5  A    between atoms: C_12  and  C_13 
REMARK    6  A    between atoms: C_13  and  N_14 
REMARK    7  A    between atoms: N_18  and  C_19 
REMARK    8  A    between atoms: C_29  and  O_30 
ROOT
HETATM    1  C   UNL     1       8.218  30.441  59.078  1.00  0.00     0.731 A 
HETATM    2  N   UNL     1       9.473  30.813  58.851  1.00  0.00    -0.031 NA
HETATM    3  C   UNL     1      10.043  30.370  57.748  1.00  0.00     0.219 A 
HETATM    4  N   UNL     1       9.429  29.647  56.828  1.00  0.00    -0.200 NA
HETATM    5  C   UNL     1       8.164  29.343  57.108  1.00  0.00     0.174 A 
HETATM    6  N   UNL     1       7.513  29.720  58.207  1.00  0.00    -0.045 NA
ENDROOT
BRANCH   5   7
HETATM    7  C   UNL     1       7.328  28.797  55.965  1.00  0.00     0.316 C 
BRANCH   7   8
HETATM    8  N   UNL     1       6.773  27.369  56.178  1.00  0.00    -0.061 N 
HETATM    9  H   UNL     1       6.051  27.472  56.902  1.00  0.00     0.280 HD
HETATM   10  C   UNL     1       6.102  26.817  54.924  1.00  0.00     0.255 C 
HETATM   11  C   UNL     1       5.499  25.420  55.210  1.00  0.00     0.152 C 
HETATM   12  N   UNL     1       6.473  24.482  55.826  1.00  0.00    -0.364 N 
HETATM   13  C   UNL     1       7.202  25.023  57.001  1.00  0.00     0.152 C 
HETATM   14  C   UNL     1       7.834  26.406  56.704  1.00  0.00     0.255 C 
BRANCH  12  15
HETATM   15  C   UNL     1       7.129  23.551  55.041  1.00  0.00     0.102 A 
HETATM   16  N   UNL     1       7.707  22.508  55.666  1.00  0.00    -0.352 N 
HETATM   17  H   UNL     1       7.588  22.445  56.674  1.00  0.00     0.166 HD
HETATM   18  C   UNL     1       8.355  21.517  55.034  1.00  0.00     0.089 A 
HETATM   19  C   UNL     1       8.456  21.527  53.652  1.00  0.00     0.017 A 
HETATM   20  C   UNL     1       7.864  22.567  52.950  1.00  0.00     0.005 A 
HETATM   21  C   UNL     1       7.191  23.576  53.642  1.00  0.00     0.048 A 
ENDBRANCH  12  15
ENDBRANCH   7   8
ENDBRANCH   5   7
BRANCH   3  22
HETATM   22  N   UNL     1      11.349  30.738  57.509  1.00  0.00    -0.270 NA
HETATM   23  H   UNL     1      11.491  31.696  57.816  1.00  0.00     0.127 HD
HETATM   24  H   UNL     1      12.001  30.073  57.904  1.00  0.00     0.127 HD
ENDBRANCH   3  22
BRANCH   1  25
HETATM   25  N   UNL     1       7.555  30.822  60.237  1.00  0.00    -0.185 N 
HETATM   26  H   UNL     1       8.042  30.516  61.073  1.00  0.00     0.184 HD
BRANCH  25  27
HETATM   27  C   UNL     1       6.713  31.929  60.482  1.00  0.00     0.085 A 
HETATM   28  C   UNL     1       5.676  32.283  59.609  1.00  0.00     0.069 A 
HETATM   29  C   UNL     1       4.837  33.366  59.880  1.00  0.00     0.070 A 
HETATM   30  C   UNL     1       5.046  34.118  61.033  1.00  0.00     0.039 A 
HETATM   31  C   UNL     1       6.083  33.787  61.913  1.00  0.00     0.042 A 
HETATM   32  C   UNL     1       6.917  32.699  61.644  1.00  0.00     0.095 A 
BRANCH  29  33
HETATM   33  O   UNL     1       3.853  33.569  58.951  1.00  0.00    -0.356 OA
HETATM   34  C   UNL     1       3.797  32.652  57.863  1.00  0.00     0.210 C 
ENDBRANCH  29  33
BRANCH  32  35
HETATM   35  O   UNL     1       7.961  32.288  62.442  1.00  0.00    -0.354 OA
HETATM   36  C   UNL     1       7.948  32.750  63.791  1.00  0.00     0.210 C 
ENDBRANCH  32  35
ENDBRANCH  25  27
ENDBRANCH   1  25
TORSDOF 8
ENDMDL
MODEL 5
REMARK VINA RESULT:      -8.7      0.941      2.691
REMARK  8 active torsions:
REMARK  status: ('A' for Active; 'I' for Inactive)
REMARK    1  A    between atoms: O_2  and  C_3 
REMARK    2  A    between atoms: C_5  and  N_6 
REMARK    3  A    between atoms: N_6  and  C_7 
REMARK    4  A    between atoms: C_9  and  N_10 
REMARK    5  A    between atoms: C_12  and  C_13 
REMARK    6  A    between atoms: C_13  and  N_14 
REMARK    7  A    between atoms: N_18  and  C_19 
REMARK    8  A    between atoms: C_29  and  O_30 
ROOT
HETATM    1  C   UNL     1       5.338  31.176  58.297  1.00  0.00     0.731 A 
HETATM    2  N   UNL     1       4.097  31.415  57.889  1.00  0.00    -0.031 NA
HETATM    3  C   UNL     1       3.773  31.015  56.675  1.00  0.00     0.219 A 
HETATM    4  N   UNL     1       4.575  30.334  55.874  1.00  0.00    -0.200 NA
HETATM    5  C   UNL     1       5.791  30.102  56.365  1.00  0.00     0.174 A 
HETATM    6  N   UNL     1       6.217  30.491  57.565  1.00  0.00    -0.045 NA
ENDROOT
BRANCH   5   7
HETATM    7  C   UNL     1       6.631  29.071  55.636  1.00  0.00     0.316 C 
BRANCH   7   8
HETATM    8  N   UNL     1       6.463  27.615  56.133  1.00  0.00    -0.061 N 
HETATM    9  H   UNL     1       5.952  27.696  57.021  1.00  0.00     0.280 HD
HETATM   10  C   UNL     1       5.616  26.775  55.182  1.00  0.00     0.255 C 
HETATM   11  C   UNL     1       5.417  25.351  55.758  1.00  0.00     0.152 C 
HETATM   12  N   UNL     1       6.692  24.700  56.154  1.00  0.00    -0.364 N 
HETATM   13  C   UNL     1       7.575  25.529  57.013  1.00  0.00     0.152 C 
HETATM   14  C   UNL     1       7.802  26.941  56.420  1.00  0.00     0.255 C 
BRANCH  12  15
HETATM   15  C   UNL     1       7.298  23.792  55.304  1.00  0.00     0.102 A 
HETATM   16  N   UNL     1       8.059  22.831  55.861  1.00  0.00    -0.352 N 
HETATM   17  H   UNL     1       8.106  22.806  56.877  1.00  0.00     0.166 HD
HETATM   18  C   UNL     1       8.687  21.870  55.166  1.00  0.00     0.089 A 
HETATM   19  C   UNL     1       8.568  21.825  53.786  1.00  0.00     0.017 A 
HETATM   20  C   UNL     1       7.782  22.778  53.155  1.00  0.00     0.005 A 
HETATM   21  C   UNL     1       7.137  23.758  53.913  1.00  0.00     0.048 A 
ENDBRANCH  12  15
ENDBRANCH   7   8
ENDBRANCH   5   7
BRANCH   3  22
HETATM   22  N   UNL     1       2.493  31.269  56.236  1.00  0.00    -0.270 NA
HETATM   23  H   UNL     1       2.091  32.024  56.786  1.00  0.00     0.127 HD
HETATM   24  H   UNL     1       2.466  31.422  55.237  1.00  0.00     0.127 HD
ENDBRANCH   3  22
BRANCH   1  25
HETATM   25  N   UNL     1       5.779  31.604  59.542  1.00  0.00    -0.185 N 
HETATM   26  H   UNL     1       5.102  31.412  60.273  1.00  0.00     0.184 HD
BRANCH  25  27
HETATM   27  C   UNL     1       7.091  31.733  60.047  1.00  0.00     0.085 A 
HETATM   28  C   UNL     1       8.209  31.801  59.205  1.00  0.00     0.069 A 
HETATM   29  C   UNL     1       9.498  31.956  59.721  1.00  0.00     0.070 A 
HETATM   30  C   UNL     1       9.676  32.027  61.101  1.00  0.00     0.039 A 
HETATM   31  C   UNL     1       8.573  31.952  61.959  1.00  0.00     0.042 A 
HETATM   32  C   UNL     1       7.284  31.805  61.441  1.00  0.00     0.095 A 
BRANCH  29  33
HETATM   33  O   UNL     1      10.483  32.035  58.775  1.00  0.00    -0.356 OA
HETATM   34  C   UNL     1      10.493  31.026  57.771  1.00  0.00     0.210 C 
ENDBRANCH  29  33
BRANCH  32  35
HETATM   35  O   UNL     1       6.134  31.722  62.195  1.00  0.00    -0.354 OA
HETATM   36  C   UNL     1       6.108  32.492  63.395  1.00  0.00     0.210 C 
ENDBRANCH  32  35
ENDBRANCH  25  27
ENDBRANCH   1  25
TORSDOF 8
ENDMDL
MODEL 6
REMARK VINA RESULT:      -8.7      2.092      3.254
REMARK  8 active torsions:
REMARK  status: ('A' for Active; 'I' for Inactive)
REMARK    1  A    between atoms: O_2  and  C_3 
REMARK    2  A    between atoms: C_5  and  N_6 
REMARK    3  A    between atoms: N_6  and  C_7 
REMARK    4  A    between atoms: C_9  and  N_10 
REMARK    5  A    between atoms: C_12  and  C_13 
REMARK    6  A    between atoms: C_13  and  N_14 
REMARK    7  A    between atoms: N_18  and  C_19 
REMARK    8  A    between atoms: C_29  and  O_30 
ROOT
HETATM    1  C   UNL     1       7.520  28.982  57.610  1.00  0.00     0.731 A 
HETATM    2  N   UNL     1       7.918  27.827  58.130  1.00  0.00    -0.031 NA
HETATM    3  C   UNL     1       7.393  26.727  57.629  1.00  0.00     0.219 A 
HETATM    4  N   UNL     1       6.560  26.697  56.603  1.00  0.00    -0.200 NA
HETATM    5  C   UNL     1       6.233  27.890  56.112  1.00  0.00     0.174 A 
HETATM    6  N   UNL     1       6.689  29.055  56.570  1.00  0.00    -0.045 NA
ENDROOT
BRANCH   5   7
HETATM    7  C   UNL     1       5.546  27.903  54.761  1.00  0.00     0.316 C 
BRANCH   7   8
HETATM    8  N   UNL     1       6.011  26.806  53.774  1.00  0.00    -0.061 N 
HETATM    9  H   UNL     1       5.880  27.216  52.841  1.00  0.00     0.280 HD
HETATM   10  C   UNL     1       7.492  26.476  53.935  1.00  0.00     0.255 C 
HETATM   11  C   UNL     1       7.925  25.429  52.879  1.00  0.00     0.152 C 
HETATM   12  N   UNL     1       7.047  24.231  52.854  1.00  0.00    -0.364 N 
HETATM   13  C   UNL     1       5.593  24.524  52.782  1.00  0.00     0.152 C 
HETATM   14  C   UNL     1       5.154  25.546  53.860  1.00  0.00     0.255 C 
BRANCH  12  15
HETATM   15  C   UNL     1       7.433  23.077  53.512  1.00  0.00     0.102 A 
HETATM   16  N   UNL     1       7.337  23.064  54.855  1.00  0.00    -0.352 N 
HETATM   17  H   UNL     1       6.945  23.890  55.301  1.00  0.00     0.166 HD
HETATM   18  C   UNL     1       7.651  22.009  55.622  1.00  0.00     0.089 A 
HETATM   19  C   UNL     1       8.103  20.838  55.037  1.00  0.00     0.017 A 
HETATM   20  C   UNL     1       8.206  20.783  53.654  1.00  0.00     0.005 A 
HETATM   21  C   UNL     1       7.862  21.897  52.888  1.00  0.00     0.048 A 
ENDBRANCH  12  15
ENDBRANCH   7   8
ENDBRANCH   5   7
BRANCH   3  22
HETATM   22  N   UNL     1       7.788  25.523  58.170  1.00  0.00    -0.270 NA
HETATM   23  H   UNL     1       7.451  25.457  59.126  1.00  0.00     0.127 HD
HETATM   24  H   UNL     1       7.524  24.746  57.580  1.00  0.00     0.127 HD
ENDBRANCH   3  22
BRANCH   1  25
HETATM   25  N   UNL     1       7.985  30.193  58.109  1.00  0.00    -0.185 N 
HETATM   26  H   UNL     1       8.585  30.672  57.446  1.00  0.00     0.184 HD
BRANCH  25  27
HETATM   27  C   UNL     1       7.399  31.077  59.040  1.00  0.00     0.085 A 
HETATM   28  C   UNL     1       6.323  31.909  58.703  1.00  0.00     0.069 A 
HETATM   29  C   UNL     1       5.739  32.759  59.645  1.00  0.00     0.070 A 
HETATM   30  C   UNL     1       6.249  32.793  60.941  1.00  0.00     0.039 A 
HETATM   31  C   UNL     1       7.329  31.977  61.295  1.00  0.00     0.042 A 
HETATM   32  C   UNL     1       7.908  31.122  60.354  1.00  0.00     0.095 A 
BRANCH  29  33
HETATM   33  O   UNL     1       4.680  33.485  59.174  1.00  0.00    -0.356 OA
HETATM   34  C   UNL     1       4.707  33.845  57.797  1.00  0.00     0.210 C 
ENDBRANCH  29  33
BRANCH  32  35
HETATM   35  O   UNL     1       8.970  30.280  60.598  1.00  0.00    -0.354 OA
HETATM   36  C   UNL     1       9.451  30.241  61.940  1.00  0.00     0.210 C 
ENDBRANCH  32  35
ENDBRANCH  25  27
ENDBRANCH   1  25
TORSDOF 8
ENDMDL
MODEL 7
REMARK VINA RESULT:      -8.6      1.881      3.064
REMARK  8 active torsions:
REMARK  status: ('A' for Active; 'I' for Inactive)
REMARK    1  A    between atoms: O_2  and  C_3 
REMARK    2  A    between atoms: C_5  and  N_6 
REMARK    3  A    between atoms: N_6  and  C_7 
REMARK    4  A    between atoms: C_9  and  N_10 
REMARK    5  A    between atoms: C_12  and  C_13 
REMARK    6  A    between atoms: C_13  and  N_14 
REMARK    7  A    between atoms: N_18  and  C_19 
REMARK    8  A    between atoms: C_29  and  O_30 
ROOT
HETATM    1  C   UNL     1       7.092  31.230  59.284  1.00  0.00     0.731 A 
HETATM    2  N   UNL     1       8.280  31.820  59.333  1.00  0.00    -0.031 NA
HETATM    3  C   UNL     1       9.212  31.367  58.518  1.00  0.00     0.219 A 
HETATM    4  N   UNL     1       9.019  30.423  57.613  1.00  0.00    -0.200 NA
HETATM    5  C   UNL     1       7.794  29.903  57.600  1.00  0.00     0.174 A 
HETATM    6  N   UNL     1       6.798  30.275  58.402  1.00  0.00    -0.045 NA
ENDROOT
BRANCH   5   7
HETATM    7  C   UNL     1       7.428  29.058  56.395  1.00  0.00     0.316 C 
BRANCH   7   8
HETATM    8  N   UNL     1       6.981  27.612  56.716  1.00  0.00    -0.061 N 
HETATM    9  H   UNL     1       6.515  27.677  57.629  1.00  0.00     0.280 HD
HETATM   10  C   UNL     1       5.962  27.086  55.709  1.00  0.00     0.255 C 
HETATM   11  C   UNL     1       5.492  25.667  56.115  1.00  0.00     0.152 C 
HETATM   12  N   UNL     1       6.617  24.732  56.368  1.00  0.00    -0.364 N 
HETATM   13  C   UNL     1       7.667  25.251  57.281  1.00  0.00     0.152 C 
HETATM   14  C   UNL     1       8.162  26.656  56.856  1.00  0.00     0.255 C 
BRANCH  12  15
HETATM   15  C   UNL     1       7.010  23.840  55.386  1.00  0.00     0.102 A 
HETATM   16  N   UNL     1       6.937  24.252  54.107  1.00  0.00    -0.352 N 
HETATM   17  H   UNL     1       6.637  25.210  53.943  1.00  0.00     0.166 HD
HETATM   18  C   UNL     1       7.305  23.506  53.053  1.00  0.00     0.089 A 
HETATM   19  C   UNL     1       7.802  22.228  53.250  1.00  0.00     0.017 A 
HETATM   20  C   UNL     1       7.920  21.754  54.549  1.00  0.00     0.005 A 
HETATM   21  C   UNL     1       7.534  22.561  55.620  1.00  0.00     0.048 A 
ENDBRANCH  12  15
ENDBRANCH   7   8
ENDBRANCH   5   7
BRANCH   3  22
HETATM   22  N   UNL     1      10.454  31.962  58.569  1.00  0.00    -0.270 NA
HETATM   23  H   UNL     1      10.557  32.594  57.780  1.00  0.00     0.127 HD
HETATM   24  H   UNL     1      10.625  32.389  59.470  1.00  0.00     0.127 HD
ENDBRANCH   3  22
BRANCH   1  25
HETATM   25  N   UNL     1       6.066  31.611  60.140  1.00  0.00    -0.185 N 
HETATM   26  H   UNL     1       5.427  30.846  60.332  1.00  0.00     0.184 HD
BRANCH  25  27
HETATM   27  C   UNL     1       6.043  32.596  61.150  1.00  0.00     0.085 A 
HETATM   28  C   UNL     1       6.706  32.425  62.372  1.00  0.00     0.069 A 
HETATM   29  C   UNL     1       6.694  33.423  63.350  1.00  0.00     0.070 A 
HETATM   30  C   UNL     1       5.995  34.603  63.112  1.00  0.00     0.039 A 
HETATM   31  C   UNL     1       5.317  34.789  61.901  1.00  0.00     0.042 A 
HETATM   32  C   UNL     1       5.336  33.794  60.921  1.00  0.00     0.095 A 
BRANCH  29  33
HETATM   33  O   UNL     1       7.411  33.122  64.476  1.00  0.00    -0.356 OA
HETATM   34  C   UNL     1       6.985  33.729  65.692  1.00  0.00     0.210 C 
ENDBRANCH  29  33
BRANCH  32  35
HETATM   35  O   UNL     1       4.707  33.876  59.699  1.00  0.00    -0.354 OA
HETATM   36  C   UNL     1       3.292  34.056  59.727  1.00  0.00     0.210 C 
ENDBRANCH  32  35
ENDBRANCH  25  27
ENDBRANCH   1  25
TORSDOF 8
ENDMDL
MODEL 8
REMARK VINA RESULT:      -8.5      1.536      3.320
REMARK  8 active torsions:
REMARK  status: ('A' for Active; 'I' for Inactive)
REMARK    1  A    between atoms: O_2  and  C_3 
REMARK    2  A    between atoms: C_5  and  N_6 
REMARK    3  A    between atoms: N_6  and  C_7 
REMARK    4  A    between atoms: C_9  and  N_10 
REMARK    5  A    between atoms: C_12  and  C_13 
REMARK    6  A    between atoms: C_13  and  N_14 
REMARK    7  A    between atoms: N_18  and  C_19 
REMARK    8  A    between atoms: C_29  and  O_30 
ROOT
HETATM    1  C   UNL     1       4.848  31.845  58.841  1.00  0.00     0.731 A 
HETATM    2  N   UNL     1       4.053  32.826  58.432  1.00  0.00    -0.031 NA
HETATM    3  C   UNL     1       3.529  32.715  57.227  1.00  0.00     0.219 A 
HETATM    4  N   UNL     1       3.683  31.665  56.439  1.00  0.00    -0.200 NA
HETATM    5  C   UNL     1       4.465  30.706  56.931  1.00  0.00     0.174 A 
HETATM    6  N   UNL     1       5.060  30.742  58.122  1.00  0.00    -0.045 NA
ENDROOT
BRANCH   5   7
HETATM    7  C   UNL     1       4.423  29.366  56.222  1.00  0.00     0.316 C 
BRANCH   7   8
HETATM    8  N   UNL     1       5.796  28.819  55.766  1.00  0.00    -0.061 N 
HETATM    9  H   UNL     1       6.462  29.575  55.968  1.00  0.00     0.280 HD
HETATM   10  C   UNL     1       6.225  27.593  56.567  1.00  0.00     0.255 C 
HETATM   11  C   UNL     1       7.635  27.130  56.123  1.00  0.00     0.152 C 
HETATM   12  N   UNL     1       7.752  26.952  54.653  1.00  0.00    -0.364 N 
HETATM   13  C   UNL     1       7.265  28.098  53.845  1.00  0.00     0.152 C 
HETATM   14  C   UNL     1       5.841  28.540  54.266  1.00  0.00     0.255 C 
BRANCH  12  15
HETATM   15  C   UNL     1       7.646  25.689  54.099  1.00  0.00     0.102 A 
HETATM   16  N   UNL     1       7.305  24.676  54.918  1.00  0.00    -0.352 N 
HETATM   17  H   UNL     1       7.104  24.910  55.887  1.00  0.00     0.166 HD
HETATM   18  C   UNL     1       7.141  23.406  54.518  1.00  0.00     0.089 A 
HETATM   19  C   UNL     1       7.320  23.072  53.186  1.00  0.00     0.017 A 
HETATM   20  C   UNL     1       7.654  24.076  52.288  1.00  0.00     0.005 A 
HETATM   21  C   UNL     1       7.808  25.387  52.740  1.00  0.00     0.048 A 
ENDBRANCH  12  15
ENDBRANCH   7   8
ENDBRANCH   5   7
BRANCH   3  22
HETATM   22  N   UNL     1       2.713  33.733  56.786  1.00  0.00    -0.270 NA
HETATM   23  H   UNL     1       2.395  34.279  57.582  1.00  0.00     0.127 HD
HETATM   24  H   UNL     1       3.158  34.278  56.060  1.00  0.00     0.127 HD
ENDBRANCH   3  22
BRANCH   1  25
HETATM   25  N   UNL     1       5.481  31.901  60.077  1.00  0.00    -0.185 N 
HETATM   26  H   UNL     1       4.933  31.456  60.806  1.00  0.00     0.184 HD
BRANCH  25  27
HETATM   27  C   UNL     1       6.856  31.950  60.392  1.00  0.00     0.085 A 
HETATM   28  C   UNL     1       7.844  32.043  59.404  1.00  0.00     0.069 A 
HETATM   29  C   UNL     1       9.199  32.116  59.736  1.00  0.00     0.070 A 
HETATM   30  C   UNL     1       9.575  32.080  61.076  1.00  0.00     0.039 A 
HETATM   31  C   UNL     1       8.604  31.978  62.079  1.00  0.00     0.042 A 
HETATM   32  C   UNL     1       7.249  31.911  61.746  1.00  0.00     0.095 A 
BRANCH  29  33
HETATM   33  O   UNL     1      10.041  32.233  58.664  1.00  0.00    -0.356 OA
HETATM   34  C   UNL     1      10.311  31.047  57.925  1.00  0.00     0.210 C 
ENDBRANCH  29  33
BRANCH  32  35
HETATM   35  O   UNL     1       6.216  31.811  62.651  1.00  0.00    -0.354 OA
HETATM   36  C   UNL     1       6.233  32.737  63.735  1.00  0.00     0.210 C 
ENDBRANCH  32  35
ENDBRANCH  25  27
ENDBRANCH   1  25
TORSDOF 8
ENDMDL
MODEL 9
REMARK VINA RESULT:      -8.5      4.574     10.065
REMARK  8 active torsions:
REMARK  status: ('A' for Active; 'I' for Inactive)
REMARK    1  A    between atoms: O_2  and  C_3 
REMARK    2  A    between atoms: C_5  and  N_6 
REMARK    3  A    between atoms: N_6  and  C_7 
REMARK    4  A    between atoms: C_9  and  N_10 
REMARK    5  A    between atoms: C_12  and  C_13 
REMARK    6  A    between atoms: C_13  and  N_14 
REMARK    7  A    between atoms: N_18  and  C_19 
REMARK    8  A    between atoms: C_29  and  O_30 
ROOT
HETATM    1  C   UNL     1       4.975  26.511  53.105  1.00  0.00     0.731 A 
HETATM    2  N   UNL     1       5.534  25.318  52.941  1.00  0.00    -0.031 NA
HETATM    3  C   UNL     1       6.258  24.850  53.939  1.00  0.00     0.219 A 
HETATM    4  N   UNL     1       6.402  25.453  55.106  1.00  0.00    -0.200 NA
HETATM    5  C   UNL     1       5.785  26.628  55.208  1.00  0.00     0.174 A 
HETATM    6  N   UNL     1       5.056  27.194  54.247  1.00  0.00    -0.045 NA
ENDROOT
BRANCH   5   7
HETATM    7  C   UNL     1       5.652  27.206  56.604  1.00  0.00     0.316 C 
BRANCH   7   8
HETATM    8  N   UNL     1       6.443  28.512  56.854  1.00  0.00    -0.061 N 
HETATM    9  H   UNL     1       6.667  28.869  55.917  1.00  0.00     0.280 HD
HETATM   10  C   UNL     1       5.604  29.568  57.568  1.00  0.00     0.255 C 
HETATM   11  C   UNL     1       6.415  30.877  57.729  1.00  0.00     0.152 C 
HETATM   12  N   UNL     1       7.750  30.662  58.343  1.00  0.00    -0.364 N 
HETATM   13  C   UNL     1       8.557  29.583  57.720  1.00  0.00     0.152 C 
HETATM   14  C   UNL     1       7.757  28.263  57.590  1.00  0.00     0.255 C 
BRANCH  12  15
HETATM   15  C   UNL     1       7.937  30.901  59.693  1.00  0.00     0.102 A 
HETATM   16  N   UNL     1       6.921  31.468  60.371  1.00  0.00    -0.352 N 
HETATM   17  H   UNL     1       6.062  31.646  59.857  1.00  0.00     0.166 HD
HETATM   18  C   UNL     1       6.950  31.736  61.685  1.00  0.00     0.089 A 
HETATM   19  C   UNL     1       8.075  31.422  62.431  1.00  0.00     0.017 A 
HETATM   20  C   UNL     1       9.148  30.818  61.792  1.00  0.00     0.005 A 
HETATM   21  C   UNL     1       9.079  30.548  60.424  1.00  0.00     0.048 A 
ENDBRANCH  12  15
ENDBRANCH   7   8
ENDBRANCH   5   7
BRANCH   3  22
HETATM   22  N   UNL     1       6.854  23.619  53.775  1.00  0.00    -0.270 NA
HETATM   23  H   UNL     1       6.479  22.969  54.461  1.00  0.00     0.127 HD
HETATM   24  H   UNL     1       6.789  23.298  52.819  1.00  0.00     0.127 HD
ENDBRANCH   3  22
BRANCH   1  25
HETATM   25  N   UNL     1       4.234  27.102  52.089  1.00  0.00    -0.185 N 
HETATM   26  H   UNL     1       3.491  27.689  52.453  1.00  0.00     0.184 HD
BRANCH  25  27
HETATM   27  C   UNL     1       4.616  27.468  50.780  1.00  0.00     0.085 A 
HETATM   28  C   UNL     1       4.412  26.622  49.682  1.00  0.00     0.069 A 
HETATM   29  C   UNL     1       4.772  27.011  48.389  1.00  0.00     0.070 A 
HETATM   30  C   UNL     1       5.360  28.258  48.192  1.00  0.00     0.039 A 
HETATM   31  C   UNL     1       5.581  29.114  49.277  1.00  0.00     0.042 A 
HETATM   32  C   UNL     1       5.214  28.726  50.568  1.00  0.00     0.095 A 
BRANCH  29  33
HETATM   33  O   UNL     1       4.483  26.092  47.419  1.00  0.00    -0.356 OA
HETATM   34  C   UNL     1       3.228  25.427  47.514  1.00  0.00     0.210 C 
ENDBRANCH  29  33
BRANCH  32  35
HETATM   35  O   UNL     1       5.384  29.490  51.701  1.00  0.00    -0.354 OA
HETATM   36  C   UNL     1       4.477  30.576  51.875  1.00  0.00     0.210 C 
ENDBRANCH  32  35
ENDBRANCH  25  27
ENDBRANCH   1  25
TORSDOF 8
ENDMDL
MODEL 10
REMARK VINA RESULT:      -8.5      5.320      8.952
REMARK  8 active torsions:
REMARK  status: ('A' for Active; 'I' for Inactive)
REMARK    1  A    between atoms: O_2  and  C_3 
REMARK    2  A    between atoms: C_5  and  N_6 
REMARK    3  A    between atoms: N_6  and  C_7 
REMARK    4  A    between atoms: C_9  and  N_10 
REMARK    5  A    between atoms: C_12  and  C_13 
REMARK    6  A    between atoms: C_13  and  N_14 
REMARK    7  A    between atoms: N_18  and  C_19 
REMARK    8  A    between atoms: C_29  and  O_30 
ROOT
HETATM    1  C   UNL     1       6.325  26.159  55.344  1.00  0.00     0.731 A 
HETATM    2  N   UNL     1       7.370  26.672  55.983  1.00  0.00    -0.031 NA
HETATM    3  C   UNL     1       7.507  27.983  55.959  1.00  0.00     0.219 A 
HETATM    4  N   UNL     1       6.640  28.815  55.408  1.00  0.00    -0.200 NA
HETATM    5  C   UNL     1       5.601  28.230  54.817  1.00  0.00     0.174 A 
HETATM    6  N   UNL     1       5.393  26.915  54.765  1.00  0.00    -0.045 NA
ENDROOT
BRANCH   5   7
HETATM    7  C   UNL     1       4.433  29.127  54.453  1.00  0.00     0.316 C 
BRANCH   7   8
HETATM    8  N   UNL     1       4.341  29.515  52.958  1.00  0.00    -0.061 N 
HETATM    9  H   UNL     1       4.423  30.539  52.945  1.00  0.00     0.280 HD
HETATM   10  C   UNL     1       5.497  28.944  52.141  1.00  0.00     0.255 C 
HETATM   11  C   UNL     1       5.400  29.420  50.671  1.00  0.00     0.152 C 
HETATM   12  N   UNL     1       4.065  29.174  50.067  1.00  0.00    -0.364 N 
HETATM   13  C   UNL     1       2.916  29.645  50.880  1.00  0.00     0.152 C 
HETATM   14  C   UNL     1       2.995  29.141  52.343  1.00  0.00     0.255 C 
BRANCH  12  15
HETATM   15  C   UNL     1       3.865  28.069  49.259  1.00  0.00     0.102 A 
HETATM   16  N   UNL     1       2.593  27.725  48.979  1.00  0.00    -0.352 N 
HETATM   17  H   UNL     1       1.858  28.326  49.344  1.00  0.00     0.166 HD
HETATM   18  C   UNL     1       2.248  26.695  48.192  1.00  0.00     0.089 A 
HETATM   19  C   UNL     1       3.229  25.912  47.608  1.00  0.00     0.017 A 
HETATM   20  C   UNL     1       4.559  26.228  47.843  1.00  0.00     0.005 A 
HETATM   21  C   UNL     1       4.881  27.312  48.661  1.00  0.00     0.048 A 
ENDBRANCH  12  15
ENDBRANCH   7   8
ENDBRANCH   5   7
BRANCH   3  22
HETATM   22  N   UNL     1       8.594  28.526  56.607  1.00  0.00    -0.270 NA
HETATM   23  H   UNL     1       8.528  29.540  56.584  1.00  0.00     0.127 HD
HETATM   24  H   UNL     1       8.708  28.137  57.533  1.00  0.00     0.127 HD
ENDBRANCH   3  22
BRANCH   1  25
HETATM   25  N   UNL     1       6.128  24.785  55.277  1.00  0.00    -0.185 N 
HETATM   26  H   UNL     1       5.144  24.544  55.235  1.00  0.00     0.184 HD
BRANCH  25  27
HETATM   27  C   UNL     1       6.952  23.774  54.738  1.00  0.00     0.085 A 
HETATM   28  C   UNL     1       7.717  22.926  55.549  1.00  0.00     0.069 A 
HETATM   29  C   UNL     1       8.507  21.913  55.000  1.00  0.00     0.070 A 
HETATM   30  C   UNL     1       8.547  21.755  53.617  1.00  0.00     0.039 A 
HETATM   31  C   UNL     1       7.798  22.598  52.788  1.00  0.00     0.042 A 
HETATM   32  C   UNL     1       7.003  23.606  53.339  1.00  0.00     0.095 A 
BRANCH  29  33
HETATM   33  O   UNL     1       9.171  21.149  55.920  1.00  0.00    -0.356 OA
HETATM   34  C   UNL     1       8.510  20.912  57.158  1.00  0.00     0.210 C 
ENDBRANCH  29  33
BRANCH  32  35
HETATM   35  O   UNL     1       6.229  24.486  52.617  1.00  0.00    -0.354 OA
HETATM   36  C   UNL     1       6.929  25.413  51.790  1.00  0.00     0.210 C 
ENDBRANCH  32  35
ENDBRANCH  25  27
ENDBRANCH   1  25
TORSDOF 8
ENDMDL
