MODEL 1
REMARK VINA RESULT:     -10.4      0.000      0.000
REMARK  2 active torsions:
REMARK  status: ('A' for Active; 'I' for Inactive)
REMARK    1  A    between atoms: C_4  and  C_5 
REMARK    2  A    between atoms: N_11  and  C_12 
ROOT
HETATM    1  C   UNL     1       7.042  24.699  54.747  1.00  0.00     0.069 A 
HETATM    2  N   UNL     1       7.805  25.329  55.715  1.00  0.00    -0.343 N 
HETATM    3  C   UNL     1       7.641  26.652  56.012  1.00  0.00     0.119 A 
HETATM    4  C   UNL     1       6.674  27.376  55.422  1.00  0.00     0.125 A 
HETATM    5  C   UNL     1       6.718  28.717  56.027  1.00  0.00     0.280 A 
HETATM    6  O   UNL     1       5.969  29.636  55.749  1.00  0.00    -0.265 OA
HETATM    7  N   UNL     1       7.768  28.669  56.959  1.00  0.00    -0.236 N 
HETATM    8  N   UNL     1       8.367  27.392  56.924  1.00  0.00    -0.179 NA
HETATM    9  C   UNL     1       5.778  26.779  54.424  1.00  0.00     0.215 A 
HETATM   10  O   UNL     1       4.871  27.415  53.901  1.00  0.00    -0.285 OA
HETATM   11  C   UNL     1       6.046  25.333  54.088  1.00  0.00     0.112 A 
HETATM   12 CL   UNL     1       5.057  24.606  52.879  1.00  0.00    -0.077 Cl
HETATM   13  H   UNL     1       8.628  24.849  56.067  1.00  0.00     0.167 HD
HETATM   14  H   UNL     1       8.368  26.938  57.837  1.00  0.00     0.155 HD
ENDROOT
BRANCH   7  15
HETATM   15  C   UNL     1       8.275  29.683  57.799  1.00  0.00     0.055 A 
HETATM   16  C   UNL     1       7.485  30.254  58.809  1.00  0.00     0.034 A 
HETATM   17  C   UNL     1       7.999  31.250  59.646  1.00  0.00     0.044 A 
HETATM   18  C   UNL     1       9.305  31.684  59.477  1.00  0.00     0.116 A 
HETATM   19  F   UNL     1       9.798  32.637  60.278  1.00  0.00    -0.206 F 
HETATM   20  C   UNL     1      10.108  31.142  58.484  1.00  0.00     0.044 A 
HETATM   21  C   UNL     1       9.594  30.145  57.648  1.00  0.00     0.034 A 
ENDBRANCH   7  15
BRANCH   1  22
HETATM   22  C   UNL     1       7.390  23.292  54.485  1.00  0.00    -0.008 A 
HETATM   23  C   UNL     1       7.684  22.869  53.183  1.00  0.00     0.014 A 
HETATM   24  C   UNL     1       8.023  21.537  52.938  1.00  0.00     0.001 A 
HETATM   25  C   UNL     1       8.071  20.625  53.991  1.00  0.00     0.000 A 
HETATM   26  C   UNL     1       7.781  21.040  55.290  1.00  0.00     0.001 A 
HETATM   27  C   UNL     1       7.442  22.371  55.538  1.00  0.00     0.014 A 
ENDBRANCH   1  22
TORSDOF 2
ENDMDL
MODEL 2
REMARK VINA RESULT:      -9.7      3.455      8.052
REMARK  2 active torsions:
REMARK  status: ('A' for Active; 'I' for Inactive)
REMARK    1  A    between atoms: C_4  and  C_5 
REMARK    2  A    between atoms: N_11  and  C_12 
ROOT
HETATM    1  C   UNL     1       7.623  28.980  57.657  1.00  0.00     0.069 A 
HETATM    2  N   UNL     1       8.307  27.841  57.267  1.00  0.00    -0.343 N 
HETATM    3  C   UNL     1       7.684  26.816  56.614  1.00  0.00     0.119 A 
HETATM    4  C   UNL     1       6.392  26.911  56.258  1.00  0.00     0.125 A 
HETATM    5  C   UNL     1       6.068  25.689  55.503  1.00  0.00     0.280 A 
HETATM    6  O   UNL     1       4.985  25.439  55.006  1.00  0.00    -0.265 OA
HETATM    7  N   UNL     1       7.254  24.936  55.491  1.00  0.00    -0.236 N 
HETATM    8  N   UNL     1       8.252  25.623  56.214  1.00  0.00    -0.179 NA
HETATM    9  C   UNL     1       5.600  28.105  56.577  1.00  0.00     0.215 A 
HETATM   10  O   UNL     1       4.430  28.222  56.231  1.00  0.00    -0.285 OA
HETATM   11  C   UNL     1       6.320  29.177  57.356  1.00  0.00     0.112 A 
HETATM   12 CL   UNL     1       5.415  30.573  57.805  1.00  0.00    -0.077 Cl
HETATM   13  H   UNL     1       9.236  27.684  57.647  1.00  0.00     0.167 HD
HETATM   14  H   UNL     1       9.089  25.791  55.657  1.00  0.00     0.155 HD
ENDROOT
BRANCH   7  15
HETATM   15  C   UNL     1       7.509  23.663  54.938  1.00  0.00     0.055 A 
HETATM   16  C   UNL     1       7.633  23.484  53.552  1.00  0.00     0.034 A 
HETATM   17  C   UNL     1       7.898  22.221  53.011  1.00  0.00     0.044 A 
HETATM   18  C   UNL     1       8.036  21.128  53.854  1.00  0.00     0.116 A 
HETATM   19  F   UNL     1       8.290  19.919  53.337  1.00  0.00    -0.206 F 
HETATM   20  C   UNL     1       7.913  21.274  55.228  1.00  0.00     0.044 A 
HETATM   21  C   UNL     1       7.650  22.537  55.768  1.00  0.00     0.034 A 
ENDBRANCH   7  15
BRANCH   1  22
HETATM   22  C   UNL     1       8.413  29.960  58.421  1.00  0.00    -0.008 A 
HETATM   23  C   UNL     1       9.487  30.627  57.817  1.00  0.00     0.014 A 
HETATM   24  C   UNL     1      10.228  31.563  58.540  1.00  0.00     0.001 A 
HETATM   25  C   UNL     1       9.900  31.837  59.867  1.00  0.00     0.000 A 
HETATM   26  C   UNL     1       8.832  31.179  60.474  1.00  0.00     0.001 A 
HETATM   27  C   UNL     1       8.088  30.243  59.753  1.00  0.00     0.014 A 
ENDBRANCH   1  22
TORSDOF 2
ENDMDL
MODEL 3
REMARK VINA RESULT:      -9.7      3.493      8.111
REMARK  2 active torsions:
REMARK  status: ('A' for Active; 'I' for Inactive)
REMARK    1  A    between atoms: C_4  and  C_5 
REMARK    2  A    between atoms: N_11  and  C_12 
ROOT
HETATM    1  C   UNL     1       7.720  28.881  57.796  1.00  0.00     0.069 A 
HETATM    2  N   UNL     1       8.445  27.727  57.551  1.00  0.00    -0.343 N 
HETATM    3  C   UNL     1       7.871  26.622  56.989  1.00  0.00     0.119 A 
HETATM    4  C   UNL     1       6.591  26.644  56.582  1.00  0.00     0.125 A 
HETATM    5  C   UNL     1       6.324  25.341  55.950  1.00  0.00     0.280 A 
HETATM    6  O   UNL     1       5.266  25.011  55.446  1.00  0.00    -0.265 OA
HETATM    7  N   UNL     1       7.526  24.624  56.057  1.00  0.00    -0.236 N 
HETATM    8  N   UNL     1       8.481  25.410  56.737  1.00  0.00    -0.179 NA
HETATM    9  C   UNL     1       5.759  27.842  56.747  1.00  0.00     0.215 A 
HETATM   10  O   UNL     1       4.600  27.890  56.352  1.00  0.00    -0.285 OA
HETATM   11  C   UNL     1       6.425  29.009  57.432  1.00  0.00     0.112 A 
HETATM   12 CL   UNL     1       5.470  30.418  57.702  1.00  0.00    -0.077 Cl
HETATM   13  H   UNL     1       9.363  27.636  57.977  1.00  0.00     0.167 HD
HETATM   14  H   UNL     1       9.334  25.542  56.194  1.00  0.00     0.155 HD
ENDROOT
BRANCH   7  15
HETATM   15  C   UNL     1       7.832  23.308  55.650  1.00  0.00     0.055 A 
HETATM   16  C   UNL     1       7.717  22.916  54.307  1.00  0.00     0.034 A 
HETATM   17  C   UNL     1       8.033  21.613  53.909  1.00  0.00     0.044 A 
HETATM   18  C   UNL     1       8.463  20.692  54.852  1.00  0.00     0.116 A 
HETATM   19  F   UNL     1       8.766  19.444  54.471  1.00  0.00    -0.206 F 
HETATM   20  C   UNL     1       8.581  21.048  56.187  1.00  0.00     0.044 A 
HETATM   21  C   UNL     1       8.266  22.352  56.584  1.00  0.00     0.034 A 
ENDBRANCH   7  15
BRANCH   1  22
HETATM   22  C   UNL     1       8.458  29.957  58.479  1.00  0.00    -0.008 A 
HETATM   23  C   UNL     1       8.104  30.339  59.779  1.00  0.00     0.014 A 
HETATM   24  C   UNL     1       8.811  31.353  60.429  1.00  0.00     0.001 A 
HETATM   25  C   UNL     1       9.872  31.987  59.784  1.00  0.00     0.000 A 
HETATM   26  C   UNL     1      10.231  31.610  58.491  1.00  0.00     0.001 A 
HETATM   27  C   UNL     1       9.526  30.596  57.839  1.00  0.00     0.014 A 
ENDBRANCH   1  22
TORSDOF 2
ENDMDL
MODEL 4
REMARK VINA RESULT:      -9.6      5.070      7.177
REMARK  2 active torsions:
REMARK  status: ('A' for Active; 'I' for Inactive)
REMARK    1  A    between atoms: C_4  and  C_5 
REMARK    2  A    between atoms: N_11  and  C_12 
ROOT
HETATM    1  C   UNL     1       7.148  24.302  53.634  1.00  0.00     0.069 A 
HETATM    2  N   UNL     1       6.608  24.472  52.371  1.00  0.00    -0.343 N 
HETATM    3  C   UNL     1       6.126  25.679  51.951  1.00  0.00     0.119 A 
HETATM    4  C   UNL     1       6.229  26.770  52.729  1.00  0.00     0.125 A 
HETATM    5  C   UNL     1       5.701  27.901  51.948  1.00  0.00     0.280 A 
HETATM    6  O   UNL     1       5.655  29.056  52.332  1.00  0.00    -0.265 OA
HETATM    7  N   UNL     1       5.300  27.349  50.721  1.00  0.00    -0.236 N 
HETATM    8  N   UNL     1       5.533  25.957  50.735  1.00  0.00    -0.179 NA
HETATM    9  C   UNL     1       6.838  26.699  54.063  1.00  0.00     0.215 A 
HETATM   10  O   UNL     1       6.970  27.689  54.772  1.00  0.00    -0.285 OA
HETATM   11  C   UNL     1       7.293  25.329  54.500  1.00  0.00     0.112 A 
HETATM   12 CL   UNL     1       7.962  25.185  56.082  1.00  0.00    -0.077 Cl
HETATM   13  H   UNL     1       6.388  23.644  51.825  1.00  0.00     0.167 HD
HETATM   14  H   UNL     1       6.129  25.654  49.966  1.00  0.00     0.155 HD
ENDROOT
BRANCH   7  15
HETATM   15  C   UNL     1       4.694  27.968  49.607  1.00  0.00     0.055 A 
HETATM   16  C   UNL     1       5.452  28.364  48.493  1.00  0.00     0.034 A 
HETATM   17  C   UNL     1       4.842  28.967  47.387  1.00  0.00     0.044 A 
HETATM   18  C   UNL     1       3.473  29.182  47.390  1.00  0.00     0.116 A 
HETATM   19  F   UNL     1       2.889  29.758  46.332  1.00  0.00    -0.206 F 
HETATM   20  C   UNL     1       2.699  28.807  48.479  1.00  0.00     0.044 A 
HETATM   21  C   UNL     1       3.309  28.202  49.584  1.00  0.00     0.034 A 
ENDBRANCH   7  15
BRANCH   1  22
HETATM   22  C   UNL     1       7.550  22.925  53.968  1.00  0.00    -0.008 A 
HETATM   23  C   UNL     1       7.435  22.456  55.282  1.00  0.00     0.014 A 
HETATM   24  C   UNL     1       7.808  21.147  55.595  1.00  0.00     0.001 A 
HETATM   25  C   UNL     1       8.297  20.304  54.598  1.00  0.00     0.000 A 
HETATM   26  C   UNL     1       8.412  20.764  53.287  1.00  0.00     0.001 A 
HETATM   27  C   UNL     1       8.039  22.072  52.971  1.00  0.00     0.014 A 
ENDBRANCH   1  22
TORSDOF 2
ENDMDL
MODEL 5
REMARK VINA RESULT:      -9.5      3.885      6.040
REMARK  2 active torsions:
REMARK  status: ('A' for Active; 'I' for Inactive)
REMARK    1  A    between atoms: C_4  and  C_5 
REMARK    2  A    between atoms: N_11  and  C_12 
ROOT
HETATM    1  C   UNL     1       8.379  29.032  57.525  1.00  0.00     0.069 A 
HETATM    2  N   UNL     1       7.527  29.452  58.532  1.00  0.00    -0.343 N 
HETATM    3  C   UNL     1       7.882  30.434  59.412  1.00  0.00     0.119 A 
HETATM    4  C   UNL     1       9.050  31.085  59.284  1.00  0.00     0.125 A 
HETATM    5  C   UNL     1       9.075  32.125  60.325  1.00  0.00     0.280 A 
HETATM    6  O   UNL     1       9.979  32.924  60.496  1.00  0.00    -0.265 OA
HETATM    7  N   UNL     1       7.864  31.981  61.021  1.00  0.00    -0.236 N 
HETATM    8  N   UNL     1       7.135  30.904  60.474  1.00  0.00    -0.179 NA
HETATM    9  C   UNL     1       9.995  30.749  58.211  1.00  0.00     0.215 A 
HETATM   10  O   UNL     1      11.050  31.353  58.059  1.00  0.00    -0.285 OA
HETATM   11  C   UNL     1       9.580  29.613  57.309  1.00  0.00     0.112 A 
HETATM   12 CL   UNL     1      10.683  29.143  56.071  1.00  0.00    -0.077 Cl
HETATM   13  H   UNL     1       6.710  28.885  58.739  1.00  0.00     0.167 HD
HETATM   14  H   UNL     1       6.204  31.182  60.165  1.00  0.00     0.155 HD
ENDROOT
BRANCH   7  15
HETATM   15  C   UNL     1       7.374  32.692  62.137  1.00  0.00     0.055 A 
HETATM   16  C   UNL     1       6.308  33.597  62.013  1.00  0.00     0.034 A 
HETATM   17  C   UNL     1       5.820  34.290  63.126  1.00  0.00     0.044 A 
HETATM   18  C   UNL     1       6.398  34.085  64.370  1.00  0.00     0.116 A 
HETATM   19  F   UNL     1       5.932  34.747  65.436  1.00  0.00    -0.206 F 
HETATM   20  C   UNL     1       7.457  33.201  64.523  1.00  0.00     0.044 A 
HETATM   21  C   UNL     1       7.943  32.508  63.409  1.00  0.00     0.034 A 
ENDBRANCH   7  15
BRANCH   1  22
HETATM   22  C   UNL     1       7.887  27.911  56.707  1.00  0.00    -0.008 A 
HETATM   23  C   UNL     1       7.844  26.616  57.239  1.00  0.00     0.014 A 
HETATM   24  C   UNL     1       7.368  25.556  56.466  1.00  0.00     0.001 A 
HETATM   25  C   UNL     1       6.932  25.785  55.161  1.00  0.00     0.000 A 
HETATM   26  C   UNL     1       6.969  27.071  54.627  1.00  0.00     0.001 A 
HETATM   27  C   UNL     1       7.444  28.134  55.398  1.00  0.00     0.014 A 
ENDBRANCH   1  22
TORSDOF 2
ENDMDL
MODEL 6
REMARK VINA RESULT:      -9.4      3.529      8.186
REMARK  2 active torsions:
REMARK  status: ('A' for Active; 'I' for Inactive)
REMARK    1  A    between atoms: C_4  and  C_5 
REMARK    2  A    between atoms: N_11  and  C_12 
ROOT
HETATM    1  C   UNL     1       7.396  30.467  58.407  1.00  0.00     0.069 A 
HETATM    2  N   UNL     1       7.945  29.262  58.004  1.00  0.00    -0.343 N 
HETATM    3  C   UNL     1       7.439  28.556  56.950  1.00  0.00     0.119 A 
HETATM    4  C   UNL     1       6.428  29.049  56.214  1.00  0.00     0.125 A 
HETATM    5  C   UNL     1       6.192  28.092  55.121  1.00  0.00     0.280 A 
HETATM    6  O   UNL     1       5.358  28.223  54.243  1.00  0.00    -0.265 OA
HETATM    7  N   UNL     1       7.123  27.060  55.324  1.00  0.00    -0.236 N 
HETATM    8  N   UNL     1       7.877  27.332  56.486  1.00  0.00    -0.179 NA
HETATM    9  C   UNL     1       5.818  30.346  56.530  1.00  0.00     0.215 A 
HETATM   10  O   UNL     1       4.918  30.825  55.851  1.00  0.00    -0.285 OA
HETATM   11  C   UNL     1       6.373  31.050  57.743  1.00  0.00     0.112 A 
HETATM   12 CL   UNL     1       5.649  32.550  58.188  1.00  0.00    -0.077 Cl
HETATM   13  H   UNL     1       8.607  28.803  58.624  1.00  0.00     0.167 HD
HETATM   14  H   UNL     1       8.879  27.354  56.302  1.00  0.00     0.155 HD
ENDROOT
BRANCH   7  15
HETATM   15  C   UNL     1       7.323  25.868  54.596  1.00  0.00     0.055 A 
HETATM   16  C   UNL     1       7.115  24.612  55.186  1.00  0.00     0.034 A 
HETATM   17  C   UNL     1       7.304  23.434  54.455  1.00  0.00     0.044 A 
HETATM   18  C   UNL     1       7.706  23.506  53.129  1.00  0.00     0.116 A 
HETATM   19  F   UNL     1       7.887  22.379  52.429  1.00  0.00    -0.206 F 
HETATM   20  C   UNL     1       7.925  24.733  52.521  1.00  0.00     0.044 A 
HETATM   21  C   UNL     1       7.734  25.910  53.253  1.00  0.00     0.034 A 
ENDBRANCH   7  15
BRANCH   1  22
HETATM   22  C   UNL     1       8.002  31.067  59.607  1.00  0.00    -0.008 A 
HETATM   23  C   UNL     1       7.240  31.243  60.770  1.00  0.00     0.014 A 
HETATM   24  C   UNL     1       7.818  31.803  61.910  1.00  0.00     0.001 A 
HETATM   25  C   UNL     1       9.158  32.189  61.894  1.00  0.00     0.000 A 
HETATM   26  C   UNL     1       9.922  32.015  60.742  1.00  0.00     0.001 A 
HETATM   27  C   UNL     1       9.347  31.455  59.600  1.00  0.00     0.014 A 
ENDBRANCH   1  22
TORSDOF 2
ENDMDL
MODEL 7
REMARK VINA RESULT:      -9.2      4.099      8.502
REMARK  2 active torsions:
REMARK  status: ('A' for Active; 'I' for Inactive)
REMARK    1  A    between atoms: C_4  and  C_5 
REMARK    2  A    between atoms: N_11  and  C_12 
ROOT
HETATM    1  C   UNL     1       8.256  30.403  58.903  1.00  0.00     0.069 A 
HETATM    2  N   UNL     1       7.299  29.510  58.452  1.00  0.00    -0.343 N 
HETATM    3  C   UNL     1       7.355  28.967  57.200  1.00  0.00     0.119 A 
HETATM    4  C   UNL     1       8.390  29.225  56.383  1.00  0.00     0.125 A 
HETATM    5  C   UNL     1       8.183  28.421  55.167  1.00  0.00     0.280 A 
HETATM    6  O   UNL     1       8.938  28.388  54.213  1.00  0.00    -0.265 OA
HETATM    7  N   UNL     1       6.976  27.735  55.378  1.00  0.00    -0.236 N 
HETATM    8  N   UNL     1       6.441  28.102  56.631  1.00  0.00    -0.179 NA
HETATM    9  C   UNL     1       9.482  30.115  56.796  1.00  0.00     0.215 A 
HETATM   10  O   UNL     1      10.449  30.336  56.077  1.00  0.00    -0.285 OA
HETATM   11  C   UNL     1       9.335  30.738  58.161  1.00  0.00     0.112 A 
HETATM   12 CL   UNL     1      10.564  31.836  58.666  1.00  0.00    -0.077 Cl
HETATM   13  H   UNL     1       6.441  29.413  58.987  1.00  0.00     0.167 HD
HETATM   14  H   UNL     1       6.281  27.298  57.237  1.00  0.00     0.155 HD
ENDROOT
BRANCH   7  15
HETATM   15  C   UNL     1       6.280  26.850  54.527  1.00  0.00     0.055 A 
HETATM   16  C   UNL     1       5.272  27.311  53.666  1.00  0.00     0.034 A 
HETATM   17  C   UNL     1       4.594  26.429  52.817  1.00  0.00     0.044 A 
HETATM   18  C   UNL     1       4.918  25.081  52.826  1.00  0.00     0.116 A 
HETATM   19  F   UNL     1       4.270  24.237  52.013  1.00  0.00    -0.206 F 
HETATM   20  C   UNL     1       5.906  24.595  53.670  1.00  0.00     0.044 A 
HETATM   21  C   UNL     1       6.584  25.477  54.518  1.00  0.00     0.034 A 
ENDBRANCH   7  15
BRANCH   1  22
HETATM   22  C   UNL     1       8.015  30.963  60.243  1.00  0.00    -0.008 A 
HETATM   23  C   UNL     1       8.757  30.508  61.341  1.00  0.00     0.014 A 
HETATM   24  C   UNL     1       8.535  31.047  62.610  1.00  0.00     0.001 A 
HETATM   25  C   UNL     1       7.572  32.040  62.787  1.00  0.00     0.000 A 
HETATM   26  C   UNL     1       6.832  32.498  61.698  1.00  0.00     0.001 A 
HETATM   27  C   UNL     1       7.053  31.962  60.428  1.00  0.00     0.014 A 
ENDBRANCH   1  22
TORSDOF 2
ENDMDL
MODEL 8
REMARK VINA RESULT:      -9.2      3.530      4.650
REMARK  2 active torsions:
REMARK  status: ('A' for Active; 'I' for Inactive)
REMARK    1  A    between atoms: C_4  and  C_5 
REMARK    2  A    between atoms: N_11  and  C_12 
ROOT
HETATM    1  C   UNL     1       7.217  24.561  55.511  1.00  0.00     0.069 A 
HETATM    2  N   UNL     1       6.303  25.357  54.843  1.00  0.00    -0.343 N 
HETATM    3  C   UNL     1       5.916  26.573  55.330  1.00  0.00     0.119 A 
HETATM    4  C   UNL     1       6.470  27.076  56.446  1.00  0.00     0.125 A 
HETATM    5  C   UNL     1       5.900  28.420  56.636  1.00  0.00     0.280 A 
HETATM    6  O   UNL     1       6.189  29.182  57.541  1.00  0.00    -0.265 OA
HETATM    7  N   UNL     1       5.004  28.596  55.569  1.00  0.00    -0.236 N 
HETATM    8  N   UNL     1       4.987  27.431  54.774  1.00  0.00    -0.179 NA
HETATM    9  C   UNL     1       7.490  26.329  57.192  1.00  0.00     0.215 A 
HETATM   10  O   UNL     1       8.030  26.786  58.193  1.00  0.00    -0.285 OA
HETATM   11  C   UNL     1       7.831  24.966  56.645  1.00  0.00     0.112 A 
HETATM   12 CL   UNL     1       8.982  24.027  57.520  1.00  0.00    -0.077 Cl
HETATM   13  H   UNL     1       5.768  24.944  54.085  1.00  0.00     0.167 HD
HETATM   14  H   UNL     1       5.213  27.622  53.798  1.00  0.00     0.155 HD
ENDROOT
BRANCH   7  15
HETATM   15  C   UNL     1       4.158  29.685  55.272  1.00  0.00     0.055 A 
HETATM   16  C   UNL     1       4.052  30.189  53.966  1.00  0.00     0.034 A 
HETATM   17  C   UNL     1       3.202  31.262  53.676  1.00  0.00     0.044 A 
HETATM   18  C   UNL     1       2.455  31.840  54.691  1.00  0.00     0.116 A 
HETATM   19  F   UNL     1       1.641  32.867  54.414  1.00  0.00    -0.206 F 
HETATM   20  C   UNL     1       2.543  31.368  55.993  1.00  0.00     0.044 A 
HETATM   21  C   UNL     1       3.392  30.294  56.281  1.00  0.00     0.034 A 
ENDBRANCH   7  15
BRANCH   1  22
HETATM   22  C   UNL     1       7.473  23.245  54.902  1.00  0.00    -0.008 A 
HETATM   23  C   UNL     1       7.493  22.092  55.696  1.00  0.00     0.014 A 
HETATM   24  C   UNL     1       7.726  20.844  55.115  1.00  0.00     0.001 A 
HETATM   25  C   UNL     1       7.939  20.743  53.741  1.00  0.00     0.000 A 
HETATM   26  C   UNL     1       7.918  21.887  52.945  1.00  0.00     0.001 A 
HETATM   27  C   UNL     1       7.685  23.136  53.522  1.00  0.00     0.014 A 
ENDBRANCH   1  22
TORSDOF 2
ENDMDL
MODEL 9
REMARK VINA RESULT:      -9.1      4.269      8.194
REMARK  2 active torsions:
REMARK  status: ('A' for Active; 'I' for Inactive)
REMARK    1  A    between atoms: C_4  and  C_5 
REMARK    2  A    between atoms: N_11  and  C_12 
ROOT
HETATM    1  C   UNL     1       5.312  28.794  55.927  1.00  0.00     0.069 A 
HETATM    2  N   UNL     1       5.264  27.639  55.165  1.00  0.00    -0.343 N 
HETATM    3  C   UNL     1       6.144  26.613  55.357  1.00  0.00     0.119 A 
HETATM    4  C   UNL     1       7.048  26.658  56.350  1.00  0.00     0.125 A 
HETATM    5  C   UNL     1       7.765  25.373  56.331  1.00  0.00     0.280 A 
HETATM    6  O   UNL     1       8.647  25.051  57.107  1.00  0.00    -0.265 OA
HETATM    7  N   UNL     1       7.203  24.650  55.267  1.00  0.00    -0.236 N 
HETATM    8  N   UNL     1       6.216  25.437  54.637  1.00  0.00    -0.179 NA
HETATM    9  C   UNL     1       7.138  27.818  57.246  1.00  0.00     0.215 A 
HETATM   10  O   UNL     1       7.934  27.862  58.177  1.00  0.00    -0.285 OA
HETATM   11  C   UNL     1       6.185  28.948  56.947  1.00  0.00     0.112 A 
HETATM   12 CL   UNL     1       6.293  30.356  57.935  1.00  0.00    -0.077 Cl
HETATM   13  H   UNL     1       4.692  27.640  54.325  1.00  0.00     0.167 HD
HETATM   14  H   UNL     1       5.307  24.974  54.611  1.00  0.00     0.155 HD
ENDROOT
BRANCH   7  15
HETATM   15  C   UNL     1       7.530  23.370  54.772  1.00  0.00     0.055 A 
HETATM   16  C   UNL     1       7.577  22.252  55.620  1.00  0.00     0.034 A 
HETATM   17  C   UNL     1       7.891  20.983  55.121  1.00  0.00     0.044 A 
HETATM   18  C   UNL     1       8.163  20.825  53.770  1.00  0.00     0.116 A 
HETATM   19  F   UNL     1       8.463  19.611  53.291  1.00  0.00    -0.206 F 
HETATM   20  C   UNL     1       8.130  21.912  52.909  1.00  0.00     0.044 A 
HETATM   21  C   UNL     1       7.815  23.180  53.409  1.00  0.00     0.034 A 
ENDBRANCH   7  15
BRANCH   1  22
HETATM   22  C   UNL     1       4.349  29.841  55.548  1.00  0.00    -0.008 A 
HETATM   23  C   UNL     1       3.446  30.345  56.492  1.00  0.00     0.014 A 
HETATM   24  C   UNL     1       2.540  31.345  56.134  1.00  0.00     0.001 A 
HETATM   25  C   UNL     1       2.533  31.845  54.833  1.00  0.00     0.000 A 
HETATM   26  C   UNL     1       3.431  31.350  53.888  1.00  0.00     0.001 A 
HETATM   27  C   UNL     1       4.338  30.351  54.244  1.00  0.00     0.014 A 
ENDBRANCH   1  22
TORSDOF 2
ENDMDL
MODEL 10
REMARK VINA RESULT:      -9.1      4.663      8.114
REMARK  2 active torsions:
REMARK  status: ('A' for Active; 'I' for Inactive)
REMARK    1  A    between atoms: C_4  and  C_5 
REMARK    2  A    between atoms: N_11  and  C_12 
ROOT
HETATM    1  C   UNL     1       7.766  28.210  55.823  1.00  0.00     0.069 A 
HETATM    2  N   UNL     1       7.305  28.762  54.640  1.00  0.00    -0.343 N 
HETATM    3  C   UNL     1       6.580  28.033  53.741  1.00  0.00     0.119 A 
HETATM    4  C   UNL     1       6.222  26.767  54.010  1.00  0.00     0.125 A 
HETATM    5  C   UNL     1       5.385  26.313  52.887  1.00  0.00     0.280 A 
HETATM    6  O   UNL     1       4.865  25.216  52.799  1.00  0.00    -0.265 OA
HETATM    7  N   UNL     1       5.330  27.403  52.003  1.00  0.00    -0.236 N 
HETATM    8  N   UNL     1       6.105  28.464  52.518  1.00  0.00    -0.179 NA
HETATM    9  C   UNL     1       6.616  26.114  55.265  1.00  0.00     0.215 A 
HETATM   10  O   UNL     1       6.271  24.972  55.541  1.00  0.00    -0.285 OA
HETATM   11  C   UNL     1       7.470  26.944  56.191  1.00  0.00     0.112 A 
HETATM   12 CL   UNL     1       8.007  26.200  57.650  1.00  0.00    -0.077 Cl
HETATM   13  H   UNL     1       7.680  29.661  54.350  1.00  0.00     0.167 HD
HETATM   14  H   UNL     1       5.566  29.323  52.623  1.00  0.00     0.155 HD
ENDROOT
BRANCH   7  15
HETATM   15  C   UNL     1       4.694  27.516  50.748  1.00  0.00     0.055 A 
HETATM   16  C   UNL     1       3.833  28.587  50.463  1.00  0.00     0.034 A 
HETATM   17  C   UNL     1       3.215  28.699  49.212  1.00  0.00     0.044 A 
HETATM   18  C   UNL     1       3.452  27.738  48.241  1.00  0.00     0.116 A 
HETATM   19  F   UNL     1       2.861  27.845  47.044  1.00  0.00    -0.206 F 
HETATM   20  C   UNL     1       4.293  26.665  48.496  1.00  0.00     0.044 A 
HETATM   21  C   UNL     1       4.912  26.555  49.745  1.00  0.00     0.034 A 
ENDBRANCH   7  15
BRANCH   1  22
HETATM   22  C   UNL     1       8.600  29.098  56.651  1.00  0.00    -0.008 A 
HETATM   23  C   UNL     1       9.922  29.374  56.278  1.00  0.00     0.014 A 
HETATM   24  C   UNL     1      10.708  30.223  57.059  1.00  0.00     0.001 A 
HETATM   25  C   UNL     1      10.178  30.799  58.212  1.00  0.00     0.000 A 
HETATM   26  C   UNL     1       8.863  30.531  58.588  1.00  0.00     0.001 A 
HETATM   27  C   UNL     1       8.074  29.682  57.809  1.00  0.00     0.014 A 
ENDBRANCH   1  22
TORSDOF 2
ENDMDL
