MODEL 1
REMARK VINA RESULT:      -9.7      0.000      0.000
REMARK  5 active torsions:
REMARK  status: ('A' for Active; 'I' for Inactive)
REMARK    1  A    between atoms: C_4  and  C_5 
REMARK    2  A    between atoms: C_5  and  N_6 
REMARK       I    between atoms: N_6  and  C_7 
REMARK    3  A    between atoms: C_7  and  C_8 
REMARK    4  A    between atoms: C_11  and  N_12 
REMARK       I    between atoms: N_12  and  C_13 
REMARK    5  A    between atoms: C_13  and  C_14 
ROOT
HETATM    1  C   UNL     1       6.167  28.388  57.027  1.00  0.00     0.032 A 
HETATM    2  C   UNL     1       5.278  27.798  56.123  1.00  0.00     0.019 A 
HETATM    3  C   UNL     1       5.522  26.509  55.629  1.00  0.00     0.030 A 
HETATM    4  C   UNL     1       6.657  25.797  56.024  1.00  0.00     0.035 A 
HETATM    5  C   UNL     1       7.550  26.395  56.922  1.00  0.00     0.030 A 
HETATM    6  C   UNL     1       7.310  27.681  57.417  1.00  0.00     0.019 A 
ENDROOT
BRANCH   4   7
HETATM    7  N   UNL     1       6.983  24.509  55.554  1.00  0.00    -0.323 N 
HETATM    8  C   UNL     1       7.656  24.185  54.390  1.00  0.00     0.257 C 
HETATM    9  O   UNL     1       7.996  24.954  53.499  1.00  0.00    -0.267 OA
HETATM   10  H   UNL     1       6.655  23.737  56.120  1.00  0.00     0.169 HD
BRANCH   8  11
HETATM   11  C   UNL     1       7.927  22.741  54.202  1.00  0.00     0.047 A 
HETATM   12  C   UNL     1       8.224  21.868  55.266  1.00  0.00     0.027 A 
HETATM   13  C   UNL     1       8.439  20.534  54.930  1.00  0.00     0.138 A 
HETATM   14  C   UNL     1       8.412  21.955  56.679  1.00  0.00     0.033 A 
HETATM   15  N   UNL     1       8.705  19.837  56.076  1.00  0.00    -0.350 N 
HETATM   16  N   UNL     1       8.408  19.980  53.705  1.00  0.00    -0.242 NA
HETATM   17  H   UNL     1       8.901  18.847  56.094  1.00  0.00     0.166 HD
HETATM   18  C   UNL     1       8.694  20.690  57.149  1.00  0.00     0.090 A 
HETATM   19  C   UNL     1       8.155  20.870  52.721  1.00  0.00     0.120 A 
HETATM   20  C   UNL     1       7.916  22.222  52.901  1.00  0.00     0.037 A 
ENDBRANCH   8  11
ENDBRANCH   4   7
BRANCH   1  21
HETATM   21  C   UNL     1       5.968  29.763  57.572  1.00  0.00     0.251 C 
HETATM   22  N   UNL     1       6.885  30.205  58.499  1.00  0.00    -0.352 N 
HETATM   23  H   UNL     1       7.765  29.717  58.599  1.00  0.00     0.163 HD
HETATM   24  O   UNL     1       5.036  30.454  57.173  1.00  0.00    -0.268 OA
BRANCH  22  25
HETATM   25  C   UNL     1       6.837  31.568  58.977  1.00  0.00     0.169 C 
BRANCH  25  26
HETATM   26  C   UNL     1       7.724  31.684  60.173  1.00  0.00     0.000 A 
HETATM   27  S   UNL     1       7.048  31.871  61.739  1.00  0.00    -0.105 SA
HETATM   28  C   UNL     1       8.594  31.924  62.468  1.00  0.00     0.050 A 
HETATM   29  C   UNL     1       9.606  31.799  61.544  1.00  0.00     0.008 A 
HETATM   30  C   UNL     1       9.105  31.663  60.218  1.00  0.00     0.017 A 
ENDBRANCH  25  26
ENDBRANCH  22  25
ENDBRANCH   1  21
TORSDOF 5
ENDMDL
MODEL 2
REMARK VINA RESULT:      -9.5      5.226      9.065
REMARK  5 active torsions:
REMARK  status: ('A' for Active; 'I' for Inactive)
REMARK    1  A    between atoms: C_4  and  C_5 
REMARK    2  A    between atoms: C_5  and  N_6 
REMARK       I    between atoms: N_6  and  C_7 
REMARK    3  A    between atoms: C_7  and  C_8 
REMARK    4  A    between atoms: C_11  and  N_12 
REMARK       I    between atoms: N_12  and  C_13 
REMARK    5  A    between atoms: C_13  and  C_14 
ROOT
HETATM    1  C   UNL     1       6.245  33.090  64.269  1.00  0.00     0.032 A 
HETATM    2  C   UNL     1       7.642  33.108  64.202  1.00  0.00     0.019 A 
HETATM    3  C   UNL     1       8.306  32.536  63.108  1.00  0.00     0.030 A 
HETATM    4  C   UNL     1       7.588  31.932  62.074  1.00  0.00     0.035 A 
HETATM    5  C   UNL     1       6.190  31.906  62.150  1.00  0.00     0.030 A 
HETATM    6  C   UNL     1       5.523  32.476  63.240  1.00  0.00     0.019 A 
ENDROOT
BRANCH   4   7
HETATM    7  N   UNL     1       8.183  31.314  60.956  1.00  0.00    -0.323 N 
HETATM    8  C   UNL     1       8.046  31.670  59.627  1.00  0.00     0.257 C 
HETATM    9  O   UNL     1       7.292  32.520  59.168  1.00  0.00    -0.267 OA
HETATM   10  H   UNL     1       8.747  30.497  61.153  1.00  0.00     0.169 HD
BRANCH   8  11
HETATM   11  C   UNL     1       8.862  30.881  58.677  1.00  0.00     0.047 A 
HETATM   12  C   UNL     1       8.420  29.674  58.100  1.00  0.00     0.027 A 
HETATM   13  C   UNL     1       9.298  29.057  57.212  1.00  0.00     0.138 A 
HETATM   14  C   UNL     1       7.277  28.823  58.183  1.00  0.00     0.033 A 
HETATM   15  N   UNL     1       8.708  27.913  56.748  1.00  0.00    -0.350 N 
HETATM   16  N   UNL     1      10.524  29.469  56.847  1.00  0.00    -0.242 NA
HETATM   17  H   UNL     1       9.149  27.285  56.091  1.00  0.00     0.166 HD
HETATM   18  C   UNL     1       7.478  27.758  57.332  1.00  0.00     0.090 A 
HETATM   19  C   UNL     1      10.909  30.610  57.459  1.00  0.00     0.120 A 
HETATM   20  C   UNL     1      10.147  31.338  58.358  1.00  0.00     0.037 A 
ENDBRANCH   8  11
ENDBRANCH   4   7
BRANCH   1  21
HETATM   21  C   UNL     1       5.487  33.668  65.416  1.00  0.00     0.251 C 
HETATM   22  N   UNL     1       6.211  34.382  66.345  1.00  0.00    -0.352 N 
HETATM   23  H   UNL     1       7.144  34.694  66.114  1.00  0.00     0.163 HD
HETATM   24  O   UNL     1       4.271  33.521  65.488  1.00  0.00    -0.268 OA
BRANCH  22  25
HETATM   25  C   UNL     1       5.534  35.081  67.413  1.00  0.00     0.169 C 
BRANCH  25  26
HETATM   26  C   UNL     1       6.123  34.645  68.715  1.00  0.00     0.000 A 
HETATM   27  S   UNL     1       7.375  35.559  69.451  1.00  0.00    -0.105 SA
HETATM   28  C   UNL     1       7.471  34.481  70.774  1.00  0.00     0.050 A 
HETATM   29  C   UNL     1       6.570  33.446  70.664  1.00  0.00     0.008 A 
HETATM   30  C   UNL     1       5.793  33.539  69.475  1.00  0.00     0.017 A 
ENDBRANCH  25  26
ENDBRANCH  22  25
ENDBRANCH   1  21
TORSDOF 5
ENDMDL
MODEL 3
REMARK VINA RESULT:      -9.4      3.449     10.674
REMARK  5 active torsions:
REMARK  status: ('A' for Active; 'I' for Inactive)
REMARK    1  A    between atoms: C_4  and  C_5 
REMARK    2  A    between atoms: C_5  and  N_6 
REMARK       I    between atoms: N_6  and  C_7 
REMARK    3  A    between atoms: C_7  and  C_8 
REMARK    4  A    between atoms: C_11  and  N_12 
REMARK       I    between atoms: N_12  and  C_13 
REMARK    5  A    between atoms: C_13  and  C_14 
ROOT
HETATM    1  C   UNL     1       7.817  28.693  56.160  1.00  0.00     0.032 A 
HETATM    2  C   UNL     1       8.902  28.726  57.043  1.00  0.00     0.019 A 
HETATM    3  C   UNL     1       8.795  29.393  58.271  1.00  0.00     0.030 A 
HETATM    4  C   UNL     1       7.611  30.040  58.631  1.00  0.00     0.035 A 
HETATM    5  C   UNL     1       6.531  30.014  57.740  1.00  0.00     0.030 A 
HETATM    6  C   UNL     1       6.633  29.350  56.513  1.00  0.00     0.019 A 
ENDROOT
BRANCH   4   7
HETATM    7  N   UNL     1       7.435  30.750  59.835  1.00  0.00    -0.323 N 
HETATM    8  C   UNL     1       7.968  31.981  60.170  1.00  0.00     0.257 C 
HETATM    9  O   UNL     1       8.782  32.630  59.524  1.00  0.00    -0.267 OA
HETATM   10  H   UNL     1       6.881  30.286  60.544  1.00  0.00     0.169 HD
BRANCH   8  11
HETATM   11  C   UNL     1       7.538  32.517  61.482  1.00  0.00     0.047 A 
HETATM   12  C   UNL     1       6.339  33.234  61.665  1.00  0.00     0.027 A 
HETATM   13  C   UNL     1       6.065  33.659  62.963  1.00  0.00     0.138 A 
HETATM   14  C   UNL     1       5.264  33.712  60.857  1.00  0.00     0.033 A 
HETATM   15  N   UNL     1       4.871  34.326  62.955  1.00  0.00    -0.350 N 
HETATM   16  N   UNL     1       6.817  33.478  64.063  1.00  0.00    -0.242 NA
HETATM   17  H   UNL     1       4.456  34.737  63.780  1.00  0.00     0.166 HD
HETATM   18  C   UNL     1       4.372  34.367  61.680  1.00  0.00     0.090 A 
HETATM   19  C   UNL     1       7.970  32.817  63.821  1.00  0.00     0.120 A 
HETATM   20  C   UNL     1       8.374  32.330  62.589  1.00  0.00     0.037 A 
ENDBRANCH   8  11
ENDBRANCH   4   7
BRANCH   1  21
HETATM   21  C   UNL     1       7.880  28.015  54.833  1.00  0.00     0.251 C 
HETATM   22  N   UNL     1       7.234  26.804  54.722  1.00  0.00    -0.352 N 
HETATM   23  H   UNL     1       6.559  26.534  55.425  1.00  0.00     0.163 HD
HETATM   24  O   UNL     1       8.464  28.547  53.896  1.00  0.00    -0.268 OA
BRANCH  22  25
HETATM   25  C   UNL     1       7.138  26.146  53.439  1.00  0.00     0.169 C 
BRANCH  25  26
HETATM   26  C   UNL     1       7.409  24.689  53.630  1.00  0.00     0.000 A 
HETATM   27  S   UNL     1       7.169  23.955  55.162  1.00  0.00    -0.105 SA
HETATM   28  C   UNL     1       7.661  22.426  54.577  1.00  0.00     0.050 A 
HETATM   29  C   UNL     1       8.000  22.467  53.243  1.00  0.00     0.008 A 
HETATM   30  C   UNL     1       7.856  23.774  52.696  1.00  0.00     0.017 A 
ENDBRANCH  25  26
ENDBRANCH  22  25
ENDBRANCH   1  21
TORSDOF 5
ENDMDL
MODEL 4
REMARK VINA RESULT:      -9.2      1.529      2.086
REMARK  5 active torsions:
REMARK  status: ('A' for Active; 'I' for Inactive)
REMARK    1  A    between atoms: C_4  and  C_5 
REMARK    2  A    between atoms: C_5  and  N_6 
REMARK       I    between atoms: N_6  and  C_7 
REMARK    3  A    between atoms: C_7  and  C_8 
REMARK    4  A    between atoms: C_11  and  N_12 
REMARK       I    between atoms: N_12  and  C_13 
REMARK    5  A    between atoms: C_13  and  C_14 
ROOT
HETATM    1  C   UNL     1       6.596  29.956  57.532  1.00  0.00     0.032 A 
HETATM    2  C   UNL     1       7.730  29.258  57.960  1.00  0.00     0.019 A 
HETATM    3  C   UNL     1       8.079  28.039  57.363  1.00  0.00     0.030 A 
HETATM    4  C   UNL     1       7.300  27.499  56.338  1.00  0.00     0.035 A 
HETATM    5  C   UNL     1       6.160  28.195  55.918  1.00  0.00     0.030 A 
HETATM    6  C   UNL     1       5.807  29.412  56.513  1.00  0.00     0.019 A 
ENDROOT
BRANCH   4   7
HETATM    7  N   UNL     1       7.571  26.269  55.705  1.00  0.00    -0.323 N 
HETATM    8  C   UNL     1       6.915  25.066  55.890  1.00  0.00     0.257 C 
HETATM    9  O   UNL     1       6.048  24.822  56.720  1.00  0.00    -0.267 OA
HETATM   10  H   UNL     1       8.359  26.265  55.069  1.00  0.00     0.169 HD
BRANCH   8  11
HETATM   11  C   UNL     1       7.374  23.959  55.020  1.00  0.00     0.047 A 
HETATM   12  C   UNL     1       7.884  22.746  55.522  1.00  0.00     0.027 A 
HETATM   13  C   UNL     1       8.259  21.795  54.576  1.00  0.00     0.138 A 
HETATM   14  C   UNL     1       8.179  22.174  56.796  1.00  0.00     0.033 A 
HETATM   15  N   UNL     1       8.721  20.689  55.236  1.00  0.00    -0.350 N 
HETATM   16  N   UNL     1       8.204  21.901  53.237  1.00  0.00    -0.242 NA
HETATM   17  H   UNL     1       9.058  19.860  54.768  1.00  0.00     0.166 HD
HETATM   18  C   UNL     1       8.679  20.906  56.588  1.00  0.00     0.090 A 
HETATM   19  C   UNL     1       7.742  23.097  52.813  1.00  0.00     0.120 A 
HETATM   20  C   UNL     1       7.327  24.135  53.631  1.00  0.00     0.037 A 
ENDBRANCH   8  11
ENDBRANCH   4   7
BRANCH   1  21
HETATM   21  C   UNL     1       6.168  31.248  58.143  1.00  0.00     0.251 C 
HETATM   22  N   UNL     1       6.111  31.297  59.518  1.00  0.00    -0.352 N 
HETATM   23  H   UNL     1       6.574  30.581  60.061  1.00  0.00     0.163 HD
HETATM   24  O   UNL     1       5.910  32.211  57.430  1.00  0.00    -0.268 OA
BRANCH  22  25
HETATM   25  C   UNL     1       5.831  32.546  60.190  1.00  0.00     0.169 C 
BRANCH  25  26
HETATM   26  C   UNL     1       6.593  32.577  61.473  1.00  0.00     0.000 A 
HETATM   27  S   UNL     1       5.824  33.061  62.929  1.00  0.00    -0.105 SA
HETATM   28  C   UNL     1       7.257  32.839  63.834  1.00  0.00     0.050 A 
HETATM   29  C   UNL     1       8.301  32.403  63.051  1.00  0.00     0.008 A 
HETATM   30  C   UNL     1       7.920  32.254  61.688  1.00  0.00     0.017 A 
ENDBRANCH  25  26
ENDBRANCH  22  25
ENDBRANCH   1  21
TORSDOF 5
ENDMDL
MODEL 5
REMARK VINA RESULT:      -9.1      3.069     10.006
REMARK  5 active torsions:
REMARK  status: ('A' for Active; 'I' for Inactive)
REMARK    1  A    between atoms: C_4  and  C_5 
REMARK    2  A    between atoms: C_5  and  N_6 
REMARK       I    between atoms: N_6  and  C_7 
REMARK    3  A    between atoms: C_7  and  C_8 
REMARK    4  A    between atoms: C_11  and  N_12 
REMARK       I    between atoms: N_12  and  C_13 
REMARK    5  A    between atoms: C_13  and  C_14 
ROOT
HETATM    1  C   UNL     1       7.272  26.658  55.063  1.00  0.00     0.032 A 
HETATM    2  C   UNL     1       7.172  28.044  54.896  1.00  0.00     0.019 A 
HETATM    3  C   UNL     1       7.238  28.897  56.006  1.00  0.00     0.030 A 
HETATM    4  C   UNL     1       7.397  28.380  57.294  1.00  0.00     0.035 A 
HETATM    5  C   UNL     1       7.487  26.993  57.458  1.00  0.00     0.030 A 
HETATM    6  C   UNL     1       7.421  26.137  56.353  1.00  0.00     0.019 A 
ENDROOT
BRANCH   4   7
HETATM    7  N   UNL     1       7.448  29.170  58.460  1.00  0.00    -0.323 N 
HETATM    8  C   UNL     1       8.445  30.051  58.836  1.00  0.00     0.257 C 
HETATM    9  O   UNL     1       9.522  30.223  58.278  1.00  0.00    -0.267 OA
HETATM   10  H   UNL     1       6.679  29.049  59.108  1.00  0.00     0.169 HD
BRANCH   8  11
HETATM   11  C   UNL     1       8.181  30.805  60.083  1.00  0.00     0.047 A 
HETATM   12  C   UNL     1       7.137  31.743  60.208  1.00  0.00     0.027 A 
HETATM   13  C   UNL     1       7.007  32.360  61.450  1.00  0.00     0.138 A 
HETATM   14  C   UNL     1       6.125  32.309  59.377  1.00  0.00     0.033 A 
HETATM   15  N   UNL     1       5.950  33.226  61.393  1.00  0.00    -0.350 N 
HETATM   16  N   UNL     1       7.768  32.176  62.543  1.00  0.00    -0.242 NA
HETATM   17  H   UNL     1       5.655  33.798  62.171  1.00  0.00     0.166 HD
HETATM   18  C   UNL     1       5.404  33.206  60.136  1.00  0.00     0.090 A 
HETATM   19  C   UNL     1       8.774  31.294  62.354  1.00  0.00     0.120 A 
HETATM   20  C   UNL     1       9.025  30.601  61.181  1.00  0.00     0.037 A 
ENDBRANCH   8  11
ENDBRANCH   4   7
BRANCH   1  21
HETATM   21  C   UNL     1       7.191  25.702  53.920  1.00  0.00     0.251 C 
HETATM   22  N   UNL     1       8.067  24.640  53.934  1.00  0.00    -0.352 N 
HETATM   23  H   UNL     1       8.547  24.403  54.791  1.00  0.00     0.163 HD
HETATM   24  O   UNL     1       6.355  25.866  53.038  1.00  0.00    -0.268 OA
BRANCH  22  25
HETATM   25  C   UNL     1       7.967  23.602  52.934  1.00  0.00     0.169 C 
BRANCH  25  26
HETATM   26  C   UNL     1       8.290  22.292  53.574  1.00  0.00     0.000 A 
HETATM   27  S   UNL     1       8.654  22.210  55.249  1.00  0.00    -0.105 SA
HETATM   28  C   UNL     1       8.884  20.518  55.181  1.00  0.00     0.050 A 
HETATM   29  C   UNL     1       8.686  20.019  53.913  1.00  0.00     0.008 A 
HETATM   30  C   UNL     1       8.345  21.043  52.985  1.00  0.00     0.017 A 
ENDBRANCH  25  26
ENDBRANCH  22  25
ENDBRANCH   1  21
TORSDOF 5
ENDMDL
MODEL 6
REMARK VINA RESULT:      -9.0      2.527      4.033
REMARK  5 active torsions:
REMARK  status: ('A' for Active; 'I' for Inactive)
REMARK    1  A    between atoms: C_4  and  C_5 
REMARK    2  A    between atoms: C_5  and  N_6 
REMARK       I    between atoms: N_6  and  C_7 
REMARK    3  A    between atoms: C_7  and  C_8 
REMARK    4  A    between atoms: C_11  and  N_12 
REMARK       I    between atoms: N_12  and  C_13 
REMARK    5  A    between atoms: C_13  and  C_14 
ROOT
HETATM    1  C   UNL     1       8.497  30.581  58.688  1.00  0.00     0.032 A 
HETATM    2  C   UNL     1       9.437  29.811  57.994  1.00  0.00     0.019 A 
HETATM    3  C   UNL     1       9.019  28.892  57.022  1.00  0.00     0.030 A 
HETATM    4  C   UNL     1       7.663  28.723  56.736  1.00  0.00     0.035 A 
HETATM    5  C   UNL     1       6.725  29.488  57.440  1.00  0.00     0.030 A 
HETATM    6  C   UNL     1       7.137  30.407  58.411  1.00  0.00     0.019 A 
ENDROOT
BRANCH   4   7
HETATM    7  N   UNL     1       7.164  27.803  55.792  1.00  0.00    -0.323 N 
HETATM    8  C   UNL     1       7.527  27.682  54.464  1.00  0.00     0.257 C 
HETATM    9  O   UNL     1       8.269  28.426  53.834  1.00  0.00    -0.267 OA
HETATM   10  H   UNL     1       6.434  27.185  56.123  1.00  0.00     0.169 HD
BRANCH   8  11
HETATM   11  C   UNL     1       6.887  26.562  53.736  1.00  0.00     0.047 A 
HETATM   12  C   UNL     1       7.236  25.212  53.940  1.00  0.00     0.027 A 
HETATM   13  C   UNL     1       6.533  24.272  53.191  1.00  0.00     0.138 A 
HETATM   14  C   UNL     1       8.180  24.474  54.716  1.00  0.00     0.033 A 
HETATM   15  N   UNL     1       6.993  23.027  53.519  1.00  0.00    -0.350 N 
HETATM   16  N   UNL     1       5.565  24.500  52.285  1.00  0.00    -0.242 NA
HETATM   17  H   UNL     1       6.642  22.175  53.106  1.00  0.00     0.166 HD
HETATM   18  C   UNL     1       7.998  23.135  54.446  1.00  0.00     0.090 A 
HETATM   19  C   UNL     1       5.299  25.812  52.105  1.00  0.00     0.120 A 
HETATM   20  C   UNL     1       5.910  26.857  52.778  1.00  0.00     0.037 A 
ENDBRANCH   8  11
ENDBRANCH   4   7
BRANCH   1  21
HETATM   21  C   UNL     1       8.883  31.562  59.744  1.00  0.00     0.251 C 
HETATM   22  N   UNL     1       8.555  31.240  61.042  1.00  0.00    -0.352 N 
HETATM   23  H   UNL     1       8.300  30.289  61.269  1.00  0.00     0.163 HD
HETATM   24  O   UNL     1       9.487  32.586  59.443  1.00  0.00    -0.268 OA
BRANCH  22  25
HETATM   25  C   UNL     1       9.006  32.073  62.134  1.00  0.00     0.169 C 
BRANCH  25  26
HETATM   26  C   UNL     1       7.824  32.443  62.969  1.00  0.00     0.000 A 
HETATM   27  S   UNL     1       6.248  31.939  62.516  1.00  0.00    -0.105 SA
HETATM   28  C   UNL     1       5.544  32.706  63.872  1.00  0.00     0.050 A 
HETATM   29  C   UNL     1       6.485  33.332  64.658  1.00  0.00     0.008 A 
HETATM   30  C   UNL     1       7.801  33.182  64.136  1.00  0.00     0.017 A 
ENDBRANCH  25  26
ENDBRANCH  22  25
ENDBRANCH   1  21
TORSDOF 5
ENDMDL
MODEL 7
REMARK VINA RESULT:      -8.8      1.549      2.571
REMARK  5 active torsions:
REMARK  status: ('A' for Active; 'I' for Inactive)
REMARK    1  A    between atoms: C_4  and  C_5 
REMARK    2  A    between atoms: C_5  and  N_6 
REMARK       I    between atoms: N_6  and  C_7 
REMARK    3  A    between atoms: C_7  and  C_8 
REMARK    4  A    between atoms: C_11  and  N_12 
REMARK       I    between atoms: N_12  and  C_13 
REMARK    5  A    between atoms: C_13  and  C_14 
ROOT
HETATM    1  C   UNL     1       6.334  28.908  57.455  1.00  0.00     0.032 A 
HETATM    2  C   UNL     1       5.333  28.091  56.918  1.00  0.00     0.019 A 
HETATM    3  C   UNL     1       5.578  26.731  56.687  1.00  0.00     0.030 A 
HETATM    4  C   UNL     1       6.823  26.170  56.981  1.00  0.00     0.035 A 
HETATM    5  C   UNL     1       7.826  26.993  57.509  1.00  0.00     0.030 A 
HETATM    6  C   UNL     1       7.586  28.352  57.741  1.00  0.00     0.019 A 
ENDROOT
BRANCH   4   7
HETATM    7  N   UNL     1       7.153  24.819  56.755  1.00  0.00    -0.323 N 
HETATM    8  C   UNL     1       7.699  24.267  55.611  1.00  0.00     0.257 C 
HETATM    9  O   UNL     1       7.894  24.834  54.543  1.00  0.00    -0.267 OA
HETATM   10  H   UNL     1       6.931  24.179  57.508  1.00  0.00     0.169 HD
BRANCH   8  11
HETATM   11  C   UNL     1       8.014  22.823  55.698  1.00  0.00     0.047 A 
HETATM   12  C   UNL     1       8.072  21.979  54.571  1.00  0.00     0.027 A 
HETATM   13  C   UNL     1       8.397  20.646  54.814  1.00  0.00     0.138 A 
HETATM   14  C   UNL     1       7.853  22.083  53.165  1.00  0.00     0.033 A 
HETATM   15  N   UNL     1       8.414  19.982  53.619  1.00  0.00    -0.350 N 
HETATM   16  N   UNL     1       8.651  20.065  55.999  1.00  0.00    -0.242 NA
HETATM   17  H   UNL     1       8.619  18.997  53.530  1.00  0.00     0.166 HD
HETATM   18  C   UNL     1       8.083  20.844  52.606  1.00  0.00     0.090 A 
HETATM   19  C   UNL     1       8.545  20.913  57.046  1.00  0.00     0.120 A 
HETATM   20  C   UNL     1       8.237  22.260  56.961  1.00  0.00     0.037 A 
ENDBRANCH   8  11
ENDBRANCH   4   7
BRANCH   1  21
HETATM   21  C   UNL     1       6.135  30.365  57.705  1.00  0.00     0.251 C 
HETATM   22  N   UNL     1       6.482  30.836  58.952  1.00  0.00    -0.352 N 
HETATM   23  H   UNL     1       7.064  30.269  59.553  1.00  0.00     0.163 HD
HETATM   24  O   UNL     1       5.707  31.090  56.814  1.00  0.00    -0.268 OA
BRANCH  22  25
HETATM   25  C   UNL     1       6.442  32.253  59.231  1.00  0.00     0.169 C 
BRANCH  25  26
HETATM   26  C   UNL     1       5.577  32.478  60.428  1.00  0.00     0.000 A 
HETATM   27  S   UNL     1       6.274  32.917  61.933  1.00  0.00    -0.105 SA
HETATM   28  C   UNL     1       4.746  32.974  62.696  1.00  0.00     0.050 A 
HETATM   29  C   UNL     1       3.722  32.669  61.828  1.00  0.00     0.008 A 
HETATM   30  C   UNL     1       4.201  32.381  60.519  1.00  0.00     0.017 A 
ENDBRANCH  25  26
ENDBRANCH  22  25
ENDBRANCH   1  21
TORSDOF 5
ENDMDL
MODEL 8
REMARK VINA RESULT:      -8.7      6.490      8.880
REMARK  5 active torsions:
REMARK  status: ('A' for Active; 'I' for Inactive)
REMARK    1  A    between atoms: C_4  and  C_5 
REMARK    2  A    between atoms: C_5  and  N_6 
REMARK       I    between atoms: N_6  and  C_7 
REMARK    3  A    between atoms: C_7  and  C_8 
REMARK    4  A    between atoms: C_11  and  N_12 
REMARK       I    between atoms: N_12  and  C_13 
REMARK    5  A    between atoms: C_13  and  C_14 
ROOT
HETATM    1  C   UNL     1       4.171  28.041  50.653  1.00  0.00     0.032 A 
HETATM    2  C   UNL     1       4.735  26.897  50.080  1.00  0.00     0.019 A 
HETATM    3  C   UNL     1       5.341  25.925  50.889  1.00  0.00     0.030 A 
HETATM    4  C   UNL     1       5.399  26.086  52.275  1.00  0.00     0.035 A 
HETATM    5  C   UNL     1       4.841  27.238  52.844  1.00  0.00     0.030 A 
HETATM    6  C   UNL     1       4.236  28.210  52.041  1.00  0.00     0.019 A 
ENDROOT
BRANCH   4   7
HETATM    7  N   UNL     1       6.011  25.168  53.151  1.00  0.00    -0.323 N 
HETATM    8  C   UNL     1       7.348  24.818  53.201  1.00  0.00     0.257 C 
HETATM    9  O   UNL     1       8.227  25.160  52.419  1.00  0.00    -0.267 OA
HETATM   10  H   UNL     1       5.391  24.688  53.791  1.00  0.00     0.169 HD
BRANCH   8  11
HETATM   11  C   UNL     1       7.713  23.881  54.288  1.00  0.00     0.047 A 
HETATM   12  C   UNL     1       7.976  22.514  54.071  1.00  0.00     0.027 A 
HETATM   13  C   UNL     1       8.322  21.766  55.193  1.00  0.00     0.138 A 
HETATM   14  C   UNL     1       7.963  21.601  52.975  1.00  0.00     0.033 A 
HETATM   15  N   UNL     1       8.546  20.475  54.799  1.00  0.00    -0.350 N 
HETATM   16  N   UNL     1       8.423  22.190  56.465  1.00  0.00    -0.242 NA
HETATM   17  H   UNL     1       8.807  19.735  55.434  1.00  0.00     0.166 HD
HETATM   18  C   UNL     1       8.330  20.360  53.451  1.00  0.00     0.090 A 
HETATM   19  C   UNL     1       8.125  23.499  56.619  1.00  0.00     0.120 A 
HETATM   20  C   UNL     1       7.771  24.368  55.600  1.00  0.00     0.037 A 
ENDBRANCH   8  11
ENDBRANCH   4   7
BRANCH   1  21
HETATM   21  C   UNL     1       3.529  29.115  49.841  1.00  0.00     0.251 C 
HETATM   22  N   UNL     1       3.465  28.912  48.480  1.00  0.00    -0.352 N 
HETATM   23  H   UNL     1       3.617  27.985  48.108  1.00  0.00     0.163 HD
HETATM   24  O   UNL     1       3.064  30.108  50.389  1.00  0.00    -0.268 OA
BRANCH  22  25
HETATM   25  C   UNL     1       2.745  29.842  47.640  1.00  0.00     0.169 C 
BRANCH  25  26
HETATM   26  C   UNL     1       1.617  29.116  46.984  1.00  0.00     0.000 A 
HETATM   27  S   UNL     1       0.395  29.984  46.148  1.00  0.00    -0.105 SA
HETATM   28  C   UNL     1      -0.433  28.546  45.736  1.00  0.00     0.050 A 
HETATM   29  C   UNL     1       0.204  27.425  46.220  1.00  0.00     0.008 A 
HETATM   30  C   UNL     1       1.387  27.754  46.942  1.00  0.00     0.017 A 
ENDBRANCH  25  26
ENDBRANCH  22  25
ENDBRANCH   1  21
TORSDOF 5
ENDMDL
MODEL 9
REMARK VINA RESULT:      -8.3      6.162      9.250
REMARK  5 active torsions:
REMARK  status: ('A' for Active; 'I' for Inactive)
REMARK    1  A    between atoms: C_4  and  C_5 
REMARK    2  A    between atoms: C_5  and  N_6 
REMARK       I    between atoms: N_6  and  C_7 
REMARK    3  A    between atoms: C_7  and  C_8 
REMARK    4  A    between atoms: C_11  and  N_12 
REMARK       I    between atoms: N_12  and  C_13 
REMARK    5  A    between atoms: C_13  and  C_14 
ROOT
HETATM    1  C   UNL     1       6.285  26.177  54.509  1.00  0.00     0.032 A 
HETATM    2  C   UNL     1       5.882  27.515  54.442  1.00  0.00     0.019 A 
HETATM    3  C   UNL     1       5.117  27.971  53.360  1.00  0.00     0.030 A 
HETATM    4  C   UNL     1       4.750  27.102  52.330  1.00  0.00     0.035 A 
HETATM    5  C   UNL     1       5.163  25.765  52.396  1.00  0.00     0.030 A 
HETATM    6  C   UNL     1       5.928  25.307  53.474  1.00  0.00     0.019 A 
ENDROOT
BRANCH   4   7
HETATM    7  N   UNL     1       4.004  27.489  51.199  1.00  0.00    -0.323 N 
HETATM    8  C   UNL     1       4.469  28.125  50.063  1.00  0.00     0.257 C 
HETATM    9  O   UNL     1       5.596  28.567  49.878  1.00  0.00    -0.267 OA
HETATM   10  H   UNL     1       3.009  27.309  51.245  1.00  0.00     0.169 HD
BRANCH   8  11
HETATM   11  C   UNL     1       3.459  28.333  49.000  1.00  0.00     0.047 A 
HETATM   12  C   UNL     1       3.038  27.310  48.127  1.00  0.00     0.027 A 
HETATM   13  C   UNL     1       2.069  27.658  47.190  1.00  0.00     0.138 A 
HETATM   14  C   UNL     1       3.353  25.940  47.881  1.00  0.00     0.033 A 
HETATM   15  N   UNL     1       1.779  26.552  46.439  1.00  0.00    -0.350 N 
HETATM   16  N   UNL     1       1.493  28.860  47.010  1.00  0.00    -0.242 NA
HETATM   17  H   UNL     1       1.105  26.550  45.686  1.00  0.00     0.166 HD
HETATM   18  C   UNL     1       2.554  25.499  46.848  1.00  0.00     0.090 A 
HETATM   19  C   UNL     1       1.961  29.809  47.849  1.00  0.00     0.120 A 
HETATM   20  C   UNL     1       2.916  29.613  48.833  1.00  0.00     0.037 A 
ENDBRANCH   8  11
ENDBRANCH   4   7
BRANCH   1  21
HETATM   21  C   UNL     1       7.114  25.641  55.628  1.00  0.00     0.251 C 
HETATM   22  N   UNL     1       7.100  24.277  55.815  1.00  0.00    -0.352 N 
HETATM   23  H   UNL     1       6.749  23.678  55.081  1.00  0.00     0.163 HD
HETATM   24  O   UNL     1       7.789  26.402  56.313  1.00  0.00    -0.268 OA
BRANCH  22  25
HETATM   25  C   UNL     1       7.974  23.669  56.791  1.00  0.00     0.169 C 
BRANCH  25  26
HETATM   26  C   UNL     1       8.388  22.325  56.287  1.00  0.00     0.000 A 
HETATM   27  S   UNL     1       8.813  22.109  54.639  1.00  0.00    -0.105 SA
HETATM   28  C   UNL     1       9.128  20.445  54.872  1.00  0.00     0.050 A 
HETATM   29  C   UNL     1       8.919  20.057  56.176  1.00  0.00     0.008 A 
HETATM   30  C   UNL     1       8.490  21.141  56.993  1.00  0.00     0.017 A 
ENDBRANCH  25  26
ENDBRANCH  22  25
ENDBRANCH   1  21
TORSDOF 5
ENDMDL
MODEL 10
REMARK VINA RESULT:      -8.3      6.109      7.694
REMARK  5 active torsions:
REMARK  status: ('A' for Active; 'I' for Inactive)
REMARK    1  A    between atoms: C_4  and  C_5 
REMARK    2  A    between atoms: C_5  and  N_6 
REMARK       I    between atoms: N_6  and  C_7 
REMARK    3  A    between atoms: C_7  and  C_8 
REMARK    4  A    between atoms: C_11  and  N_12 
REMARK       I    between atoms: N_12  and  C_13 
REMARK    5  A    between atoms: C_13  and  C_14 
ROOT
HETATM    1  C   UNL     1       4.299  28.137  50.778  1.00  0.00     0.032 A 
HETATM    2  C   UNL     1       4.764  26.957  50.189  1.00  0.00     0.019 A 
HETATM    3  C   UNL     1       5.339  25.950  50.977  1.00  0.00     0.030 A 
HETATM    4  C   UNL     1       5.463  26.110  52.359  1.00  0.00     0.035 A 
HETATM    5  C   UNL     1       5.005  27.297  52.944  1.00  0.00     0.030 A 
HETATM    6  C   UNL     1       4.432  28.304  52.161  1.00  0.00     0.019 A 
ENDROOT
BRANCH   4   7
HETATM    7  N   UNL     1       6.050  25.156  53.214  1.00  0.00    -0.323 N 
HETATM    8  C   UNL     1       7.387  24.815  53.301  1.00  0.00     0.257 C 
HETATM    9  O   UNL     1       8.293  25.202  52.572  1.00  0.00    -0.267 OA
HETATM   10  H   UNL     1       5.410  24.641  53.805  1.00  0.00     0.169 HD
BRANCH   8  11
HETATM   11  C   UNL     1       7.718  23.831  54.356  1.00  0.00     0.047 A 
HETATM   12  C   UNL     1       7.992  22.475  54.086  1.00  0.00     0.027 A 
HETATM   13  C   UNL     1       8.302  21.677  55.184  1.00  0.00     0.138 A 
HETATM   14  C   UNL     1       8.017  21.612  52.949  1.00  0.00     0.033 A 
HETATM   15  N   UNL     1       8.542  20.406  54.739  1.00  0.00    -0.350 N 
HETATM   16  N   UNL     1       8.361  22.043  56.476  1.00  0.00    -0.242 NA
HETATM   17  H   UNL     1       8.785  19.638  55.349  1.00  0.00     0.166 HD
HETATM   18  C   UNL     1       8.371  20.352  53.381  1.00  0.00     0.090 A 
HETATM   19  C   UNL     1       8.055  23.343  56.679  1.00  0.00     0.120 A 
HETATM   20  C   UNL     1       7.733  24.258  55.690  1.00  0.00     0.037 A 
ENDBRANCH   8  11
ENDBRANCH   4   7
BRANCH   1  21
HETATM   21  C   UNL     1       3.695  29.248  49.987  1.00  0.00     0.251 C 
HETATM   22  N   UNL     1       4.481  29.812  49.006  1.00  0.00    -0.352 N 
HETATM   23  H   UNL     1       5.308  29.325  48.691  1.00  0.00     0.163 HD
HETATM   24  O   UNL     1       2.542  29.603  50.205  1.00  0.00    -0.268 OA
BRANCH  22  25
HETATM   25  C   UNL     1       3.927  30.803  48.112  1.00  0.00     0.169 C 
BRANCH  25  26
HETATM   26  C   UNL     1       4.973  31.834  47.838  1.00  0.00     0.000 A 
HETATM   27  S   UNL     1       5.124  32.522  46.273  1.00  0.00    -0.105 SA
HETATM   28  C   UNL     1       6.428  33.511  46.766  1.00  0.00     0.050 A 
HETATM   29  C   UNL     1       6.745  33.328  48.093  1.00  0.00     0.008 A 
HETATM   30  C   UNL     1       5.906  32.358  48.712  1.00  0.00     0.017 A 
ENDBRANCH  25  26
ENDBRANCH  22  25
ENDBRANCH   1  21
TORSDOF 5
ENDMDL
