MODEL 1
REMARK VINA RESULT:     -10.5      0.000      0.000
REMARK  5 active torsions:
REMARK  status: ('A' for Active; 'I' for Inactive)
REMARK    1  A    between atoms: C_7  and  C_8 
REMARK    2  A    between atoms: C_16  and  C_17 
REMARK    3  A    between atoms: C_20  and  O_21 
REMARK    4  A    between atoms: C_24  and  C_25 
REMARK       I    between atoms: C_25  and  N_26 
REMARK    5  A    between atoms: N_26  and  C_27 
ROOT
HETATM    1  C   UNL     1      10.027  31.572  58.421  1.00  0.00     0.070 C 
HETATM    2  C   UNL     1       8.935  30.610  58.024  1.00  0.00     0.037 C 
HETATM    3  N   UNL     1       9.321  29.592  57.150  1.00  0.00    -0.192 N 
HETATM    4  C   UNL     1       8.591  28.468  56.990  1.00  0.00     0.726 A 
HETATM    5  N   UNL     1       7.311  28.425  57.463  1.00  0.00    -0.083 N 
HETATM    6  N   UNL     1       6.790  27.187  57.368  1.00  0.00    -0.135 NA
HETATM    7  C   UNL     1       7.798  26.520  56.777  1.00  0.00     0.199 A 
HETATM    8  N   UNL     1       8.914  27.297  56.507  1.00  0.00    -0.041 NA
HETATM    9  C   UNL     1       6.658  29.543  58.153  1.00  0.00     0.202 C 
HETATM   10  C   UNL     1       7.672  30.622  58.519  1.00  0.00     0.062 C 
HETATM   11  H   UNL     1      10.309  29.539  56.914  1.00  0.00     0.184 HD
ENDROOT
BRANCH  10  12
HETATM   12  C   UNL     1       7.177  31.562  59.561  1.00  0.00     0.256 C 
HETATM   13  N   UNL     1       7.465  31.174  60.850  1.00  0.00    -0.323 N 
HETATM   14  H   UNL     1       8.012  30.330  60.968  1.00  0.00     0.169 HD
HETATM   15  O   UNL     1       6.612  32.586  59.199  1.00  0.00    -0.267 OA
BRANCH  13  16
HETATM   16  C   UNL     1       7.058  31.815  62.040  1.00  0.00     0.035 A 
HETATM   17  C   UNL     1       5.728  31.925  62.450  1.00  0.00     0.029 A 
HETATM   18  C   UNL     1       5.405  32.556  63.656  1.00  0.00     0.002 A 
HETATM   19  C   UNL     1       6.410  33.078  64.465  1.00  0.00     0.000 A 
HETATM   20  C   UNL     1       7.740  32.975  64.066  1.00  0.00     0.002 A 
HETATM   21  C   UNL     1       8.062  32.351  62.857  1.00  0.00     0.029 A 
ENDBRANCH  13  16
ENDBRANCH  10  12
BRANCH   9  22
HETATM   22  C   UNL     1       5.516  30.104  57.308  1.00  0.00    -0.028 A 
HETATM   23  C   UNL     1       5.746  30.426  55.959  1.00  0.00     0.012 A 
HETATM   24  C   UNL     1       4.714  30.919  55.156  1.00  0.00     0.037 A 
HETATM   25  C   UNL     1       3.446  31.087  55.698  1.00  0.00     0.065 A 
HETATM   26  C   UNL     1       3.192  30.767  57.025  1.00  0.00     0.037 A 
HETATM   27  C   UNL     1       4.220  30.274  57.829  1.00  0.00     0.012 A 
BRANCH  25  28
HETATM   28  O   UNL     1       2.411  31.567  54.951  1.00  0.00    -0.361 OA
HETATM   29  H   UNL     1       1.999  32.305  55.431  1.00  0.00     0.217 HD
ENDBRANCH  25  28
ENDBRANCH   9  22
BRANCH   7  30
HETATM   30  C   UNL     1       7.771  25.084  56.508  1.00  0.00     0.014 A 
HETATM   31  C   UNL     1       8.445  24.181  57.346  1.00  0.00     0.017 A 
HETATM   32  C   UNL     1       8.452  22.812  57.061  1.00  0.00     0.025 A 
HETATM   33  C   UNL     1       7.782  22.337  55.936  1.00  0.00     0.034 A 
HETATM   34 CL   UNL     1       7.799  20.654  55.578  1.00  0.00    -0.084 Cl
HETATM   35  C   UNL     1       7.102  23.216  55.096  1.00  0.00     0.025 A 
HETATM   36  C   UNL     1       7.096  24.585  55.383  1.00  0.00     0.017 A 
ENDBRANCH   7  30
TORSDOF 5
ENDMDL
MODEL 2
REMARK VINA RESULT:      -9.8      4.009      9.095
REMARK  5 active torsions:
REMARK  status: ('A' for Active; 'I' for Inactive)
REMARK    1  A    between atoms: C_7  and  C_8 
REMARK    2  A    between atoms: C_16  and  C_17 
REMARK    3  A    between atoms: C_20  and  O_21 
REMARK    4  A    between atoms: C_24  and  C_25 
REMARK       I    between atoms: C_25  and  N_26 
REMARK    5  A    between atoms: N_26  and  C_27 
ROOT
HETATM    1  C   UNL     1       4.456  31.600  55.524  1.00  0.00     0.070 C 
HETATM    2  C   UNL     1       5.410  31.435  56.681  1.00  0.00     0.037 C 
HETATM    3  N   UNL     1       5.490  32.524  57.551  1.00  0.00    -0.192 N 
HETATM    4  C   UNL     1       5.993  32.410  58.798  1.00  0.00     0.726 A 
HETATM    5  N   UNL     1       6.700  31.292  59.139  1.00  0.00    -0.083 N 
HETATM    6  N   UNL     1       6.984  31.268  60.455  1.00  0.00    -0.135 NA
HETATM    7  C   UNL     1       6.457  32.438  60.861  1.00  0.00     0.199 A 
HETATM    8  N   UNL     1       5.863  33.176  59.850  1.00  0.00    -0.041 NA
HETATM    9  C   UNL     1       6.954  30.177  58.221  1.00  0.00     0.202 C 
HETATM   10  C   UNL     1       6.098  30.300  56.964  1.00  0.00     0.062 C 
HETATM   11  H   UNL     1       4.854  33.298  57.379  1.00  0.00     0.184 HD
ENDROOT
BRANCH  10  12
HETATM   12  C   UNL     1       5.989  29.029  56.201  1.00  0.00     0.256 C 
HETATM   13  N   UNL     1       6.569  29.071  54.953  1.00  0.00    -0.323 N 
HETATM   14  H   UNL     1       7.043  29.927  54.692  1.00  0.00     0.169 HD
HETATM   15  O   UNL     1       5.451  28.071  56.741  1.00  0.00    -0.267 OA
BRANCH  13  16
HETATM   16  C   UNL     1       6.554  28.053  53.976  1.00  0.00     0.035 A 
HETATM   17  C   UNL     1       7.453  26.984  53.950  1.00  0.00     0.029 A 
HETATM   18  C   UNL     1       7.360  26.000  52.960  1.00  0.00     0.002 A 
HETATM   19  C   UNL     1       6.364  26.073  51.991  1.00  0.00     0.000 A 
HETATM   20  C   UNL     1       5.463  27.134  52.006  1.00  0.00     0.002 A 
HETATM   21  C   UNL     1       5.561  28.121  52.991  1.00  0.00     0.029 A 
ENDBRANCH  13  16
ENDBRANCH  10  12
BRANCH   9  22
HETATM   22  C   UNL     1       8.441  30.086  57.884  1.00  0.00    -0.028 A 
HETATM   23  C   UNL     1       9.300  31.137  58.250  1.00  0.00     0.012 A 
HETATM   24  C   UNL     1      10.668  31.070  57.975  1.00  0.00     0.037 A 
HETATM   25  C   UNL     1      11.185  29.949  57.337  1.00  0.00     0.065 A 
HETATM   26  C   UNL     1      10.359  28.894  56.974  1.00  0.00     0.037 A 
HETATM   27  C   UNL     1       8.992  28.958  57.247  1.00  0.00     0.012 A 
BRANCH  25  28
HETATM   28  O   UNL     1      12.513  29.844  57.048  1.00  0.00    -0.361 OA
HETATM   29  H   UNL     1      12.833  28.985  57.369  1.00  0.00     0.217 HD
ENDBRANCH  25  28
ENDBRANCH   9  22
BRANCH   7  30
HETATM   30  C   UNL     1       6.432  32.874  62.256  1.00  0.00     0.014 A 
HETATM   31  C   UNL     1       7.581  32.788  63.058  1.00  0.00     0.017 A 
HETATM   32  C   UNL     1       7.542  33.165  64.404  1.00  0.00     0.025 A 
HETATM   33  C   UNL     1       6.352  33.634  64.956  1.00  0.00     0.034 A 
HETATM   34 CL   UNL     1       6.299  34.088  66.614  1.00  0.00    -0.084 Cl
HETATM   35  C   UNL     1       5.203  33.734  64.174  1.00  0.00     0.025 A 
HETATM   36  C   UNL     1       5.245  33.355  62.828  1.00  0.00     0.017 A 
ENDBRANCH   7  30
TORSDOF 5
ENDMDL
MODEL 3
REMARK VINA RESULT:      -9.7      4.378      9.232
REMARK  5 active torsions:
REMARK  status: ('A' for Active; 'I' for Inactive)
REMARK    1  A    between atoms: C_7  and  C_8 
REMARK    2  A    between atoms: C_16  and  C_17 
REMARK    3  A    between atoms: C_20  and  O_21 
REMARK    4  A    between atoms: C_24  and  C_25 
REMARK       I    between atoms: C_25  and  N_26 
REMARK    5  A    between atoms: N_26  and  C_27 
ROOT
HETATM    1  C   UNL     1       4.671  28.137  53.703  1.00  0.00     0.070 C 
HETATM    2  C   UNL     1       5.278  28.950  54.818  1.00  0.00     0.037 C 
HETATM    3  N   UNL     1       4.991  30.316  54.789  1.00  0.00    -0.192 N 
HETATM    4  C   UNL     1       5.138  31.104  55.876  1.00  0.00     0.726 A 
HETATM    5  N   UNL     1       5.843  30.642  56.950  1.00  0.00    -0.083 N 
HETATM    6  N   UNL     1       5.751  31.481  58.000  1.00  0.00    -0.135 NA
HETATM    7  C   UNL     1       5.005  32.474  57.480  1.00  0.00     0.199 A 
HETATM    8  N   UNL     1       4.636  32.277  56.159  1.00  0.00    -0.041 NA
HETATM    9  C   UNL     1       6.466  29.315  57.008  1.00  0.00     0.202 C 
HETATM   10  C   UNL     1       5.983  28.437  55.858  1.00  0.00     0.062 C 
HETATM   11  H   UNL     1       4.345  30.635  54.072  1.00  0.00     0.184 HD
ENDROOT
BRANCH  10  12
HETATM   12  C   UNL     1       6.234  26.988  56.081  1.00  0.00     0.256 C 
HETATM   13  N   UNL     1       7.132  26.432  55.199  1.00  0.00    -0.323 N 
HETATM   14  H   UNL     1       7.563  27.052  54.524  1.00  0.00     0.169 HD
HETATM   15  O   UNL     1       5.675  26.439  57.022  1.00  0.00    -0.267 OA
BRANCH  13  16
HETATM   16  C   UNL     1       7.505  25.073  55.112  1.00  0.00     0.035 A 
HETATM   17  C   UNL     1       8.152  24.375  56.134  1.00  0.00     0.029 A 
HETATM   18  C   UNL     1       8.469  23.021  55.982  1.00  0.00     0.002 A 
HETATM   19  C   UNL     1       8.137  22.352  54.808  1.00  0.00     0.000 A 
HETATM   20  C   UNL     1       7.493  23.037  53.782  1.00  0.00     0.002 A 
HETATM   21  C   UNL     1       7.183  24.392  53.931  1.00  0.00     0.029 A 
ENDBRANCH  13  16
ENDBRANCH  10  12
BRANCH   9  22
HETATM   22  C   UNL     1       7.988  29.436  57.026  1.00  0.00    -0.028 A 
HETATM   23  C   UNL     1       8.706  29.325  55.823  1.00  0.00     0.012 A 
HETATM   24  C   UNL     1      10.098  29.454  55.807  1.00  0.00     0.037 A 
HETATM   25  C   UNL     1      10.776  29.700  56.994  1.00  0.00     0.065 A 
HETATM   26  C   UNL     1      10.089  29.823  58.193  1.00  0.00     0.037 A 
HETATM   27  C   UNL     1       8.699  29.695  58.213  1.00  0.00     0.012 A 
BRANCH  25  28
HETATM   28  O   UNL     1      12.133  29.831  57.024  1.00  0.00    -0.361 OA
HETATM   29  H   UNL     1      12.403  30.427  56.306  1.00  0.00     0.217 HD
ENDBRANCH  25  28
ENDBRANCH   9  22
BRANCH   7  30
HETATM   30  C   UNL     1       4.546  33.628  58.250  1.00  0.00     0.014 A 
HETATM   31  C   UNL     1       4.198  34.828  57.610  1.00  0.00     0.017 A 
HETATM   32  C   UNL     1       3.799  35.944  58.353  1.00  0.00     0.025 A 
HETATM   33  C   UNL     1       3.744  35.865  59.742  1.00  0.00     0.034 A 
HETATM   34 CL   UNL     1       3.266  37.241  60.659  1.00  0.00    -0.084 Cl
HETATM   35  C   UNL     1       4.080  34.681  60.395  1.00  0.00     0.025 A 
HETATM   36  C   UNL     1       4.478  33.566  59.650  1.00  0.00     0.017 A 
ENDBRANCH   7  30
TORSDOF 5
ENDMDL
MODEL 4
REMARK VINA RESULT:      -9.1      7.031     10.708
REMARK  5 active torsions:
REMARK  status: ('A' for Active; 'I' for Inactive)
REMARK    1  A    between atoms: C_7  and  C_8 
REMARK    2  A    between atoms: C_16  and  C_17 
REMARK    3  A    between atoms: C_20  and  O_21 
REMARK    4  A    between atoms: C_24  and  C_25 
REMARK       I    between atoms: C_25  and  N_26 
REMARK    5  A    between atoms: N_26  and  C_27 
ROOT
HETATM    1  C   UNL     1       4.520  30.027  54.445  1.00  0.00     0.070 C 
HETATM    2  C   UNL     1       4.605  30.049  52.939  1.00  0.00     0.037 C 
HETATM    3  N   UNL     1       4.516  31.312  52.352  1.00  0.00    -0.192 N 
HETATM    4  C   UNL     1       4.931  31.547  51.089  1.00  0.00     0.726 A 
HETATM    5  N   UNL     1       5.182  30.493  50.257  1.00  0.00    -0.083 N 
HETATM    6  N   UNL     1       5.741  30.898  49.100  1.00  0.00    -0.135 NA
HETATM    7  C   UNL     1       5.762  32.233  49.270  1.00  0.00     0.199 A 
HETATM    8  N   UNL     1       5.242  32.662  50.481  1.00  0.00    -0.041 NA
HETATM    9  C   UNL     1       5.030  29.089  50.651  1.00  0.00     0.202 C 
HETATM   10  C   UNL     1       4.844  28.964  52.160  1.00  0.00     0.062 C 
HETATM   11  H   UNL     1       4.478  32.110  52.981  1.00  0.00     0.184 HD
ENDROOT
BRANCH  10  12
HETATM   12  C   UNL     1       5.098  27.591  52.671  1.00  0.00     0.256 C 
HETATM   13  N   UNL     1       6.433  27.284  52.815  1.00  0.00    -0.323 N 
HETATM   14  H   UNL     1       7.101  28.016  52.609  1.00  0.00     0.169 HD
HETATM   15  O   UNL     1       4.137  26.886  52.950  1.00  0.00    -0.267 OA
BRANCH  13  16
HETATM   16  C   UNL     1       6.980  26.040  53.199  1.00  0.00     0.035 A 
HETATM   17  C   UNL     1       7.129  25.631  54.525  1.00  0.00     0.029 A 
HETATM   18  C   UNL     1       7.661  24.372  54.826  1.00  0.00     0.002 A 
HETATM   19  C   UNL     1       8.043  23.510  53.802  1.00  0.00     0.000 A 
HETATM   20  C   UNL     1       7.899  23.908  52.476  1.00  0.00     0.002 A 
HETATM   21  C   UNL     1       7.375  25.168  52.176  1.00  0.00     0.029 A 
ENDBRANCH  13  16
ENDBRANCH  10  12
BRANCH   9  22
HETATM   22  C   UNL     1       3.881  28.436  49.885  1.00  0.00    -0.028 A 
HETATM   23  C   UNL     1       2.601  29.015  49.930  1.00  0.00     0.012 A 
HETATM   24  C   UNL     1       1.537  28.453  49.220  1.00  0.00     0.037 A 
HETATM   25  C   UNL     1       1.751  27.311  48.456  1.00  0.00     0.065 A 
HETATM   26  C   UNL     1       3.007  26.727  48.388  1.00  0.00     0.037 A 
HETATM   27  C   UNL     1       4.072  27.286  49.096  1.00  0.00     0.012 A 
BRANCH  25  28
HETATM   28  O   UNL     1       0.740  26.729  47.750  1.00  0.00    -0.361 OA
HETATM   29  H   UNL     1       1.125  26.092  47.126  1.00  0.00     0.217 HD
ENDBRANCH  25  28
ENDBRANCH   9  22
BRANCH   7  30
HETATM   30  C   UNL     1       6.352  33.162  48.308  1.00  0.00     0.014 A 
HETATM   31  C   UNL     1       6.131  33.009  46.930  1.00  0.00     0.017 A 
HETATM   32  C   UNL     1       6.732  33.874  46.011  1.00  0.00     0.025 A 
HETATM   33  C   UNL     1       7.558  34.899  46.464  1.00  0.00     0.034 A 
HETATM   34 CL   UNL     1       8.309  35.956  45.333  1.00  0.00    -0.084 Cl
HETATM   35  C   UNL     1       7.785  35.071  47.828  1.00  0.00     0.025 A 
HETATM   36  C   UNL     1       7.183  34.205  48.746  1.00  0.00     0.017 A 
ENDBRANCH   7  30
TORSDOF 5
ENDMDL
MODEL 5
REMARK VINA RESULT:      -9.0      5.091      9.353
REMARK  5 active torsions:
REMARK  status: ('A' for Active; 'I' for Inactive)
REMARK    1  A    between atoms: C_7  and  C_8 
REMARK    2  A    between atoms: C_16  and  C_17 
REMARK    3  A    between atoms: C_20  and  O_21 
REMARK    4  A    between atoms: C_24  and  C_25 
REMARK       I    between atoms: C_25  and  N_26 
REMARK    5  A    between atoms: N_26  and  C_27 
ROOT
HETATM    1  C   UNL     1       5.185  25.981  52.192  1.00  0.00     0.070 C 
HETATM    2  C   UNL     1       5.395  27.079  53.205  1.00  0.00     0.037 C 
HETATM    3  N   UNL     1       4.965  28.348  52.813  1.00  0.00    -0.192 N 
HETATM    4  C   UNL     1       4.743  29.338  53.703  1.00  0.00     0.726 A 
HETATM    5  N   UNL     1       5.207  29.210  54.981  1.00  0.00    -0.083 N 
HETATM    6  N   UNL     1       4.758  30.203  55.772  1.00  0.00    -0.135 NA
HETATM    7  C   UNL     1       4.054  30.942  54.895  1.00  0.00     0.199 A 
HETATM    8  N   UNL     1       4.051  30.443  53.602  1.00  0.00    -0.041 NA
HETATM    9  C   UNL     1       5.948  28.040  55.466  1.00  0.00     0.202 C 
HETATM   10  C   UNL     1       5.874  26.895  54.462  1.00  0.00     0.062 C 
HETATM   11  H   UNL     1       4.485  28.414  51.918  1.00  0.00     0.184 HD
ENDROOT
BRANCH  10  12
HETATM   12  C   UNL     1       6.231  25.576  55.049  1.00  0.00     0.256 C 
HETATM   13  N   UNL     1       7.284  24.948  54.424  1.00  0.00    -0.323 N 
HETATM   14  H   UNL     1       7.738  25.448  53.669  1.00  0.00     0.169 HD
HETATM   15  O   UNL     1       5.609  25.189  56.031  1.00  0.00    -0.267 OA
BRANCH  13  16
HETATM   16  C   UNL     1       7.793  23.662  54.703  1.00  0.00     0.035 A 
HETATM   17  C   UNL     1       8.320  23.284  55.940  1.00  0.00     0.029 A 
HETATM   18  C   UNL     1       8.784  21.980  56.148  1.00  0.00     0.002 A 
HETATM   19  C   UNL     1       8.720  21.042  55.121  1.00  0.00     0.000 A 
HETATM   20  C   UNL     1       8.197  21.407  53.885  1.00  0.00     0.002 A 
HETATM   21  C   UNL     1       7.740  22.712  53.675  1.00  0.00     0.029 A 
ENDBRANCH  13  16
ENDBRANCH  10  12
BRANCH   9  22
HETATM   22  C   UNL     1       7.392  28.415  55.790  1.00  0.00    -0.028 A 
HETATM   23  C   UNL     1       8.275  28.742  54.746  1.00  0.00     0.012 A 
HETATM   24  C   UNL     1       9.595  29.111  55.015  1.00  0.00     0.037 A 
HETATM   25  C   UNL     1      10.038  29.160  56.332  1.00  0.00     0.065 A 
HETATM   26  C   UNL     1       9.183  28.851  57.380  1.00  0.00     0.037 A 
HETATM   27  C   UNL     1       7.863  28.483  57.115  1.00  0.00     0.012 A 
BRANCH  25  28
HETATM   28  O   UNL     1      11.319  29.512  56.639  1.00  0.00    -0.361 OA
HETATM   29  H   UNL     1      11.917  29.099  55.994  1.00  0.00     0.217 HD
ENDBRANCH  25  28
ENDBRANCH   9  22
BRANCH   7  30
HETATM   30  C   UNL     1       3.284  32.126  55.270  1.00  0.00     0.014 A 
HETATM   31  C   UNL     1       3.678  32.928  56.353  1.00  0.00     0.017 A 
HETATM   32  C   UNL     1       2.915  34.036  56.735  1.00  0.00     0.025 A 
HETATM   33  C   UNL     1       1.753  34.350  56.034  1.00  0.00     0.034 A 
HETATM   34 CL   UNL     1       0.807  35.706  56.511  1.00  0.00    -0.084 Cl
HETATM   35  C   UNL     1       1.349  33.570  54.953  1.00  0.00     0.025 A 
HETATM   36  C   UNL     1       2.114  32.463  54.572  1.00  0.00     0.017 A 
ENDBRANCH   7  30
TORSDOF 5
ENDMDL
MODEL 6
REMARK VINA RESULT:      -8.7      3.716      7.369
REMARK  5 active torsions:
REMARK  status: ('A' for Active; 'I' for Inactive)
REMARK    1  A    between atoms: C_7  and  C_8 
REMARK    2  A    between atoms: C_16  and  C_17 
REMARK    3  A    between atoms: C_20  and  O_21 
REMARK    4  A    between atoms: C_24  and  C_25 
REMARK       I    between atoms: C_25  and  N_26 
REMARK    5  A    between atoms: N_26  and  C_27 
ROOT
HETATM    1  C   UNL     1       2.359  28.953  51.424  1.00  0.00     0.070 C 
HETATM    2  C   UNL     1       3.401  28.545  52.434  1.00  0.00     0.037 C 
HETATM    3  N   UNL     1       3.384  27.200  52.805  1.00  0.00    -0.192 N 
HETATM    4  C   UNL     1       4.441  26.604  53.395  1.00  0.00     0.726 A 
HETATM    5  N   UNL     1       5.450  27.372  53.903  1.00  0.00    -0.083 N 
HETATM    6  N   UNL     1       6.493  26.620  54.301  1.00  0.00    -0.135 NA
HETATM    7  C   UNL     1       6.035  25.379  54.051  1.00  0.00     0.199 A 
HETATM    8  N   UNL     1       4.757  25.341  53.515  1.00  0.00    -0.041 NA
HETATM    9  C   UNL     1       5.464  28.838  53.849  1.00  0.00     0.202 C 
HETATM   10  C   UNL     1       4.375  29.359  52.916  1.00  0.00     0.062 C 
HETATM   11  H   UNL     1       2.727  26.597  52.315  1.00  0.00     0.184 HD
ENDROOT
BRANCH  10  12
HETATM   12  C   UNL     1       4.591  30.768  52.493  1.00  0.00     0.256 C 
HETATM   13  N   UNL     1       5.211  30.899  51.271  1.00  0.00    -0.323 N 
HETATM   14  H   UNL     1       5.419  30.048  50.764  1.00  0.00     0.169 HD
HETATM   15  O   UNL     1       4.177  31.663  53.219  1.00  0.00    -0.267 OA
BRANCH  13  16
HETATM   16  C   UNL     1       5.617  32.100  50.651  1.00  0.00     0.035 A 
HETATM   17  C   UNL     1       5.580  33.351  51.272  1.00  0.00     0.029 A 
HETATM   18  C   UNL     1       6.022  34.494  50.598  1.00  0.00     0.002 A 
HETATM   19  C   UNL     1       6.510  34.396  49.298  1.00  0.00     0.000 A 
HETATM   20  C   UNL     1       6.552  33.156  48.668  1.00  0.00     0.002 A 
HETATM   21  C   UNL     1       6.103  32.014  49.339  1.00  0.00     0.029 A 
ENDBRANCH  13  16
ENDBRANCH  10  12
BRANCH   9  22
HETATM   22  C   UNL     1       5.335  29.429  55.252  1.00  0.00    -0.028 A 
HETATM   23  C   UNL     1       6.488  29.864  55.928  1.00  0.00     0.012 A 
HETATM   24  C   UNL     1       6.398  30.429  57.203  1.00  0.00     0.037 A 
HETATM   25  C   UNL     1       5.152  30.567  57.804  1.00  0.00     0.065 A 
HETATM   26  C   UNL     1       3.999  30.154  57.153  1.00  0.00     0.037 A 
HETATM   27  C   UNL     1       4.086  29.589  55.879  1.00  0.00     0.012 A 
BRANCH  25  28
HETATM   28  O   UNL     1       5.019  31.111  59.048  1.00  0.00    -0.361 OA
HETATM   29  H   UNL     1       4.119  30.935  59.368  1.00  0.00     0.217 HD
ENDBRANCH  25  28
ENDBRANCH   9  22
BRANCH   7  30
HETATM   30  C   UNL     1       6.831  24.169  54.244  1.00  0.00     0.014 A 
HETATM   31  C   UNL     1       7.275  23.416  53.145  1.00  0.00     0.017 A 
HETATM   32  C   UNL     1       8.000  22.235  53.335  1.00  0.00     0.025 A 
HETATM   33  C   UNL     1       8.287  21.801  54.627  1.00  0.00     0.034 A 
HETATM   34 CL   UNL     1       9.169  20.342  54.862  1.00  0.00    -0.084 Cl
HETATM   35  C   UNL     1       7.861  22.538  55.730  1.00  0.00     0.025 A 
HETATM   36  C   UNL     1       7.136  23.718  55.537  1.00  0.00     0.017 A 
ENDBRANCH   7  30
TORSDOF 5
ENDMDL
MODEL 7
REMARK VINA RESULT:      -8.6      3.833      5.502
REMARK  5 active torsions:
REMARK  status: ('A' for Active; 'I' for Inactive)
REMARK    1  A    between atoms: C_7  and  C_8 
REMARK    2  A    between atoms: C_16  and  C_17 
REMARK    3  A    between atoms: C_20  and  O_21 
REMARK    4  A    between atoms: C_24  and  C_25 
REMARK       I    between atoms: C_25  and  N_26 
REMARK    5  A    between atoms: N_26  and  C_27 
ROOT
HETATM    1  C   UNL     1       8.061  32.389  62.036  1.00  0.00     0.070 C 
HETATM    2  C   UNL     1       6.879  32.378  61.100  1.00  0.00     0.037 C 
HETATM    3  N   UNL     1       7.180  32.151  59.756  1.00  0.00    -0.192 N 
HETATM    4  C   UNL     1       6.245  31.753  58.868  1.00  0.00     0.726 A 
HETATM    5  N   UNL     1       4.923  31.839  59.199  1.00  0.00    -0.083 N 
HETATM    6  N   UNL     1       4.141  31.252  58.273  1.00  0.00    -0.135 NA
HETATM    7  C   UNL     1       5.054  30.862  57.365  1.00  0.00     0.199 A 
HETATM    8  N   UNL     1       6.361  31.184  57.696  1.00  0.00    -0.041 NA
HETATM    9  C   UNL     1       4.437  32.346  60.487  1.00  0.00     0.202 C 
HETATM   10  C   UNL     1       5.582  32.482  61.486  1.00  0.00     0.062 C 
HETATM   11  H   UNL     1       8.149  31.940  59.532  1.00  0.00     0.184 HD
ENDROOT
BRANCH  10  12
HETATM   12  C   UNL     1       5.121  32.582  62.896  1.00  0.00     0.256 C 
HETATM   13  N   UNL     1       5.245  33.841  63.439  1.00  0.00    -0.323 N 
HETATM   14  H   UNL     1       5.586  34.575  62.832  1.00  0.00     0.169 HD
HETATM   15  O   UNL     1       4.649  31.584  63.426  1.00  0.00    -0.267 OA
BRANCH  13  16
HETATM   16  C   UNL     1       4.968  34.222  64.770  1.00  0.00     0.035 A 
HETATM   17  C   UNL     1       3.745  34.747  65.193  1.00  0.00     0.029 A 
HETATM   18  C   UNL     1       3.539  35.080  66.536  1.00  0.00     0.002 A 
HETATM   19  C   UNL     1       4.554  34.885  67.469  1.00  0.00     0.000 A 
HETATM   20  C   UNL     1       5.777  34.363  67.059  1.00  0.00     0.002 A 
HETATM   21  C   UNL     1       5.985  34.037  65.716  1.00  0.00     0.029 A 
ENDBRANCH  13  16
ENDBRANCH  10  12
BRANCH   9  22
HETATM   22  C   UNL     1       3.691  33.665  60.300  1.00  0.00    -0.028 A 
HETATM   23  C   UNL     1       2.402  33.816  60.840  1.00  0.00     0.012 A 
HETATM   24  C   UNL     1       1.706  35.020  60.704  1.00  0.00     0.037 A 
HETATM   25  C   UNL     1       2.300  36.082  60.030  1.00  0.00     0.065 A 
HETATM   26  C   UNL     1       3.575  35.960  59.497  1.00  0.00     0.037 A 
HETATM   27  C   UNL     1       4.272  34.759  59.631  1.00  0.00     0.012 A 
BRANCH  25  28
HETATM   28  O   UNL     1       1.656  37.273  59.872  1.00  0.00    -0.361 OA
HETATM   29  H   UNL     1       0.698  37.117  59.930  1.00  0.00     0.217 HD
ENDBRANCH  25  28
ENDBRANCH   9  22
BRANCH   7  30
HETATM   30  C   UNL     1       4.726  30.092  56.167  1.00  0.00     0.014 A 
HETATM   31  C   UNL     1       5.016  28.721  56.090  1.00  0.00     0.017 A 
HETATM   32  C   UNL     1       4.739  27.997  54.926  1.00  0.00     0.025 A 
HETATM   33  C   UNL     1       4.168  28.641  53.831  1.00  0.00     0.034 A 
HETATM   34 CL   UNL     1       3.838  27.754  52.394  1.00  0.00    -0.084 Cl
HETATM   35  C   UNL     1       3.867  30.000  53.890  1.00  0.00     0.025 A 
HETATM   36  C   UNL     1       4.144  30.722  55.056  1.00  0.00     0.017 A 
ENDBRANCH   7  30
TORSDOF 5
ENDMDL
MODEL 8
REMARK VINA RESULT:      -8.4      5.237      8.891
REMARK  5 active torsions:
REMARK  status: ('A' for Active; 'I' for Inactive)
REMARK    1  A    between atoms: C_7  and  C_8 
REMARK    2  A    between atoms: C_16  and  C_17 
REMARK    3  A    between atoms: C_20  and  O_21 
REMARK    4  A    between atoms: C_24  and  C_25 
REMARK       I    between atoms: C_25  and  N_26 
REMARK    5  A    between atoms: N_26  and  C_27 
ROOT
HETATM    1  C   UNL     1       3.930  27.461  48.268  1.00  0.00     0.070 C 
HETATM    2  C   UNL     1       4.447  27.377  49.683  1.00  0.00     0.037 C 
HETATM    3  N   UNL     1       4.328  26.126  50.292  1.00  0.00    -0.192 N 
HETATM    4  C   UNL     1       5.050  25.787  51.380  1.00  0.00     0.726 A 
HETATM    5  N   UNL     1       5.703  26.758  52.084  1.00  0.00    -0.083 N 
HETATM    6  N   UNL     1       6.501  26.231  53.032  1.00  0.00    -0.135 NA
HETATM    7  C   UNL     1       6.252  24.916  52.886  1.00  0.00     0.199 A 
HETATM    8  N   UNL     1       5.338  24.617  51.889  1.00  0.00    -0.041 NA
HETATM    9  C   UNL     1       5.674  28.181  51.729  1.00  0.00     0.202 C 
HETATM   10  C   UNL     1       5.078  28.383  50.340  1.00  0.00     0.062 C 
HETATM   11  H   UNL     1       3.977  25.366  49.714  1.00  0.00     0.184 HD
ENDROOT
BRANCH  10  12
HETATM   12  C   UNL     1       5.394  29.713  49.753  1.00  0.00     0.256 C 
HETATM   13  N   UNL     1       4.332  30.312  49.114  1.00  0.00    -0.323 N 
HETATM   14  H   UNL     1       3.443  29.826  49.139  1.00  0.00     0.169 HD
HETATM   15  O   UNL     1       6.518  30.169  49.917  1.00  0.00    -0.267 OA
BRANCH  13  16
HETATM   16  C   UNL     1       4.348  31.528  48.399  1.00  0.00     0.035 A 
HETATM   17  C   UNL     1       4.079  32.773  48.971  1.00  0.00     0.029 A 
HETATM   18  C   UNL     1       4.138  33.939  48.200  1.00  0.00     0.002 A 
HETATM   19  C   UNL     1       4.473  33.871  46.851  1.00  0.00     0.000 A 
HETATM   20  C   UNL     1       4.743  32.636  46.269  1.00  0.00     0.002 A 
HETATM   21  C   UNL     1       4.677  31.470  47.038  1.00  0.00     0.029 A 
ENDBRANCH  13  16
ENDBRANCH  10  12
BRANCH   9  22
HETATM   22  C   UNL     1       4.924  28.985  52.788  1.00  0.00    -0.028 A 
HETATM   23  C   UNL     1       5.382  28.978  54.117  1.00  0.00     0.012 A 
HETATM   24  C   UNL     1       4.728  29.723  55.103  1.00  0.00     0.037 A 
HETATM   25  C   UNL     1       3.615  30.483  54.761  1.00  0.00     0.065 A 
HETATM   26  C   UNL     1       3.150  30.514  53.454  1.00  0.00     0.037 A 
HETATM   27  C   UNL     1       3.801  29.771  52.468  1.00  0.00     0.012 A 
BRANCH  25  28
HETATM   28  O   UNL     1       2.946  31.222  55.691  1.00  0.00    -0.361 OA
HETATM   29  H   UNL     1       3.166  32.159  55.559  1.00  0.00     0.217 HD
ENDBRANCH  25  28
ENDBRANCH   9  22
BRANCH   7  30
HETATM   30  C   UNL     1       6.938  23.874  53.647  1.00  0.00     0.014 A 
HETATM   31  C   UNL     1       6.935  23.888  55.051  1.00  0.00     0.017 A 
HETATM   32  C   UNL     1       7.628  22.913  55.776  1.00  0.00     0.025 A 
HETATM   33  C   UNL     1       8.327  21.916  55.100  1.00  0.00     0.034 A 
HETATM   34 CL   UNL     1       9.190  20.722  55.989  1.00  0.00    -0.084 Cl
HETATM   35  C   UNL     1       8.335  21.881  53.707  1.00  0.00     0.025 A 
HETATM   36  C   UNL     1       7.642  22.857  52.984  1.00  0.00     0.017 A 
ENDBRANCH   7  30
TORSDOF 5
ENDMDL
MODEL 9
REMARK VINA RESULT:      -8.4      3.583      5.432
REMARK  5 active torsions:
REMARK  status: ('A' for Active; 'I' for Inactive)
REMARK    1  A    between atoms: C_7  and  C_8 
REMARK    2  A    between atoms: C_16  and  C_17 
REMARK    3  A    between atoms: C_20  and  O_21 
REMARK    4  A    between atoms: C_24  and  C_25 
REMARK       I    between atoms: C_25  and  N_26 
REMARK    5  A    between atoms: N_26  and  C_27 
ROOT
HETATM    1  C   UNL     1       6.556  30.915  56.980  1.00  0.00     0.070 C 
HETATM    2  C   UNL     1       6.199  29.846  55.977  1.00  0.00     0.037 C 
HETATM    3  N   UNL     1       7.217  28.939  55.679  1.00  0.00    -0.192 N 
HETATM    4  C   UNL     1       6.967  27.742  55.107  1.00  0.00     0.726 A 
HETATM    5  N   UNL     1       5.746  27.508  54.543  1.00  0.00    -0.083 N 
HETATM    6  N   UNL     1       5.612  26.221  54.170  1.00  0.00    -0.135 NA
HETATM    7  C   UNL     1       6.820  25.724  54.493  1.00  0.00     0.199 A 
HETATM    8  N   UNL     1       7.686  26.651  55.050  1.00  0.00    -0.041 NA
HETATM    9  C   UNL     1       4.658  28.492  54.518  1.00  0.00     0.202 C 
HETATM   10  C   UNL     1       4.966  29.669  55.438  1.00  0.00     0.062 C 
HETATM   11  H   UNL     1       8.080  29.026  56.211  1.00  0.00     0.184 HD
ENDROOT
BRANCH  10  12
HETATM   12  C   UNL     1       3.765  30.475  55.781  1.00  0.00     0.256 C 
HETATM   13  N   UNL     1       3.673  31.665  55.096  1.00  0.00    -0.323 N 
HETATM   14  H   UNL     1       4.388  31.858  54.406  1.00  0.00     0.169 HD
HETATM   15  O   UNL     1       2.964  30.013  56.585  1.00  0.00    -0.267 OA
BRANCH  13  16
HETATM   16  C   UNL     1       2.696  32.669  55.267  1.00  0.00     0.035 A 
HETATM   17  C   UNL     1       1.499  32.723  54.549  1.00  0.00     0.029 A 
HETATM   18  C   UNL     1       0.568  33.739  54.792  1.00  0.00     0.002 A 
HETATM   19  C   UNL     1       0.824  34.706  55.760  1.00  0.00     0.000 A 
HETATM   20  C   UNL     1       2.013  34.663  56.482  1.00  0.00     0.002 A 
HETATM   21  C   UNL     1       2.946  33.653  56.233  1.00  0.00     0.029 A 
ENDBRANCH  13  16
ENDBRANCH  10  12
BRANCH   9  22
HETATM   22  C   UNL     1       4.381  28.951  53.088  1.00  0.00    -0.028 A 
HETATM   23  C   UNL     1       3.063  28.940  52.599  1.00  0.00     0.012 A 
HETATM   24  C   UNL     1       2.778  29.376  51.303  1.00  0.00     0.037 A 
HETATM   25  C   UNL     1       3.810  29.830  50.490  1.00  0.00     0.065 A 
HETATM   26  C   UNL     1       5.118  29.860  50.953  1.00  0.00     0.037 A 
HETATM   27  C   UNL     1       5.406  29.425  52.248  1.00  0.00     0.012 A 
BRANCH  25  28
HETATM   28  O   UNL     1       3.576  30.262  49.218  1.00  0.00    -0.361 OA
HETATM   29  H   UNL     1       2.626  30.439  49.121  1.00  0.00     0.217 HD
ENDBRANCH  25  28
ENDBRANCH   9  22
BRANCH   7  30
HETATM   30  C   UNL     1       7.178  24.315  54.354  1.00  0.00     0.014 A 
HETATM   31  C   UNL     1       7.275  23.481  55.479  1.00  0.00     0.017 A 
HETATM   32  C   UNL     1       7.660  22.143  55.346  1.00  0.00     0.025 A 
HETATM   33  C   UNL     1       7.949  21.630  54.084  1.00  0.00     0.034 A 
HETATM   34 CL   UNL     1       8.435  19.988  53.919  1.00  0.00    -0.084 Cl
HETATM   35  C   UNL     1       7.853  22.440  52.954  1.00  0.00     0.025 A 
HETATM   36  C   UNL     1       7.467  23.777  53.090  1.00  0.00     0.017 A 
ENDBRANCH   7  30
TORSDOF 5
ENDMDL
MODEL 10
REMARK VINA RESULT:      -8.3      4.583      6.463
REMARK  5 active torsions:
REMARK  status: ('A' for Active; 'I' for Inactive)
REMARK    1  A    between atoms: C_7  and  C_8 
REMARK    2  A    between atoms: C_16  and  C_17 
REMARK    3  A    between atoms: C_20  and  O_21 
REMARK    4  A    between atoms: C_24  and  C_25 
REMARK       I    between atoms: C_25  and  N_26 
REMARK    5  A    between atoms: N_26  and  C_27 
ROOT
HETATM    1  C   UNL     1       8.351  31.895  62.589  1.00  0.00     0.070 C 
HETATM    2  C   UNL     1       7.216  32.306  61.685  1.00  0.00     0.037 C 
HETATM    3  N   UNL     1       7.476  32.214  60.317  1.00  0.00    -0.192 N 
HETATM    4  C   UNL     1       6.487  32.188  59.399  1.00  0.00     0.726 A 
HETATM    5  N   UNL     1       5.219  32.539  59.766  1.00  0.00    -0.083 N 
HETATM    6  N   UNL     1       4.334  32.300  58.780  1.00  0.00    -0.135 NA
HETATM    7  C   UNL     1       5.141  31.840  57.806  1.00  0.00     0.199 A 
HETATM    8  N   UNL     1       6.481  31.786  58.155  1.00  0.00    -0.041 NA
HETATM    9  C   UNL     1       4.848  32.952  61.124  1.00  0.00     0.202 C 
HETATM   10  C   UNL     1       5.976  32.661  62.108  1.00  0.00     0.062 C 
HETATM   11  H   UNL     1       8.369  31.812  60.045  1.00  0.00     0.184 HD
ENDROOT
BRANCH  10  12
HETATM   12  C   UNL     1       5.531  32.660  63.527  1.00  0.00     0.256 C 
HETATM   13  N   UNL     1       6.036  33.699  64.275  1.00  0.00    -0.323 N 
HETATM   14  H   UNL     1       6.614  34.378  63.794  1.00  0.00     0.169 HD
HETATM   15  O   UNL     1       4.747  31.792  63.890  1.00  0.00    -0.267 OA
BRANCH  13  16
HETATM   16  C   UNL     1       5.857  33.914  65.659  1.00  0.00     0.035 A 
HETATM   17  C   UNL     1       6.907  34.083  66.564  1.00  0.00     0.029 A 
HETATM   18  C   UNL     1       6.649  34.315  67.919  1.00  0.00     0.002 A 
HETATM   19  C   UNL     1       5.337  34.386  68.380  1.00  0.00     0.000 A 
HETATM   20  C   UNL     1       4.283  34.219  67.487  1.00  0.00     0.002 A 
HETATM   21  C   UNL     1       4.541  33.979  66.135  1.00  0.00     0.029 A 
ENDBRANCH  13  16
ENDBRANCH  10  12
BRANCH   9  22
HETATM   22  C   UNL     1       4.445  34.425  61.147  1.00  0.00    -0.028 A 
HETATM   23  C   UNL     1       3.140  34.792  60.776  1.00  0.00     0.012 A 
HETATM   24  C   UNL     1       2.737  36.130  60.810  1.00  0.00     0.037 A 
HETATM   25  C   UNL     1       3.637  37.106  61.220  1.00  0.00     0.065 A 
HETATM   26  C   UNL     1       4.928  36.767  61.601  1.00  0.00     0.037 A 
HETATM   27  C   UNL     1       5.333  35.432  61.568  1.00  0.00     0.012 A 
BRANCH  25  28
HETATM   28  O   UNL     1       3.286  38.423  61.266  1.00  0.00    -0.361 OA
HETATM   29  H   UNL     1       3.160  38.741  60.357  1.00  0.00     0.217 HD
ENDBRANCH  25  28
ENDBRANCH   9  22
BRANCH   7  30
HETATM   30  C   UNL     1       4.656  31.356  56.515  1.00  0.00     0.014 A 
HETATM   31  C   UNL     1       5.162  30.173  55.953  1.00  0.00     0.017 A 
HETATM   32  C   UNL     1       4.727  29.737  54.697  1.00  0.00     0.025 A 
HETATM   33  C   UNL     1       3.781  30.481  53.997  1.00  0.00     0.034 A 
HETATM   34 CL   UNL     1       3.253  29.951  52.447  1.00  0.00    -0.084 Cl
HETATM   35  C   UNL     1       3.262  31.654  54.541  1.00  0.00     0.025 A 
HETATM   36  C   UNL     1       3.699  32.089  55.796  1.00  0.00     0.017 A 
ENDBRANCH   7  30
TORSDOF 5
ENDMDL
