MODEL 1
REMARK VINA RESULT:     -10.2      0.000      0.000
REMARK  4 active torsions:
REMARK  status: ('A' for Active; 'I' for Inactive)
REMARK    1  A    between atoms: C_6  and  C_7 
REMARK    2  A    between atoms: C_7  and  C_8 
REMARK    3  A    between atoms: C_18  and  N_19 
REMARK    4  A    between atoms: C_21  and  C_22 
ROOT
HETATM    1  C   UNL     1       7.797  23.874  52.595  1.00  0.00     0.049 C 
HETATM    2  C   UNL     1       7.852  23.806  54.096  1.00  0.00    -0.044 A 
HETATM    3  C   UNL     1       7.684  24.929  54.953  1.00  0.00     0.033 A 
HETATM    4  C   UNL     1       7.785  24.687  56.320  1.00  0.00     0.112 A 
HETATM    5  S   UNL     1       7.592  26.085  57.269  1.00  0.00    -0.063 SA
HETATM    6  C   UNL     1       7.403  27.081  55.894  1.00  0.00     0.085 A 
HETATM    7  C   UNL     1       7.417  26.328  54.732  1.00  0.00     0.060 A 
HETATM    8  N   UNL     1       8.005  23.505  56.929  1.00  0.00    -0.236 NA
HETATM    9  C   UNL     1       8.139  22.448  56.096  1.00  0.00     0.142 A 
HETATM   10  C   UNL     1       8.068  22.559  54.706  1.00  0.00     0.044 A 
ENDROOT
BRANCH   6  11
HETATM   11  C   UNL     1       7.154  28.512  56.012  1.00  0.00     0.201 C 
HETATM   12  O   UNL     1       6.261  29.083  55.382  1.00  0.00    -0.286 OA
BRANCH  11  13
HETATM   13  C   UNL     1       7.999  29.376  56.884  1.00  0.00     0.018 A 
HETATM   14  C   UNL     1       7.362  30.142  57.872  1.00  0.00     0.055 A 
HETATM   15  C   UNL     1       8.148  30.967  58.648  1.00  0.00     0.106 A 
HETATM   16  C   UNL     1       9.508  31.055  58.467  1.00  0.00     0.105 A 
HETATM   17  O   UNL     1       7.705  31.775  59.648  1.00  0.00    -0.323 OA
HETATM   18  O   UNL     1      10.091  31.927  59.331  1.00  0.00    -0.323 OA
HETATM   19  C   UNL     1      10.162  30.328  57.495  1.00  0.00     0.040 A 
HETATM   20  C   UNL     1       8.941  32.388  60.071  1.00  0.00     0.352 A 
HETATM   21  C   UNL     1       9.393  29.484  56.685  1.00  0.00     0.018 A 
ENDBRANCH  11  13
ENDBRANCH   6  11
BRANCH   7  22
HETATM   22  N   UNL     1       7.208  26.885  53.512  1.00  0.00    -0.397 N 
HETATM   23  H   UNL     1       8.027  27.116  52.940  1.00  0.00     0.156 HD
HETATM   24  H   UNL     1       6.460  27.554  53.365  1.00  0.00     0.156 HD
ENDBRANCH   7  22
BRANCH   9  25
HETATM   25  C   UNL     1       8.380  21.066  56.693  1.00  0.00     0.434 C 
HETATM   26  F   UNL     1       9.583  20.512  56.374  1.00  0.00    -0.165 F 
HETATM   27  F   UNL     1       8.324  21.074  58.058  1.00  0.00    -0.165 F 
HETATM   28  F   UNL     1       7.438  20.158  56.299  1.00  0.00    -0.165 F 
ENDBRANCH   9  25
TORSDOF 4
ENDMDL
MODEL 2
REMARK VINA RESULT:      -9.2      1.856      2.848
REMARK  4 active torsions:
REMARK  status: ('A' for Active; 'I' for Inactive)
REMARK    1  A    between atoms: C_6  and  C_7 
REMARK    2  A    between atoms: C_7  and  C_8 
REMARK    3  A    between atoms: C_18  and  N_19 
REMARK    4  A    between atoms: C_21  and  C_22 
ROOT
HETATM    1  C   UNL     1       7.641  23.792  52.611  1.00  0.00     0.049 C 
HETATM    2  C   UNL     1       7.797  23.764  54.106  1.00  0.00    -0.044 A 
HETATM    3  C   UNL     1       7.783  24.922  54.933  1.00  0.00     0.033 A 
HETATM    4  C   UNL     1       7.961  24.713  56.297  1.00  0.00     0.112 A 
HETATM    5  S   UNL     1       7.953  26.150  57.207  1.00  0.00    -0.063 SA
HETATM    6  C   UNL     1       7.748  27.117  55.813  1.00  0.00     0.085 A 
HETATM    7  C   UNL     1       7.617  26.332  54.680  1.00  0.00     0.060 A 
HETATM    8  N   UNL     1       8.126  23.536  56.931  1.00  0.00    -0.236 NA
HETATM    9  C   UNL     1       8.113  22.446  56.129  1.00  0.00     0.142 A 
HETATM   10  C   UNL     1       7.952  22.521  54.744  1.00  0.00     0.044 A 
ENDROOT
BRANCH   6  11
HETATM   11  C   UNL     1       7.628  28.567  55.897  1.00  0.00     0.201 C 
HETATM   12  O   UNL     1       8.553  29.326  55.600  1.00  0.00    -0.286 OA
BRANCH  11  13
HETATM   13  C   UNL     1       6.377  29.214  56.383  1.00  0.00     0.018 A 
HETATM   14  C   UNL     1       6.480  30.174  57.400  1.00  0.00     0.055 A 
HETATM   15  C   UNL     1       5.313  30.738  57.870  1.00  0.00     0.106 A 
HETATM   16  C   UNL     1       4.082  30.375  57.376  1.00  0.00     0.105 A 
HETATM   17  O   UNL     1       5.223  31.681  58.845  1.00  0.00    -0.323 OA
HETATM   18  O   UNL     1       3.064  31.046  57.979  1.00  0.00    -0.323 OA
HETATM   19  C   UNL     1       3.944  29.423  56.389  1.00  0.00     0.040 A 
HETATM   20  C   UNL     1       3.794  31.865  58.916  1.00  0.00     0.352 A 
HETATM   21  C   UNL     1       5.109  28.826  55.893  1.00  0.00     0.018 A 
ENDBRANCH  11  13
ENDBRANCH   6  11
BRANCH   7  22
HETATM   22  N   UNL     1       7.368  26.868  53.458  1.00  0.00    -0.397 N 
HETATM   23  H   UNL     1       7.621  26.319  52.630  1.00  0.00     0.156 HD
HETATM   24  H   UNL     1       7.491  27.860  53.289  1.00  0.00     0.156 HD
ENDBRANCH   7  22
BRANCH   9  25
HETATM   25  C   UNL     1       8.281  21.067  56.757  1.00  0.00     0.434 C 
HETATM   26  F   UNL     1       8.243  21.056  58.119  1.00  0.00    -0.165 F 
HETATM   27  F   UNL     1       7.316  20.191  56.350  1.00  0.00    -0.165 F 
HETATM   28  F   UNL     1       9.468  20.482  56.415  1.00  0.00    -0.165 F 
ENDBRANCH   9  25
TORSDOF 4
ENDMDL
MODEL 3
REMARK VINA RESULT:      -9.2      4.672      8.188
REMARK  4 active torsions:
REMARK  status: ('A' for Active; 'I' for Inactive)
REMARK    1  A    between atoms: C_6  and  C_7 
REMARK    2  A    between atoms: C_7  and  C_8 
REMARK    3  A    between atoms: C_18  and  N_19 
REMARK    4  A    between atoms: C_21  and  C_22 
ROOT
HETATM    1  C   UNL     1       5.364  32.132  58.081  1.00  0.00     0.049 C 
HETATM    2  C   UNL     1       6.539  31.268  58.445  1.00  0.00    -0.044 A 
HETATM    3  C   UNL     1       7.034  30.209  57.634  1.00  0.00     0.033 A 
HETATM    4  C   UNL     1       8.120  29.497  58.135  1.00  0.00     0.112 A 
HETATM    5  S   UNL     1       8.632  28.238  57.114  1.00  0.00    -0.063 SA
HETATM    6  C   UNL     1       7.401  28.563  55.974  1.00  0.00     0.085 A 
HETATM    7  C   UNL     1       6.660  29.671  56.349  1.00  0.00     0.060 A 
HETATM    8  N   UNL     1       8.773  29.708  59.295  1.00  0.00    -0.236 NA
HETATM    9  C   UNL     1       8.301  30.735  60.039  1.00  0.00     0.142 A 
HETATM   10  C   UNL     1       7.212  31.519  59.653  1.00  0.00     0.044 A 
ENDROOT
BRANCH   6  11
HETATM   11  C   UNL     1       7.278  27.799  54.739  1.00  0.00     0.201 C 
HETATM   12  O   UNL     1       7.112  28.337  53.642  1.00  0.00    -0.286 OA
BRANCH  11  13
HETATM   13  C   UNL     1       7.312  26.310  54.743  1.00  0.00     0.018 A 
HETATM   14  C   UNL     1       7.747  25.655  53.581  1.00  0.00     0.055 A 
HETATM   15  C   UNL     1       7.738  24.276  53.582  1.00  0.00     0.106 A 
HETATM   16  C   UNL     1       7.311  23.554  54.671  1.00  0.00     0.105 A 
HETATM   17  O   UNL     1       8.125  23.480  52.550  1.00  0.00    -0.323 OA
HETATM   18  O   UNL     1       7.378  22.212  54.461  1.00  0.00    -0.323 OA
HETATM   19  C   UNL     1       6.862  24.167  55.821  1.00  0.00     0.040 A 
HETATM   20  C   UNL     1       7.886  22.172  53.111  1.00  0.00     0.352 A 
HETATM   21  C   UNL     1       6.852  25.566  55.852  1.00  0.00     0.018 A 
ENDBRANCH  11  13
ENDBRANCH   6  11
BRANCH   7  22
HETATM   22  N   UNL     1       5.672  30.174  55.566  1.00  0.00    -0.397 N 
HETATM   23  H   UNL     1       4.849  29.588  55.392  1.00  0.00     0.156 HD
HETATM   24  H   UNL     1       5.887  30.749  54.759  1.00  0.00     0.156 HD
ENDBRANCH   7  22
BRANCH   9  25
HETATM   25  C   UNL     1       8.982  31.058  61.364  1.00  0.00     0.434 C 
HETATM   26  F   UNL     1       8.129  31.366  62.380  1.00  0.00    -0.165 F 
HETATM   27  F   UNL     1       9.746  30.021  61.821  1.00  0.00    -0.165 F 
HETATM   28  F   UNL     1       9.838  32.118  61.263  1.00  0.00    -0.165 F 
ENDBRANCH   9  25
TORSDOF 4
ENDMDL
MODEL 4
REMARK VINA RESULT:      -9.0      4.046      4.963
REMARK  4 active torsions:
REMARK  status: ('A' for Active; 'I' for Inactive)
REMARK    1  A    between atoms: C_6  and  C_7 
REMARK    2  A    between atoms: C_7  and  C_8 
REMARK    3  A    between atoms: C_18  and  N_19 
REMARK    4  A    between atoms: C_21  and  C_22 
ROOT
HETATM    1  C   UNL     1       6.982  23.710  52.757  1.00  0.00     0.049 C 
HETATM    2  C   UNL     1       6.636  25.173  52.729  1.00  0.00    -0.044 A 
HETATM    3  C   UNL     1       6.876  26.072  53.805  1.00  0.00     0.033 A 
HETATM    4  C   UNL     1       6.474  27.391  53.615  1.00  0.00     0.112 A 
HETATM    5  S   UNL     1       6.778  28.390  54.957  1.00  0.00    -0.063 SA
HETATM    6  C   UNL     1       7.426  27.096  55.866  1.00  0.00     0.085 A 
HETATM    7  C   UNL     1       7.469  25.935  55.112  1.00  0.00     0.060 A 
HETATM    8  N   UNL     1       5.900  27.922  52.518  1.00  0.00    -0.236 NA
HETATM    9  C   UNL     1       5.702  27.055  51.498  1.00  0.00     0.142 A 
HETATM   10  C   UNL     1       6.052  25.705  51.566  1.00  0.00     0.044 A 
ENDROOT
BRANCH   6  11
HETATM   11  C   UNL     1       7.945  27.290  57.214  1.00  0.00     0.201 C 
HETATM   12  O   UNL     1       7.822  26.440  58.098  1.00  0.00    -0.286 OA
BRANCH  11  13
HETATM   13  C   UNL     1       8.630  28.553  57.606  1.00  0.00     0.018 A 
HETATM   14  C   UNL     1       8.042  29.341  58.608  1.00  0.00     0.055 A 
HETATM   15  C   UNL     1       8.663  30.527  58.936  1.00  0.00     0.106 A 
HETATM   16  C   UNL     1       9.812  30.944  58.306  1.00  0.00     0.105 A 
HETATM   17  O   UNL     1       8.239  31.410  59.878  1.00  0.00    -0.323 OA
HETATM   18  O   UNL     1      10.256  32.140  58.775  1.00  0.00    -0.323 OA
HETATM   19  C   UNL     1      10.405  30.202  57.306  1.00  0.00     0.040 A 
HETATM   20  C   UNL     1       9.249  32.436  59.765  1.00  0.00     0.352 A 
HETATM   21  C   UNL     1       9.798  28.994  56.944  1.00  0.00     0.018 A 
ENDBRANCH  11  13
ENDBRANCH   6  11
BRANCH   7  22
HETATM   22  N   UNL     1       8.014  24.787  55.591  1.00  0.00    -0.397 N 
HETATM   23  H   UNL     1       8.443  24.141  54.921  1.00  0.00     0.156 HD
HETATM   24  H   UNL     1       7.581  24.284  56.356  1.00  0.00     0.156 HD
ENDBRANCH   7  22
BRANCH   9  25
HETATM   25  C   UNL     1       5.068  27.566  50.209  1.00  0.00     0.434 C 
HETATM   26  F   UNL     1       3.781  27.993  50.341  1.00  0.00    -0.165 F 
HETATM   27  F   UNL     1       5.756  28.619  49.675  1.00  0.00    -0.165 F 
HETATM   28  F   UNL     1       5.045  26.615  49.229  1.00  0.00    -0.165 F 
ENDBRANCH   9  25
TORSDOF 4
ENDMDL
MODEL 5
REMARK VINA RESULT:      -9.0      4.529      7.419
REMARK  4 active torsions:
REMARK  status: ('A' for Active; 'I' for Inactive)
REMARK    1  A    between atoms: C_6  and  C_7 
REMARK    2  A    between atoms: C_7  and  C_8 
REMARK    3  A    between atoms: C_18  and  N_19 
REMARK    4  A    between atoms: C_21  and  C_22 
ROOT
HETATM    1  C   UNL     1       6.176  24.903  56.905  1.00  0.00     0.049 C 
HETATM    2  C   UNL     1       6.775  24.325  55.653  1.00  0.00    -0.044 A 
HETATM    3  C   UNL     1       6.758  24.972  54.386  1.00  0.00     0.033 A 
HETATM    4  C   UNL     1       7.343  24.283  53.328  1.00  0.00     0.112 A 
HETATM    5  S   UNL     1       7.259  25.119  51.849  1.00  0.00    -0.063 SA
HETATM    6  C   UNL     1       6.403  26.422  52.550  1.00  0.00     0.085 A 
HETATM    7  C   UNL     1       6.254  26.239  53.915  1.00  0.00     0.060 A 
HETATM    8  N   UNL     1       7.944  23.078  53.368  1.00  0.00    -0.236 NA
HETATM    9  C   UNL     1       7.970  22.491  54.587  1.00  0.00     0.142 A 
HETATM   10  C   UNL     1       7.410  23.073  55.725  1.00  0.00     0.044 A 
ENDROOT
BRANCH   6  11
HETATM   11  C   UNL     1       6.009  27.588  51.770  1.00  0.00     0.201 C 
HETATM   12  O   UNL     1       6.190  28.741  52.168  1.00  0.00    -0.286 OA
BRANCH  11  13
HETATM   13  C   UNL     1       5.329  27.446  50.453  1.00  0.00     0.018 A 
HETATM   14  C   UNL     1       4.596  26.274  50.209  1.00  0.00     0.055 A 
HETATM   15  C   UNL     1       4.003  26.136  48.972  1.00  0.00     0.106 A 
HETATM   16  C   UNL     1       4.125  27.097  47.997  1.00  0.00     0.105 A 
HETATM   17  O   UNL     1       3.258  25.075  48.564  1.00  0.00    -0.323 OA
HETATM   18  O   UNL     1       3.469  26.762  46.854  1.00  0.00    -0.323 OA
HETATM   19  C   UNL     1       4.852  28.252  48.198  1.00  0.00     0.040 A 
HETATM   20  C   UNL     1       2.930  25.474  47.217  1.00  0.00     0.352 A 
HETATM   21  C   UNL     1       5.472  28.422  49.441  1.00  0.00     0.018 A 
ENDBRANCH  11  13
ENDBRANCH   6  11
BRANCH   7  22
HETATM   22  N   UNL     1       5.674  27.176  54.706  1.00  0.00    -0.397 N 
HETATM   23  H   UNL     1       6.208  28.023  54.923  1.00  0.00     0.156 HD
HETATM   24  H   UNL     1       5.084  26.907  55.486  1.00  0.00     0.156 HD
ENDBRANCH   7  22
BRANCH   9  25
HETATM   25  C   UNL     1       8.640  21.130  54.734  1.00  0.00     0.434 C 
HETATM   26  F   UNL     1       9.685  21.103  55.607  1.00  0.00    -0.165 F 
HETATM   27  F   UNL     1       7.771  20.168  55.164  1.00  0.00    -0.165 F 
HETATM   28  F   UNL     1       9.135  20.664  53.548  1.00  0.00    -0.165 F 
ENDBRANCH   9  25
TORSDOF 4
ENDMDL
MODEL 6
REMARK VINA RESULT:      -9.0      4.735      7.920
REMARK  4 active torsions:
REMARK  status: ('A' for Active; 'I' for Inactive)
REMARK    1  A    between atoms: C_6  and  C_7 
REMARK    2  A    between atoms: C_7  and  C_8 
REMARK    3  A    between atoms: C_18  and  N_19 
REMARK    4  A    between atoms: C_21  and  C_22 
ROOT
HETATM    1  C   UNL     1       4.342  30.154  57.281  1.00  0.00     0.049 C 
HETATM    2  C   UNL     1       5.724  29.574  57.398  1.00  0.00    -0.044 A 
HETATM    3  C   UNL     1       6.157  28.397  56.727  1.00  0.00     0.033 A 
HETATM    4  C   UNL     1       7.467  27.991  56.966  1.00  0.00     0.112 A 
HETATM    5  S   UNL     1       7.892  26.565  56.143  1.00  0.00    -0.063 SA
HETATM    6  C   UNL     1       6.334  26.406  55.460  1.00  0.00     0.085 A 
HETATM    7  C   UNL     1       5.529  27.478  55.810  1.00  0.00     0.060 A 
HETATM    8  N   UNL     1       8.382  28.597  57.747  1.00  0.00    -0.236 NA
HETATM    9  C   UNL     1       7.957  29.728  58.357  1.00  0.00     0.142 A 
HETATM   10  C   UNL     1       6.665  30.235  58.207  1.00  0.00     0.044 A 
ENDROOT
BRANCH   6  11
HETATM   11  C   UNL     1       6.002  25.316  54.552  1.00  0.00     0.201 C 
HETATM   12  O   UNL     1       5.029  25.359  53.795  1.00  0.00    -0.286 OA
BRANCH  11  13
HETATM   13  C   UNL     1       6.810  24.065  54.515  1.00  0.00     0.018 A 
HETATM   14  C   UNL     1       7.094  23.425  55.731  1.00  0.00     0.055 A 
HETATM   15  C   UNL     1       7.875  22.290  55.688  1.00  0.00     0.106 A 
HETATM   16  C   UNL     1       8.374  21.795  54.506  1.00  0.00     0.105 A 
HETATM   17  O   UNL     1       8.248  21.542  56.761  1.00  0.00    -0.323 OA
HETATM   18  O   UNL     1       9.122  20.674  54.688  1.00  0.00    -0.323 OA
HETATM   19  C   UNL     1       8.127  22.410  53.297  1.00  0.00     0.040 A 
HETATM   20  C   UNL     1       9.046  20.525  56.121  1.00  0.00     0.352 A 
HETATM   21  C   UNL     1       7.342  23.568  53.305  1.00  0.00     0.018 A 
ENDBRANCH  11  13
ENDBRANCH   6  11
BRANCH   7  22
HETATM   22  N   UNL     1       4.268  27.617  55.327  1.00  0.00    -0.397 N 
HETATM   23  H   UNL     1       3.600  28.169  55.875  1.00  0.00     0.156 HD
HETATM   24  H   UNL     1       3.805  26.852  54.851  1.00  0.00     0.156 HD
ENDBRANCH   7  22
BRANCH   9  25
HETATM   25  C   UNL     1       8.927  30.490  59.252  1.00  0.00     0.434 C 
HETATM   26  F   UNL     1       8.929  30.092  60.555  1.00  0.00    -0.165 F 
HETATM   27  F   UNL     1      10.221  30.380  58.827  1.00  0.00    -0.165 F 
HETATM   28  F   UNL     1       8.668  31.832  59.274  1.00  0.00    -0.165 F 
ENDBRANCH   9  25
TORSDOF 4
ENDMDL
MODEL 7
REMARK VINA RESULT:      -8.7      1.996      2.770
REMARK  4 active torsions:
REMARK  status: ('A' for Active; 'I' for Inactive)
REMARK    1  A    between atoms: C_6  and  C_7 
REMARK    2  A    between atoms: C_7  and  C_8 
REMARK    3  A    between atoms: C_18  and  N_19 
REMARK    4  A    between atoms: C_21  and  C_22 
ROOT
HETATM    1  C   UNL     1       8.410  22.081  57.833  1.00  0.00     0.049 C 
HETATM    2  C   UNL     1       8.112  22.454  56.408  1.00  0.00    -0.044 A 
HETATM    3  C   UNL     1       7.669  23.741  55.994  1.00  0.00     0.033 A 
HETATM    4  C   UNL     1       7.422  23.906  54.634  1.00  0.00     0.112 A 
HETATM    5  S   UNL     1       6.877  25.466  54.232  1.00  0.00    -0.063 SA
HETATM    6  C   UNL     1       6.912  25.979  55.861  1.00  0.00     0.085 A 
HETATM    7  C   UNL     1       7.405  24.980  56.684  1.00  0.00     0.060 A 
HETATM    8  N   UNL     1       7.572  22.990  53.658  1.00  0.00    -0.236 NA
HETATM    9  C   UNL     1       8.015  21.780  54.070  1.00  0.00     0.142 A 
HETATM   10  C   UNL     1       8.291  21.484  55.406  1.00  0.00     0.044 A 
ENDROOT
BRANCH   6  11
HETATM   11  C   UNL     1       6.557  27.339  56.245  1.00  0.00     0.201 C 
HETATM   12  O   UNL     1       5.406  27.772  56.158  1.00  0.00    -0.286 OA
BRANCH  11  13
HETATM   13  C   UNL     1       7.585  28.298  56.738  1.00  0.00     0.018 A 
HETATM   14  C   UNL     1       7.417  28.849  58.017  1.00  0.00     0.055 A 
HETATM   15  C   UNL     1       8.353  29.765  58.447  1.00  0.00     0.106 A 
HETATM   16  C   UNL     1       9.414  30.144  57.659  1.00  0.00     0.105 A 
HETATM   17  O   UNL     1       8.351  30.396  59.651  1.00  0.00    -0.323 OA
HETATM   18  O   UNL     1      10.213  31.059  58.269  1.00  0.00    -0.323 OA
HETATM   19  C   UNL     1       9.598  29.634  56.391  1.00  0.00     0.040 A 
HETATM   20  C   UNL     1       9.528  31.222  59.529  1.00  0.00     0.352 A 
HETATM   21  C   UNL     1       8.663  28.705  55.921  1.00  0.00     0.018 A 
ENDBRANCH  11  13
ENDBRANCH   6  11
BRANCH   7  22
HETATM   22  N   UNL     1       7.600  25.174  58.013  1.00  0.00    -0.397 N 
HETATM   23  H   UNL     1       6.862  25.644  58.545  1.00  0.00     0.156 HD
HETATM   24  H   UNL     1       8.517  25.407  58.377  1.00  0.00     0.156 HD
ENDBRANCH   7  22
BRANCH   9  25
HETATM   25  C   UNL     1       8.227  20.682  53.034  1.00  0.00     0.434 C 
HETATM   26  F   UNL     1       9.166  19.755  53.374  1.00  0.00    -0.165 F 
HETATM   27  F   UNL     1       7.083  19.979  52.782  1.00  0.00    -0.165 F 
HETATM   28  F   UNL     1       8.618  21.179  51.822  1.00  0.00    -0.165 F 
ENDBRANCH   9  25
TORSDOF 4
ENDMDL
MODEL 8
REMARK VINA RESULT:      -8.7      4.001      5.859
REMARK  4 active torsions:
REMARK  status: ('A' for Active; 'I' for Inactive)
REMARK    1  A    between atoms: C_6  and  C_7 
REMARK    2  A    between atoms: C_7  and  C_8 
REMARK    3  A    between atoms: C_18  and  N_19 
REMARK    4  A    between atoms: C_21  and  C_22 
ROOT
HETATM    1  C   UNL     1       9.111  24.448  57.043  1.00  0.00     0.049 C 
HETATM    2  C   UNL     1       8.338  23.986  55.839  1.00  0.00    -0.044 A 
HETATM    3  C   UNL     1       7.350  24.767  55.176  1.00  0.00     0.033 A 
HETATM    4  C   UNL     1       6.718  24.174  54.086  1.00  0.00     0.112 A 
HETATM    5  S   UNL     1       5.539  25.167  53.368  1.00  0.00    -0.063 SA
HETATM    6  C   UNL     1       5.794  26.418  54.504  1.00  0.00     0.085 A 
HETATM    7  C   UNL     1       6.823  26.094  55.373  1.00  0.00     0.060 A 
HETATM    8  N   UNL     1       6.948  22.950  53.572  1.00  0.00    -0.236 NA
HETATM    9  C   UNL     1       7.907  22.234  54.203  1.00  0.00     0.142 A 
HETATM   10  C   UNL     1       8.608  22.711  55.312  1.00  0.00     0.044 A 
ENDROOT
BRANCH   6  11
HETATM   11  C   UNL     1       5.062  27.675  54.438  1.00  0.00     0.201 C 
HETATM   12  O   UNL     1       4.718  28.295  55.447  1.00  0.00    -0.286 OA
BRANCH  11  13
HETATM   13  C   UNL     1       4.655  28.267  53.133  1.00  0.00     0.018 A 
HETATM   14  C   UNL     1       5.664  28.707  52.262  1.00  0.00     0.055 A 
HETATM   15  C   UNL     1       5.275  29.288  51.074  1.00  0.00     0.106 A 
HETATM   16  C   UNL     1       3.950  29.449  50.743  1.00  0.00     0.105 A 
HETATM   17  O   UNL     1       6.111  29.767  50.115  1.00  0.00    -0.323 OA
HETATM   18  O   UNL     1       3.787  30.047  49.534  1.00  0.00    -0.323 OA
HETATM   19  C   UNL     1       2.935  29.043  51.584  1.00  0.00     0.040 A 
HETATM   20  C   UNL     1       5.161  30.256  49.145  1.00  0.00     0.352 A 
HETATM   21  C   UNL     1       3.294  28.454  52.801  1.00  0.00     0.018 A 
ENDBRANCH  11  13
ENDBRANCH   6  11
BRANCH   7  22
HETATM   22  N   UNL     1       7.265  26.962  56.319  1.00  0.00    -0.397 N 
HETATM   23  H   UNL     1       7.920  27.696  56.033  1.00  0.00     0.156 HD
HETATM   24  H   UNL     1       7.457  26.649  57.264  1.00  0.00     0.156 HD
ENDBRANCH   7  22
BRANCH   9  25
HETATM   25  C   UNL     1       8.246  20.841  53.686  1.00  0.00     0.434 C 
HETATM   26  F   UNL     1       8.467  19.914  54.659  1.00  0.00    -0.165 F 
HETATM   27  F   UNL     1       7.256  20.325  52.899  1.00  0.00    -0.165 F 
HETATM   28  F   UNL     1       9.367  20.835  52.905  1.00  0.00    -0.165 F 
ENDBRANCH   9  25
TORSDOF 4
ENDMDL
MODEL 9
REMARK VINA RESULT:      -8.3      4.750      7.953
REMARK  4 active torsions:
REMARK  status: ('A' for Active; 'I' for Inactive)
REMARK    1  A    between atoms: C_6  and  C_7 
REMARK    2  A    between atoms: C_7  and  C_8 
REMARK    3  A    between atoms: C_18  and  N_19 
REMARK    4  A    between atoms: C_21  and  C_22 
ROOT
HETATM    1  C   UNL     1      11.319  30.450  57.399  1.00  0.00     0.049 C 
HETATM    2  C   UNL     1       9.962  30.425  58.046  1.00  0.00    -0.044 A 
HETATM    3  C   UNL     1       8.800  29.865  57.445  1.00  0.00     0.033 A 
HETATM    4  C   UNL     1       7.620  29.945  58.180  1.00  0.00     0.112 A 
HETATM    5  S   UNL     1       6.279  29.273  57.379  1.00  0.00    -0.063 SA
HETATM    6  C   UNL     1       7.208  28.879  56.000  1.00  0.00     0.085 A 
HETATM    7  C   UNL     1       8.542  29.199  56.193  1.00  0.00     0.060 A 
HETATM    8  N   UNL     1       7.454  30.476  59.407  1.00  0.00    -0.236 NA
HETATM    9  C   UNL     1       8.577  30.981  59.970  1.00  0.00     0.142 A 
HETATM   10  C   UNL     1       9.819  30.970  59.334  1.00  0.00     0.044 A 
ENDROOT
BRANCH   6  11
HETATM   11  C   UNL     1       6.624  28.199  54.851  1.00  0.00     0.201 C 
HETATM   12  O   UNL     1       5.761  28.719  54.142  1.00  0.00    -0.286 OA
BRANCH  11  13
HETATM   13  C   UNL     1       7.021  26.809  54.490  1.00  0.00     0.018 A 
HETATM   14  C   UNL     1       6.888  25.808  55.464  1.00  0.00     0.055 A 
HETATM   15  C   UNL     1       7.295  24.533  55.132  1.00  0.00     0.106 A 
HETATM   16  C   UNL     1       7.824  24.239  53.897  1.00  0.00     0.105 A 
HETATM   17  O   UNL     1       7.237  23.445  55.944  1.00  0.00    -0.323 OA
HETATM   18  O   UNL     1       8.165  22.928  53.779  1.00  0.00    -0.323 OA
HETATM   19  C   UNL     1       7.984  25.202  52.924  1.00  0.00     0.040 A 
HETATM   20  C   UNL     1       7.799  22.432  55.084  1.00  0.00     0.352 A 
HETATM   21  C   UNL     1       7.587  26.508  53.230  1.00  0.00     0.018 A 
ENDBRANCH  11  13
ENDBRANCH   6  11
BRANCH   7  22
HETATM   22  N   UNL     1       9.491  28.910  55.267  1.00  0.00    -0.397 N 
HETATM   23  H   UNL     1      10.404  28.581  55.599  1.00  0.00     0.156 HD
HETATM   24  H   UNL     1       9.588  29.470  54.428  1.00  0.00     0.156 HD
ENDBRANCH   7  22
BRANCH   9  25
HETATM   25  C   UNL     1       8.490  31.592  61.364  1.00  0.00     0.434 C 
HETATM   26  F   UNL     1       7.835  30.825  62.279  1.00  0.00    -0.165 F 
HETATM   27  F   UNL     1       9.722  31.841  61.899  1.00  0.00    -0.165 F 
HETATM   28  F   UNL     1       7.848  32.798  61.362  1.00  0.00    -0.165 F 
ENDBRANCH   9  25
TORSDOF 4
ENDMDL
MODEL 10
REMARK VINA RESULT:      -8.2      5.201      8.194
REMARK  4 active torsions:
REMARK  status: ('A' for Active; 'I' for Inactive)
REMARK    1  A    between atoms: C_6  and  C_7 
REMARK    2  A    between atoms: C_7  and  C_8 
REMARK    3  A    between atoms: C_18  and  N_19 
REMARK    4  A    between atoms: C_21  and  C_22 
ROOT
HETATM    1  C   UNL     1       4.684  31.731  57.993  1.00  0.00     0.049 C 
HETATM    2  C   UNL     1       5.964  30.970  58.199  1.00  0.00    -0.044 A 
HETATM    3  C   UNL     1       6.170  29.625  57.784  1.00  0.00     0.033 A 
HETATM    4  C   UNL     1       7.413  29.069  58.072  1.00  0.00     0.112 A 
HETATM    5  S   UNL     1       7.564  27.454  57.562  1.00  0.00    -0.063 SA
HETATM    6  C   UNL     1       5.963  27.414  56.966  1.00  0.00     0.085 A 
HETATM    7  C   UNL     1       5.355  28.652  57.098  1.00  0.00     0.060 A 
HETATM    8  N   UNL     1       8.455  29.665  58.683  1.00  0.00    -0.236 NA
HETATM    9  C   UNL     1       8.246  30.951  59.048  1.00  0.00     0.142 A 
HETATM   10  C   UNL     1       7.042  31.620  58.825  1.00  0.00     0.044 A 
ENDROOT
BRANCH   6  11
HETATM   11  C   UNL     1       5.414  26.230  56.319  1.00  0.00     0.201 C 
HETATM   12  O   UNL     1       4.887  25.313  56.954  1.00  0.00    -0.286 OA
BRANCH  11  13
HETATM   13  C   UNL     1       5.492  26.047  54.843  1.00  0.00     0.018 A 
HETATM   14  C   UNL     1       5.011  27.078  54.022  1.00  0.00     0.055 A 
HETATM   15  C   UNL     1       5.052  26.882  52.658  1.00  0.00     0.106 A 
HETATM   16  C   UNL     1       5.535  25.719  52.106  1.00  0.00     0.105 A 
HETATM   17  O   UNL     1       4.633  27.768  51.716  1.00  0.00    -0.323 OA
HETATM   18  O   UNL     1       5.481  25.730  50.747  1.00  0.00    -0.323 OA
HETATM   19  C   UNL     1       5.999  24.681  52.884  1.00  0.00     0.040 A 
HETATM   20  C   UNL     1       4.899  27.028  50.507  1.00  0.00     0.352 A 
HETATM   21  C   UNL     1       5.967  24.844  54.274  1.00  0.00     0.018 A 
ENDBRANCH  11  13
ENDBRANCH   6  11
BRANCH   7  22
HETATM   22  N   UNL     1       4.105  28.893  56.628  1.00  0.00    -0.397 N 
HETATM   23  H   UNL     1       3.971  29.696  56.005  1.00  0.00     0.156 HD
HETATM   24  H   UNL     1       3.291  28.744  57.212  1.00  0.00     0.156 HD
ENDBRANCH   7  22
BRANCH   9  25
HETATM   25  C   UNL     1       9.373  31.713  59.737  1.00  0.00     0.434 C 
HETATM   26  F   UNL     1       9.909  31.078  60.816  1.00  0.00    -0.165 F 
HETATM   27  F   UNL     1      10.418  31.965  58.895  1.00  0.00    -0.165 F 
HETATM   28  F   UNL     1       8.970  32.938  60.189  1.00  0.00    -0.165 F 
ENDBRANCH   9  25
TORSDOF 4
ENDMDL
