MODEL 1
REMARK VINA RESULT:      -9.0      0.000      0.000
REMARK  5 active torsions:
REMARK  status: ('A' for Active; 'I' for Inactive)
REMARK    1  A    between atoms: C_4  and  N_5 
REMARK       I    between atoms: N_5  and  C_6 
REMARK       I    between atoms: C_6  and  N_7 
REMARK    2  A    between atoms: N_7  and  C_8 
REMARK    3  A    between atoms: C_8  and  C_9 
REMARK    4  A    between atoms: C_9  and  N_10 
REMARK    5  A    between atoms: C_9  and  C_14 
ROOT
HETATM    1  N   UNL     1       7.570  24.532  56.781  1.00  0.00    -0.307 N 
HETATM    2  C   UNL     1       7.851  25.720  57.360  1.00  0.00     0.320 C 
HETATM    3  N   UNL     1       7.954  26.814  56.558  1.00  0.00    -0.340 N 
HETATM    4  O   UNL     1       7.919  25.826  58.583  1.00  0.00    -0.247 OA
HETATM    5  H   UNL     1       7.274  23.814  57.446  1.00  0.00     0.170 HD
HETATM    6  H   UNL     1       7.575  26.742  55.624  1.00  0.00     0.164 HD
ENDROOT
BRANCH   1   7
HETATM    7  C   UNL     1       7.650  24.030  55.458  1.00  0.00     0.066 A 
HETATM    8  C   UNL     1       7.503  24.821  54.312  1.00  0.00     0.038 A 
HETATM    9  C   UNL     1       7.576  24.248  53.037  1.00  0.00    -0.059 A 
HETATM   10  C   UNL     1       7.428  25.093  51.804  1.00  0.00     0.048 C 
HETATM   11  C   UNL     1       7.867  22.886  52.920  1.00  0.00     0.020 A 
HETATM   12  C   UNL     1       8.075  22.097  54.063  1.00  0.00    -0.005 A 
HETATM   13  C   UNL     1       7.966  22.664  55.350  1.00  0.00     0.093 A 
HETATM   14  C   UNL     1       8.406  20.740  53.961  1.00  0.00     0.015 A 
HETATM   15  N   UNL     1       8.162  21.930  56.470  1.00  0.00    -0.258 NA
HETATM   16  C   UNL     1       8.489  20.625  56.331  1.00  0.00     0.117 A 
HETATM   17  C   UNL     1       8.621  19.991  55.111  1.00  0.00     0.020 A 
ENDBRANCH   1   7
BRANCH   3  18
HETATM   18  C   UNL     1       8.449  28.089  57.053  1.00  0.00     0.164 C 
BRANCH  18  19
HETATM   19  C   UNL     1       7.466  29.287  57.012  1.00  0.00     0.261 C 
BRANCH  19  20
HETATM   20  N   UNL     1       7.195  29.945  58.366  1.00  0.00    -0.067 N 
HETATM   21  H   UNL     1       6.596  29.246  58.827  1.00  0.00     0.280 HD
HETATM   22  C   UNL     1       8.367  30.088  59.293  1.00  0.00     0.270 C 
HETATM   23  C   UNL     1       6.396  31.209  58.278  1.00  0.00     0.270 C 
ENDBRANCH  19  20
BRANCH  19  24
HETATM   24  C   UNL     1       6.189  28.985  56.281  1.00  0.00     0.085 A 
HETATM   25  O   UNL     1       5.312  28.169  56.947  1.00  0.00    -0.325 OA
HETATM   26  C   UNL     1       4.217  28.029  56.156  1.00  0.00     0.142 A 
HETATM   27  C   UNL     1       4.372  28.743  54.992  1.00  0.00     0.027 A 
HETATM   28  C   UNL     1       5.640  29.367  55.073  1.00  0.00     0.037 A 
ENDBRANCH  19  24
ENDBRANCH  18  19
ENDBRANCH   3  18
TORSDOF 5
ENDMDL
MODEL 2
REMARK VINA RESULT:      -8.9      1.209      2.774
REMARK  5 active torsions:
REMARK  status: ('A' for Active; 'I' for Inactive)
REMARK    1  A    between atoms: C_4  and  N_5 
REMARK       I    between atoms: N_5  and  C_6 
REMARK       I    between atoms: C_6  and  N_7 
REMARK    2  A    between atoms: N_7  and  C_8 
REMARK    3  A    between atoms: C_8  and  C_9 
REMARK    4  A    between atoms: C_9  and  N_10 
REMARK    5  A    between atoms: C_9  and  C_14 
ROOT
HETATM    1  N   UNL     1       7.538  24.533  56.772  1.00  0.00    -0.307 N 
HETATM    2  C   UNL     1       7.902  25.689  57.371  1.00  0.00     0.320 C 
HETATM    3  N   UNL     1       8.132  26.773  56.582  1.00  0.00    -0.340 N 
HETATM    4  O   UNL     1       7.935  25.783  58.596  1.00  0.00    -0.247 OA
HETATM    5  H   UNL     1       7.155  23.842  57.421  1.00  0.00     0.170 HD
HETATM    6  H   UNL     1       7.783  26.739  55.634  1.00  0.00     0.164 HD
ENDROOT
BRANCH   1   7
HETATM    7  C   UNL     1       7.622  24.033  55.450  1.00  0.00     0.066 A 
HETATM    8  C   UNL     1       7.464  24.822  54.303  1.00  0.00     0.038 A 
HETATM    9  C   UNL     1       7.541  24.250  53.028  1.00  0.00    -0.059 A 
HETATM   10  C   UNL     1       7.383  25.093  51.796  1.00  0.00     0.048 C 
HETATM   11  C   UNL     1       7.847  22.891  52.911  1.00  0.00     0.020 A 
HETATM   12  C   UNL     1       8.066  22.104  54.054  1.00  0.00    -0.005 A 
HETATM   13  C   UNL     1       7.953  22.670  55.341  1.00  0.00     0.093 A 
HETATM   14  C   UNL     1       8.411  20.751  53.952  1.00  0.00     0.015 A 
HETATM   15  N   UNL     1       8.158  21.938  56.461  1.00  0.00    -0.258 NA
HETATM   16  C   UNL     1       8.499  20.637  56.321  1.00  0.00     0.117 A 
HETATM   17  C   UNL     1       8.636  20.004  55.102  1.00  0.00     0.020 A 
ENDBRANCH   1   7
BRANCH   3  18
HETATM   18  C   UNL     1       8.721  27.996  57.105  1.00  0.00     0.164 C 
BRANCH  18  19
HETATM   19  C   UNL     1       7.811  28.893  57.982  1.00  0.00     0.261 C 
BRANCH  19  20
HETATM   20  N   UNL     1       6.559  29.423  57.280  1.00  0.00    -0.067 N 
HETATM   21  H   UNL     1       6.863  29.454  56.297  1.00  0.00     0.280 HD
HETATM   22  C   UNL     1       5.362  28.518  57.263  1.00  0.00     0.270 C 
HETATM   23  C   UNL     1       6.194  30.824  57.665  1.00  0.00     0.270 C 
ENDBRANCH  19  20
BRANCH  19  24
HETATM   24  C   UNL     1       8.556  29.992  58.684  1.00  0.00     0.085 A 
HETATM   25  O   UNL     1       8.431  30.005  60.048  1.00  0.00    -0.325 OA
HETATM   26  C   UNL     1       9.184  31.038  60.509  1.00  0.00     0.142 A 
HETATM   27  C   UNL     1       9.794  31.689  59.464  1.00  0.00     0.027 A 
HETATM   28  C   UNL     1       9.397  31.012  58.286  1.00  0.00     0.037 A 
ENDBRANCH  19  24
ENDBRANCH  18  19
ENDBRANCH   3  18
TORSDOF 5
ENDMDL
MODEL 3
REMARK VINA RESULT:      -8.8      1.476      2.675
REMARK  5 active torsions:
REMARK  status: ('A' for Active; 'I' for Inactive)
REMARK    1  A    between atoms: C_4  and  N_5 
REMARK       I    between atoms: N_5  and  C_6 
REMARK       I    between atoms: C_6  and  N_7 
REMARK    2  A    between atoms: N_7  and  C_8 
REMARK    3  A    between atoms: C_8  and  C_9 
REMARK    4  A    between atoms: C_9  and  N_10 
REMARK    5  A    between atoms: C_9  and  C_14 
ROOT
HETATM    1  N   UNL     1       7.972  24.936  56.801  1.00  0.00    -0.307 N 
HETATM    2  C   UNL     1       7.418  26.051  57.328  1.00  0.00     0.320 C 
HETATM    3  N   UNL     1       6.329  26.578  56.708  1.00  0.00    -0.340 N 
HETATM    4  O   UNL     1       7.829  26.521  58.387  1.00  0.00    -0.247 OA
HETATM    5  H   UNL     1       8.621  24.466  57.435  1.00  0.00     0.170 HD
HETATM    6  H   UNL     1       5.839  25.988  56.049  1.00  0.00     0.164 HD
ENDROOT
BRANCH   1   7
HETATM    7  C   UNL     1       7.905  24.299  55.538  1.00  0.00     0.066 A 
HETATM    8  C   UNL     1       7.766  24.983  54.323  1.00  0.00     0.038 A 
HETATM    9  C   UNL     1       7.687  24.281  53.115  1.00  0.00    -0.059 A 
HETATM   10  C   UNL     1       7.548  25.009  51.810  1.00  0.00     0.048 C 
HETATM   11  C   UNL     1       7.818  22.889  53.129  1.00  0.00     0.020 A 
HETATM   12  C   UNL     1       8.018  22.200  54.336  1.00  0.00    -0.005 A 
HETATM   13  C   UNL     1       8.061  22.902  55.559  1.00  0.00     0.093 A 
HETATM   14  C   UNL     1       8.190  20.810  54.362  1.00  0.00     0.015 A 
HETATM   15  N   UNL     1       8.253  22.265  56.738  1.00  0.00    -0.258 NA
HETATM   16  C   UNL     1       8.424  20.924  56.721  1.00  0.00     0.117 A 
HETATM   17  C   UNL     1       8.401  20.160  55.571  1.00  0.00     0.020 A 
ENDBRANCH   1   7
BRANCH   3  18
HETATM   18  C   UNL     1       5.787  27.877  57.073  1.00  0.00     0.164 C 
BRANCH  18  19
HETATM   19  C   UNL     1       6.300  29.101  56.272  1.00  0.00     0.261 C 
BRANCH  19  20
HETATM   20  N   UNL     1       5.812  29.174  54.825  1.00  0.00    -0.067 N 
HETATM   21  H   UNL     1       6.597  29.649  54.358  1.00  0.00     0.280 HD
HETATM   22  C   UNL     1       5.685  27.873  54.089  1.00  0.00     0.270 C 
HETATM   23  C   UNL     1       4.606  30.043  54.633  1.00  0.00     0.270 C 
ENDBRANCH  19  20
BRANCH  19  24
HETATM   24  C   UNL     1       7.787  29.292  56.362  1.00  0.00     0.085 A 
HETATM   25  O   UNL     1       8.253  29.690  57.588  1.00  0.00    -0.325 OA
HETATM   26  C   UNL     1       9.605  29.784  57.490  1.00  0.00     0.142 A 
HETATM   27  C   UNL     1      10.018  29.452  56.223  1.00  0.00     0.027 A 
HETATM   28  C   UNL     1       8.849  29.127  55.494  1.00  0.00     0.037 A 
ENDBRANCH  19  24
ENDBRANCH  18  19
ENDBRANCH   3  18
TORSDOF 5
ENDMDL
MODEL 4
REMARK VINA RESULT:      -8.8      1.628      1.970
REMARK  5 active torsions:
REMARK  status: ('A' for Active; 'I' for Inactive)
REMARK    1  A    between atoms: C_4  and  N_5 
REMARK       I    between atoms: N_5  and  C_6 
REMARK       I    between atoms: C_6  and  N_7 
REMARK    2  A    between atoms: N_7  and  C_8 
REMARK    3  A    between atoms: C_8  and  C_9 
REMARK    4  A    between atoms: C_9  and  N_10 
REMARK    5  A    between atoms: C_9  and  C_14 
ROOT
HETATM    1  N   UNL     1       8.090  25.087  56.692  1.00  0.00    -0.307 N 
HETATM    2  C   UNL     1       7.444  26.149  57.224  1.00  0.00     0.320 C 
HETATM    3  N   UNL     1       6.213  26.459  56.736  1.00  0.00    -0.340 N 
HETATM    4  O   UNL     1       7.914  26.759  58.182  1.00  0.00    -0.247 OA
HETATM    5  H   UNL     1       8.883  24.770  57.254  1.00  0.00     0.170 HD
HETATM    6  H   UNL     1       5.738  25.752  56.192  1.00  0.00     0.164 HD
ENDROOT
BRANCH   1   7
HETATM    7  C   UNL     1       7.955  24.345  55.493  1.00  0.00     0.066 A 
HETATM    8  C   UNL     1       7.808  24.925  54.227  1.00  0.00     0.038 A 
HETATM    9  C   UNL     1       7.660  24.124  53.089  1.00  0.00    -0.059 A 
HETATM   10  C   UNL     1       7.511  24.741  51.728  1.00  0.00     0.048 C 
HETATM   11  C   UNL     1       7.731  22.735  53.223  1.00  0.00     0.020 A 
HETATM   12  C   UNL     1       7.939  22.146  54.480  1.00  0.00    -0.005 A 
HETATM   13  C   UNL     1       8.051  22.950  55.634  1.00  0.00     0.093 A 
HETATM   14  C   UNL     1       8.051  20.757  54.625  1.00  0.00     0.015 A 
HETATM   15  N   UNL     1       8.253  22.411  56.860  1.00  0.00    -0.258 NA
HETATM   16  C   UNL     1       8.365  21.067  56.958  1.00  0.00     0.117 A 
HETATM   17  C   UNL     1       8.272  20.206  55.881  1.00  0.00     0.020 A 
ENDBRANCH   1   7
BRANCH   3  18
HETATM   18  C   UNL     1       5.529  27.691  57.096  1.00  0.00     0.164 C 
BRANCH  18  19
HETATM   19  C   UNL     1       5.573  28.845  56.061  1.00  0.00     0.261 C 
BRANCH  19  20
HETATM   20  N   UNL     1       4.596  29.990  56.332  1.00  0.00    -0.067 N 
HETATM   21  H   UNL     1       3.700  29.583  56.032  1.00  0.00     0.280 HD
HETATM   22  C   UNL     1       4.366  30.355  57.770  1.00  0.00     0.270 C 
HETATM   23  C   UNL     1       4.827  31.201  55.480  1.00  0.00     0.270 C 
ENDBRANCH  19  20
BRANCH  19  24
HETATM   24  C   UNL     1       5.486  28.372  54.638  1.00  0.00     0.085 A 
HETATM   25  O   UNL     1       4.241  27.976  54.227  1.00  0.00    -0.325 OA
HETATM   26  C   UNL     1       4.347  27.611  52.924  1.00  0.00     0.142 A 
HETATM   27  C   UNL     1       5.640  27.768  52.485  1.00  0.00     0.027 A 
HETATM   28  C   UNL     1       6.376  28.267  53.587  1.00  0.00     0.037 A 
ENDBRANCH  19  24
ENDBRANCH  18  19
ENDBRANCH   3  18
TORSDOF 5
ENDMDL
MODEL 5
REMARK VINA RESULT:      -8.4      1.680      4.001
REMARK  5 active torsions:
REMARK  status: ('A' for Active; 'I' for Inactive)
REMARK    1  A    between atoms: C_4  and  N_5 
REMARK       I    between atoms: N_5  and  C_6 
REMARK       I    between atoms: C_6  and  N_7 
REMARK    2  A    between atoms: N_7  and  C_8 
REMARK    3  A    between atoms: C_8  and  C_9 
REMARK    4  A    between atoms: C_9  and  N_10 
REMARK    5  A    between atoms: C_9  and  C_14 
ROOT
HETATM    1  N   UNL     1       7.335  24.498  56.864  1.00  0.00    -0.307 N 
HETATM    2  C   UNL     1       7.744  25.638  57.464  1.00  0.00     0.320 C 
HETATM    3  N   UNL     1       8.016  26.713  56.676  1.00  0.00    -0.340 N 
HETATM    4  O   UNL     1       7.781  25.729  58.689  1.00  0.00    -0.247 OA
HETATM    5  H   UNL     1       6.926  23.822  57.511  1.00  0.00     0.170 HD
HETATM    6  H   UNL     1       7.665  26.695  55.729  1.00  0.00     0.164 HD
ENDROOT
BRANCH   1   7
HETATM    7  C   UNL     1       7.400  23.997  55.540  1.00  0.00     0.066 A 
HETATM    8  C   UNL     1       8.137  22.866  55.168  1.00  0.00     0.038 A 
HETATM    9  C   UNL     1       8.168  22.443  53.834  1.00  0.00    -0.059 A 
HETATM   10  C   UNL     1       8.949  21.225  53.431  1.00  0.00     0.048 C 
HETATM   11  C   UNL     1       7.397  23.124  52.888  1.00  0.00     0.020 A 
HETATM   12  C   UNL     1       6.608  24.223  53.263  1.00  0.00    -0.005 A 
HETATM   13  C   UNL     1       6.603  24.674  54.600  1.00  0.00     0.093 A 
HETATM   14  C   UNL     1       5.800  24.892  52.335  1.00  0.00     0.015 A 
HETATM   15  N   UNL     1       5.852  25.730  54.993  1.00  0.00    -0.258 NA
HETATM   16  C   UNL     1       5.079  26.344  54.068  1.00  0.00     0.117 A 
HETATM   17  C   UNL     1       5.019  25.966  52.741  1.00  0.00     0.020 A 
ENDBRANCH   1   7
BRANCH   3  18
HETATM   18  C   UNL     1       8.652  27.912  57.201  1.00  0.00     0.164 C 
BRANCH  18  19
HETATM   19  C   UNL     1       7.744  28.910  57.964  1.00  0.00     0.261 C 
BRANCH  19  20
HETATM   20  N   UNL     1       6.524  29.399  57.182  1.00  0.00    -0.067 N 
HETATM   21  H   UNL     1       6.347  30.317  57.614  1.00  0.00     0.280 HD
HETATM   22  C   UNL     1       6.736  29.716  55.731  1.00  0.00     0.270 C 
HETATM   23  C   UNL     1       5.292  28.575  57.400  1.00  0.00     0.270 C 
ENDBRANCH  19  20
BRANCH  19  24
HETATM   24  C   UNL     1       8.500  30.054  58.578  1.00  0.00     0.085 A 
HETATM   25  O   UNL     1       9.529  30.549  57.820  1.00  0.00    -0.325 OA
HETATM   26  C   UNL     1      10.074  31.582  58.513  1.00  0.00     0.142 A 
HETATM   27  C   UNL     1       9.413  31.764  59.703  1.00  0.00     0.027 A 
HETATM   28  C   UNL     1       8.392  30.784  59.745  1.00  0.00     0.037 A 
ENDBRANCH  19  24
ENDBRANCH  18  19
ENDBRANCH   3  18
TORSDOF 5
ENDMDL
MODEL 6
REMARK VINA RESULT:      -8.4      5.619     10.293
REMARK  5 active torsions:
REMARK  status: ('A' for Active; 'I' for Inactive)
REMARK    1  A    between atoms: C_4  and  N_5 
REMARK       I    between atoms: N_5  and  C_6 
REMARK       I    between atoms: C_6  and  N_7 
REMARK    2  A    between atoms: N_7  and  C_8 
REMARK    3  A    between atoms: C_8  and  C_9 
REMARK    4  A    between atoms: C_9  and  N_10 
REMARK    5  A    between atoms: C_9  and  C_14 
ROOT
HETATM    1  N   UNL     1       4.560  32.036  61.529  1.00  0.00    -0.307 N 
HETATM    2  C   UNL     1       4.157  32.077  60.240  1.00  0.00     0.320 C 
HETATM    3  N   UNL     1       5.105  31.977  59.270  1.00  0.00    -0.340 N 
HETATM    4  O   UNL     1       2.962  32.111  59.952  1.00  0.00    -0.247 OA
HETATM    5  H   UNL     1       3.796  31.877  62.190  1.00  0.00     0.170 HD
HETATM    6  H   UNL     1       6.013  31.629  59.543  1.00  0.00     0.164 HD
ENDROOT
BRANCH   1   7
HETATM    7  C   UNL     1       5.800  32.226  62.186  1.00  0.00     0.066 A 
HETATM    8  C   UNL     1       7.043  31.927  61.613  1.00  0.00     0.038 A 
HETATM    9  C   UNL     1       8.226  32.123  62.334  1.00  0.00    -0.059 A 
HETATM   10  C   UNL     1       9.561  31.814  61.720  1.00  0.00     0.048 C 
HETATM   11  C   UNL     1       8.157  32.688  63.611  1.00  0.00     0.020 A 
HETATM   12  C   UNL     1       6.920  33.046  64.170  1.00  0.00    -0.005 A 
HETATM   13  C   UNL     1       5.723  32.815  63.461  1.00  0.00     0.093 A 
HETATM   14  C   UNL     1       6.838  33.648  65.432  1.00  0.00     0.015 A 
HETATM   15  N   UNL     1       4.516  33.150  63.973  1.00  0.00    -0.258 NA
HETATM   16  C   UNL     1       4.479  33.738  65.191  1.00  0.00     0.117 A 
HETATM   17  C   UNL     1       5.600  34.004  65.952  1.00  0.00     0.020 A 
ENDBRANCH   1   7
BRANCH   3  18
HETATM   18  C   UNL     1       4.801  32.212  57.867  1.00  0.00     0.164 C 
BRANCH  18  19
HETATM   19  C   UNL     1       5.360  31.188  56.847  1.00  0.00     0.261 C 
BRANCH  19  20
HETATM   20  N   UNL     1       4.299  30.376  56.103  1.00  0.00    -0.067 N 
HETATM   21  H   UNL     1       4.603  29.409  56.287  1.00  0.00     0.280 HD
HETATM   22  C   UNL     1       2.903  30.428  56.649  1.00  0.00     0.270 C 
HETATM   23  C   UNL     1       4.324  30.560  54.616  1.00  0.00     0.270 C 
ENDBRANCH  19  20
BRANCH  19  24
HETATM   24  C   UNL     1       6.432  30.304  57.416  1.00  0.00     0.085 A 
HETATM   25  O   UNL     1       7.434  30.956  58.087  1.00  0.00    -0.325 OA
HETATM   26  C   UNL     1       8.289  30.008  58.549  1.00  0.00     0.142 A 
HETATM   27  C   UNL     1       7.854  28.755  58.191  1.00  0.00     0.027 A 
HETATM   28  C   UNL     1       6.653  28.942  57.465  1.00  0.00     0.037 A 
ENDBRANCH  19  24
ENDBRANCH  18  19
ENDBRANCH   3  18
TORSDOF 5
ENDMDL
MODEL 7
REMARK VINA RESULT:      -8.3      1.384      3.070
REMARK  5 active torsions:
REMARK  status: ('A' for Active; 'I' for Inactive)
REMARK    1  A    between atoms: C_4  and  N_5 
REMARK       I    between atoms: N_5  and  C_6 
REMARK       I    between atoms: C_6  and  N_7 
REMARK    2  A    between atoms: N_7  and  C_8 
REMARK    3  A    between atoms: C_8  and  C_9 
REMARK    4  A    between atoms: C_9  and  N_10 
REMARK    5  A    between atoms: C_9  and  C_14 
ROOT
HETATM    1  N   UNL     1       7.244  24.803  56.803  1.00  0.00    -0.307 N 
HETATM    2  C   UNL     1       7.770  25.897  57.398  1.00  0.00     0.320 C 
HETATM    3  N   UNL     1       8.221  26.903  56.603  1.00  0.00    -0.340 N 
HETATM    4  O   UNL     1       7.755  26.018  58.622  1.00  0.00    -0.247 OA
HETATM    5  H   UNL     1       6.716  24.206  57.442  1.00  0.00     0.170 HD
HETATM    6  H   UNL     1       7.921  26.903  55.638  1.00  0.00     0.164 HD
ENDROOT
BRANCH   1   7
HETATM    7  C   UNL     1       7.310  24.259  55.496  1.00  0.00     0.066 A 
HETATM    8  C   UNL     1       8.027  23.102  55.166  1.00  0.00     0.038 A 
HETATM    9  C   UNL     1       8.061  22.637  53.847  1.00  0.00    -0.059 A 
HETATM   10  C   UNL     1       8.820  21.391  53.490  1.00  0.00     0.048 C 
HETATM   11  C   UNL     1       7.312  23.303  52.873  1.00  0.00     0.020 A 
HETATM   12  C   UNL     1       6.542  24.428  53.206  1.00  0.00    -0.005 A 
HETATM   13  C   UNL     1       6.535  24.922  54.528  1.00  0.00     0.093 A 
HETATM   14  C   UNL     1       5.756  25.084  52.249  1.00  0.00     0.015 A 
HETATM   15  N   UNL     1       5.803  26.004  54.880  1.00  0.00    -0.258 NA
HETATM   16  C   UNL     1       5.050  26.604  53.930  1.00  0.00     0.117 A 
HETATM   17  C   UNL     1       4.994  26.186  52.615  1.00  0.00     0.020 A 
ENDBRANCH   1   7
BRANCH   3  18
HETATM   18  C   UNL     1       8.982  28.023  57.135  1.00  0.00     0.164 C 
BRANCH  18  19
HETATM   19  C   UNL     1       8.406  29.441  56.891  1.00  0.00     0.261 C 
BRANCH  19  20
HETATM   20  N   UNL     1       8.816  30.490  57.926  1.00  0.00    -0.067 N 
HETATM   21  H   UNL     1       8.232  31.295  57.658  1.00  0.00     0.280 HD
HETATM   22  C   UNL     1       8.429  30.219  59.351  1.00  0.00     0.270 C 
HETATM   23  C   UNL     1      10.242  30.934  57.810  1.00  0.00     0.270 C 
ENDBRANCH  19  20
BRANCH  19  24
HETATM   24  C   UNL     1       6.923  29.450  56.655  1.00  0.00     0.085 A 
HETATM   25  O   UNL     1       6.169  28.890  57.652  1.00  0.00    -0.325 OA
HETATM   26  C   UNL     1       4.867  29.009  57.284  1.00  0.00     0.142 A 
HETATM   27  C   UNL     1       4.768  29.639  56.067  1.00  0.00     0.027 A 
HETATM   28  C   UNL     1       6.093  29.931  55.662  1.00  0.00     0.037 A 
ENDBRANCH  19  24
ENDBRANCH  18  19
ENDBRANCH   3  18
TORSDOF 5
ENDMDL
MODEL 8
REMARK VINA RESULT:      -8.3      2.157      3.984
REMARK  5 active torsions:
REMARK  status: ('A' for Active; 'I' for Inactive)
REMARK    1  A    between atoms: C_4  and  N_5 
REMARK       I    between atoms: N_5  and  C_6 
REMARK       I    between atoms: C_6  and  N_7 
REMARK    2  A    between atoms: N_7  and  C_8 
REMARK    3  A    between atoms: C_8  and  C_9 
REMARK    4  A    between atoms: C_9  and  N_10 
REMARK    5  A    between atoms: C_9  and  C_14 
ROOT
HETATM    1  N   UNL     1       5.921  24.657  53.391  1.00  0.00    -0.307 N 
HETATM    2  C   UNL     1       5.915  26.008  53.350  1.00  0.00     0.320 C 
HETATM    3  N   UNL     1       7.099  26.657  53.514  1.00  0.00    -0.340 N 
HETATM    4  O   UNL     1       4.888  26.628  53.082  1.00  0.00    -0.247 OA
HETATM    5  H   UNL     1       5.063  24.235  53.030  1.00  0.00     0.170 HD
HETATM    6  H   UNL     1       7.945  26.115  53.405  1.00  0.00     0.164 HD
ENDROOT
BRANCH   1   7
HETATM    7  C   UNL     1       6.827  23.684  53.881  1.00  0.00     0.066 A 
HETATM    8  C   UNL     1       7.293  22.600  53.127  1.00  0.00     0.038 A 
HETATM    9  C   UNL     1       8.173  21.668  53.688  1.00  0.00    -0.059 A 
HETATM   10  C   UNL     1       8.684  20.509  52.881  1.00  0.00     0.048 C 
HETATM   11  C   UNL     1       8.636  21.870  54.991  1.00  0.00     0.020 A 
HETATM   12  C   UNL     1       8.220  22.986  55.734  1.00  0.00    -0.005 A 
HETATM   13  C   UNL     1       7.304  23.908  55.184  1.00  0.00     0.093 A 
HETATM   14  C   UNL     1       8.704  23.223  57.027  1.00  0.00     0.015 A 
HETATM   15  N   UNL     1       6.885  24.994  55.876  1.00  0.00    -0.258 NA
HETATM   16  C   UNL     1       7.383  25.193  57.118  1.00  0.00     0.117 A 
HETATM   17  C   UNL     1       8.284  24.345  57.730  1.00  0.00     0.020 A 
ENDBRANCH   1   7
BRANCH   3  18
HETATM   18  C   UNL     1       7.169  28.100  53.688  1.00  0.00     0.164 C 
BRANCH  18  19
HETATM   19  C   UNL     1       6.969  28.642  55.127  1.00  0.00     0.261 C 
BRANCH  19  20
HETATM   20  N   UNL     1       6.033  29.846  55.237  1.00  0.00    -0.067 N 
HETATM   21  H   UNL     1       6.561  30.574  54.736  1.00  0.00     0.280 HD
HETATM   22  C   UNL     1       4.733  29.761  54.491  1.00  0.00     0.270 C 
HETATM   23  C   UNL     1       5.840  30.340  56.638  1.00  0.00     0.270 C 
ENDBRANCH  19  20
BRANCH  19  24
HETATM   24  C   UNL     1       8.259  28.879  55.859  1.00  0.00     0.085 A 
HETATM   25  O   UNL     1       9.220  29.551  55.150  1.00  0.00    -0.325 OA
HETATM   26  C   UNL     1      10.293  29.696  55.969  1.00  0.00     0.142 A 
HETATM   27  C   UNL     1      10.040  29.131  57.195  1.00  0.00     0.027 A 
HETATM   28  C   UNL     1       8.726  28.608  57.130  1.00  0.00     0.037 A 
ENDBRANCH  19  24
ENDBRANCH  18  19
ENDBRANCH   3  18
TORSDOF 5
ENDMDL
MODEL 9
REMARK VINA RESULT:      -8.2      2.257      4.165
REMARK  5 active torsions:
REMARK  status: ('A' for Active; 'I' for Inactive)
REMARK    1  A    between atoms: C_4  and  N_5 
REMARK       I    between atoms: N_5  and  C_6 
REMARK       I    between atoms: C_6  and  N_7 
REMARK    2  A    between atoms: N_7  and  C_8 
REMARK    3  A    between atoms: C_8  and  C_9 
REMARK    4  A    between atoms: C_9  and  N_10 
REMARK    5  A    between atoms: C_9  and  C_14 
ROOT
HETATM    1  N   UNL     1       7.521  25.687  53.017  1.00  0.00    -0.307 N 
HETATM    2  C   UNL     1       6.490  26.560  52.964  1.00  0.00     0.320 C 
HETATM    3  N   UNL     1       5.510  26.449  53.899  1.00  0.00    -0.340 N 
HETATM    4  O   UNL     1       6.485  27.482  52.151  1.00  0.00    -0.247 OA
HETATM    5  H   UNL     1       8.323  25.969  52.450  1.00  0.00     0.170 HD
HETATM    6  H   UNL     1       5.714  25.902  54.724  1.00  0.00     0.164 HD
ENDROOT
BRANCH   1   7
HETATM    7  C   UNL     1       7.722  24.429  53.636  1.00  0.00     0.066 A 
HETATM    8  C   UNL     1       7.756  23.212  52.944  1.00  0.00     0.038 A 
HETATM    9  C   UNL     1       7.939  22.006  53.629  1.00  0.00    -0.059 A 
HETATM   10  C   UNL     1       7.986  20.700  52.890  1.00  0.00     0.048 C 
HETATM   11  C   UNL     1       8.159  22.037  55.009  1.00  0.00     0.020 A 
HETATM   12  C   UNL     1       8.187  23.257  55.704  1.00  0.00    -0.005 A 
HETATM   13  C   UNL     1       7.965  24.471  55.021  1.00  0.00     0.093 A 
HETATM   14  C   UNL     1       8.443  23.306  57.080  1.00  0.00     0.015 A 
HETATM   15  N   UNL     1       7.986  25.663  55.663  1.00  0.00    -0.258 NA
HETATM   16  C   UNL     1       8.247  25.670  56.990  1.00  0.00     0.117 A 
HETATM   17  C   UNL     1       8.479  24.531  57.735  1.00  0.00     0.020 A 
ENDBRANCH   1   7
BRANCH   3  18
HETATM   18  C   UNL     1       4.268  27.202  53.807  1.00  0.00     0.164 C 
BRANCH  18  19
HETATM   19  C   UNL     1       4.200  28.540  54.587  1.00  0.00     0.261 C 
BRANCH  19  20
HETATM   20  N   UNL     1       4.112  29.792  53.712  1.00  0.00    -0.067 N 
HETATM   21  H   UNL     1       5.105  30.025  53.572  1.00  0.00     0.280 HD
HETATM   22  C   UNL     1       3.582  29.606  52.320  1.00  0.00     0.270 C 
HETATM   23  C   UNL     1       3.484  30.968  54.395  1.00  0.00     0.270 C 
ENDBRANCH  19  20
BRANCH  19  24
HETATM   24  C   UNL     1       5.267  28.674  55.635  1.00  0.00     0.085 A 
HETATM   25  O   UNL     1       6.472  29.148  55.187  1.00  0.00    -0.325 OA
HETATM   26  C   UNL     1       7.296  29.228  56.263  1.00  0.00     0.142 A 
HETATM   27  C   UNL     1       6.642  28.815  57.399  1.00  0.00     0.027 A 
HETATM   28  C   UNL     1       5.330  28.464  56.999  1.00  0.00     0.037 A 
ENDBRANCH  19  24
ENDBRANCH  18  19
ENDBRANCH   3  18
TORSDOF 5
ENDMDL
MODEL 10
REMARK VINA RESULT:      -8.1      2.416      3.981
REMARK  5 active torsions:
REMARK  status: ('A' for Active; 'I' for Inactive)
REMARK    1  A    between atoms: C_4  and  N_5 
REMARK       I    between atoms: N_5  and  C_6 
REMARK       I    between atoms: C_6  and  N_7 
REMARK    2  A    between atoms: N_7  and  C_8 
REMARK    3  A    between atoms: C_8  and  C_9 
REMARK    4  A    between atoms: C_9  and  N_10 
REMARK    5  A    between atoms: C_9  and  C_14 
ROOT
HETATM    1  N   UNL     1       6.651  24.486  52.994  1.00  0.00    -0.307 N 
HETATM    2  C   UNL     1       5.747  25.455  52.729  1.00  0.00     0.320 C 
HETATM    3  N   UNL     1       5.614  26.468  53.627  1.00  0.00    -0.340 N 
HETATM    4  O   UNL     1       5.130  25.470  51.666  1.00  0.00    -0.247 OA
HETATM    5  H   UNL     1       6.868  23.900  52.185  1.00  0.00     0.170 HD
HETATM    6  H   UNL     1       6.354  26.587  54.305  1.00  0.00     0.164 HD
ENDROOT
BRANCH   1   7
HETATM    7  C   UNL     1       7.327  24.054  54.161  1.00  0.00     0.066 A 
HETATM    8  C   UNL     1       7.472  24.834  55.315  1.00  0.00     0.038 A 
HETATM    9  C   UNL     1       8.172  24.344  56.423  1.00  0.00    -0.059 A 
HETATM   10  C   UNL     1       8.322  25.173  57.667  1.00  0.00     0.048 C 
HETATM   11  C   UNL     1       8.667  23.037  56.390  1.00  0.00     0.020 A 
HETATM   12  C   UNL     1       8.475  22.227  55.260  1.00  0.00    -0.005 A 
HETATM   13  C   UNL     1       7.801  22.730  54.128  1.00  0.00     0.093 A 
HETATM   14  C   UNL     1       8.931  20.903  55.227  1.00  0.00     0.015 A 
HETATM   15  N   UNL     1       7.600  21.973  53.024  1.00  0.00    -0.258 NA
HETATM   16  C   UNL     1       8.047  20.696  53.034  1.00  0.00     0.117 A 
HETATM   17  C   UNL     1       8.711  20.122  54.099  1.00  0.00     0.020 A 
ENDBRANCH   1   7
BRANCH   3  18
HETATM   18  C   UNL     1       4.537  27.442  53.536  1.00  0.00     0.164 C 
BRANCH  18  19
HETATM   19  C   UNL     1       4.628  28.677  54.468  1.00  0.00     0.261 C 
BRANCH  19  20
HETATM   20  N   UNL     1       4.673  30.025  53.748  1.00  0.00    -0.067 N 
HETATM   21  H   UNL     1       5.683  30.150  53.590  1.00  0.00     0.280 HD
HETATM   22  C   UNL     1       4.081  30.074  52.370  1.00  0.00     0.270 C 
HETATM   23  C   UNL     1       4.222  31.180  54.590  1.00  0.00     0.270 C 
ENDBRANCH  19  20
BRANCH  19  24
HETATM   24  C   UNL     1       5.715  28.567  55.499  1.00  0.00     0.085 A 
HETATM   25  O   UNL     1       6.994  28.639  55.012  1.00  0.00    -0.325 OA
HETATM   26  C   UNL     1       7.833  28.549  56.076  1.00  0.00     0.142 A 
HETATM   27  C   UNL     1       7.117  28.422  57.242  1.00  0.00     0.027 A 
HETATM   28  C   UNL     1       5.750  28.441  56.874  1.00  0.00     0.037 A 
ENDBRANCH  19  24
ENDBRANCH  18  19
ENDBRANCH   3  18
TORSDOF 5
ENDMDL
