MODEL 1
REMARK VINA RESULT:      -8.3      0.000      0.000
REMARK  4 active torsions:
REMARK  status: ('A' for Active; 'I' for Inactive)
REMARK    1  A    between atoms: C_9  and  C_10 
REMARK    2  A    between atoms: C_11  and  O_12 
REMARK    3  A    between atoms: C_18  and  C_19 
REMARK       I    between atoms: C_19  and  N_20 
REMARK    4  A    between atoms: N_20  and  C_21 
ROOT
HETATM    1  C   UNL     1       3.993  30.451  55.854  1.00  0.00     0.070 C 
HETATM    2  C   UNL     1       5.313  29.732  55.976  1.00  0.00     0.037 C 
HETATM    3  N   UNL     1       6.107  30.115  57.054  1.00  0.00    -0.192 N 
HETATM    4  C   UNL     1       7.419  29.810  57.132  1.00  0.00     0.725 A 
HETATM    5  N   UNL     1       7.958  28.919  56.243  1.00  0.00    -0.084 N 
HETATM    6  N   UNL     1       9.290  28.795  56.423  1.00  0.00    -0.149 NA
HETATM    7  C   UNL     1       9.476  29.616  57.463  1.00  0.00     0.275 A 
HETATM    8  N   UNL     1       8.356  30.252  57.932  1.00  0.00    -0.054 NA
HETATM    9  C   UNL     1       7.178  28.213  55.214  1.00  0.00     0.205 C 
HETATM   10  C   UNL     1       5.785  28.824  55.084  1.00  0.00     0.063 C 
HETATM   11  H   UNL     1       5.767  30.876  57.637  1.00  0.00     0.184 HD
ENDROOT
BRANCH  10  12
HETATM   12  C   UNL     1       5.069  28.466  53.834  1.00  0.00     0.256 C 
HETATM   13  N   UNL     1       5.834  28.638  52.698  1.00  0.00    -0.323 N 
HETATM   14  H   UNL     1       6.765  29.014  52.827  1.00  0.00     0.169 HD
HETATM   15  O   UNL     1       3.920  28.056  53.905  1.00  0.00    -0.267 OA
BRANCH  13  16
HETATM   16  C   UNL     1       5.486  28.276  51.380  1.00  0.00     0.035 A 
HETATM   17  C   UNL     1       5.393  29.183  50.321  1.00  0.00     0.031 A 
HETATM   18  C   UNL     1       5.009  28.753  49.046  1.00  0.00     0.026 A 
HETATM   19  C   UNL     1       4.713  27.412  48.825  1.00  0.00     0.034 A 
HETATM   20 CL   UNL     1       4.225  26.886  47.263  1.00  0.00    -0.084 Cl
HETATM   21  C   UNL     1       4.807  26.495  49.868  1.00  0.00     0.026 A 
HETATM   22  C   UNL     1       5.199  26.926  51.140  1.00  0.00     0.031 A 
ENDBRANCH  13  16
ENDBRANCH  10  12
BRANCH   9  23
HETATM   23  C   UNL     1       7.111  26.717  55.537  1.00  0.00     0.005 A 
HETATM   24  C   UNL     1       7.443  25.758  54.561  1.00  0.00     0.076 A 
HETATM   25  C   UNL     1       7.393  24.395  54.876  1.00  0.00     0.037 A 
HETATM   26  C   UNL     1       6.993  23.975  56.147  1.00  0.00     0.003 A 
HETATM   27  C   UNL     1       6.633  24.910  57.109  1.00  0.00     0.001 A 
HETATM   28  C   UNL     1       6.685  26.271  56.807  1.00  0.00     0.012 A 
BRANCH  24  29
HETATM   29  O   UNL     1       7.818  26.250  53.340  1.00  0.00    -0.355 OA
HETATM   30  C   UNL     1       8.032  25.313  52.292  1.00  0.00     0.210 C 
ENDBRANCH  24  29
ENDBRANCH   9  23
TORSDOF 4
ENDMDL
MODEL 2
REMARK VINA RESULT:      -8.2      4.863      7.821
REMARK  4 active torsions:
REMARK  status: ('A' for Active; 'I' for Inactive)
REMARK    1  A    between atoms: C_9  and  C_10 
REMARK    2  A    between atoms: C_11  and  O_12 
REMARK    3  A    between atoms: C_18  and  C_19 
REMARK       I    between atoms: C_19  and  N_20 
REMARK    4  A    between atoms: N_20  and  C_21 
ROOT
HETATM    1  C   UNL     1       3.994  29.715  55.134  1.00  0.00     0.070 C 
HETATM    2  C   UNL     1       5.115  29.045  55.889  1.00  0.00     0.037 C 
HETATM    3  N   UNL     1       5.393  27.734  55.511  1.00  0.00    -0.192 N 
HETATM    4  C   UNL     1       6.131  26.901  56.273  1.00  0.00     0.725 A 
HETATM    5  N   UNL     1       6.814  27.401  57.350  1.00  0.00    -0.084 N 
HETATM    6  N   UNL     1       7.432  26.416  58.036  1.00  0.00    -0.149 NA
HETATM    7  C   UNL     1       7.105  25.354  57.291  1.00  0.00     0.275 A 
HETATM    8  N   UNL     1       6.316  25.608  56.199  1.00  0.00    -0.054 NA
HETATM    9  C   UNL     1       6.843  28.826  57.715  1.00  0.00     0.205 C 
HETATM   10  C   UNL     1       5.790  29.602  56.928  1.00  0.00     0.063 C 
HETATM   11  H   UNL     1       4.794  27.315  54.804  1.00  0.00     0.184 HD
ENDROOT
BRANCH  10  12
HETATM   12  C   UNL     1       5.460  30.936  57.488  1.00  0.00     0.256 C 
HETATM   13  N   UNL     1       5.065  30.892  58.808  1.00  0.00    -0.323 N 
HETATM   14  H   UNL     1       5.006  29.977  59.237  1.00  0.00     0.169 HD
HETATM   15  O   UNL     1       5.573  31.923  56.774  1.00  0.00    -0.267 OA
BRANCH  13  16
HETATM   16  C   UNL     1       4.804  31.992  59.652  1.00  0.00     0.035 A 
HETATM   17  C   UNL     1       5.790  32.678  60.365  1.00  0.00     0.031 A 
HETATM   18  C   UNL     1       5.450  33.741  61.209  1.00  0.00     0.026 A 
HETATM   19  C   UNL     1       4.119  34.121  61.347  1.00  0.00     0.034 A 
HETATM   20 CL   UNL     1       3.699  35.416  62.396  1.00  0.00    -0.084 Cl
HETATM   21  C   UNL     1       3.125  33.452  60.638  1.00  0.00     0.026 A 
HETATM   22  C   UNL     1       3.469  32.394  59.788  1.00  0.00     0.031 A 
ENDBRANCH  13  16
ENDBRANCH  10  12
BRANCH   9  23
HETATM   23  C   UNL     1       8.247  29.398  57.496  1.00  0.00     0.005 A 
HETATM   24  C   UNL     1       8.893  30.119  58.518  1.00  0.00     0.076 A 
HETATM   25  C   UNL     1      10.183  30.622  58.310  1.00  0.00     0.037 A 
HETATM   26  C   UNL     1      10.828  30.435  57.085  1.00  0.00     0.003 A 
HETATM   27  C   UNL     1      10.189  29.752  56.058  1.00  0.00     0.001 A 
HETATM   28  C   UNL     1       8.906  29.242  56.258  1.00  0.00     0.012 A 
BRANCH  24  29
HETATM   29  O   UNL     1       8.192  30.266  59.684  1.00  0.00    -0.355 OA
HETATM   30  C   UNL     1       8.911  30.696  60.834  1.00  0.00     0.210 C 
ENDBRANCH  24  29
ENDBRANCH   9  23
TORSDOF 4
ENDMDL
MODEL 3
REMARK VINA RESULT:      -7.9      3.620      6.564
REMARK  4 active torsions:
REMARK  status: ('A' for Active; 'I' for Inactive)
REMARK    1  A    between atoms: C_9  and  C_10 
REMARK    2  A    between atoms: C_11  and  O_12 
REMARK    3  A    between atoms: C_18  and  C_19 
REMARK       I    between atoms: C_19  and  N_20 
REMARK    4  A    between atoms: N_20  and  C_21 
ROOT
HETATM    1  C   UNL     1       3.622  25.659  48.873  1.00  0.00     0.070 C 
HETATM    2  C   UNL     1       4.243  26.888  49.489  1.00  0.00     0.037 C 
HETATM    3  N   UNL     1       4.087  28.066  48.763  1.00  0.00    -0.192 N 
HETATM    4  C   UNL     1       4.828  29.168  49.001  1.00  0.00     0.725 A 
HETATM    5  N   UNL     1       5.614  29.222  50.121  1.00  0.00    -0.084 N 
HETATM    6  N   UNL     1       6.338  30.361  50.155  1.00  0.00    -0.149 NA
HETATM    7  C   UNL     1       5.908  30.960  49.038  1.00  0.00     0.275 A 
HETATM    8  N   UNL     1       4.978  30.267  48.307  1.00  0.00    -0.054 NA
HETATM    9  C   UNL     1       5.670  28.159  51.137  1.00  0.00     0.205 C 
HETATM   10  C   UNL     1       4.983  26.895  50.627  1.00  0.00     0.063 C 
HETATM   11  H   UNL     1       3.620  28.001  47.861  1.00  0.00     0.184 HD
ENDROOT
BRANCH  10  12
HETATM   12  C   UNL     1       5.319  25.662  51.384  1.00  0.00     0.256 C 
HETATM   13  N   UNL     1       6.578  25.695  51.948  1.00  0.00    -0.323 N 
HETATM   14  H   UNL     1       7.140  26.516  51.764  1.00  0.00     0.169 HD
HETATM   15  O   UNL     1       4.491  24.765  51.455  1.00  0.00    -0.267 OA
BRANCH  13  16
HETATM   16  C   UNL     1       7.140  24.738  52.819  1.00  0.00     0.035 A 
HETATM   17  C   UNL     1       7.948  23.679  52.396  1.00  0.00     0.031 A 
HETATM   18  C   UNL     1       8.443  22.749  53.317  1.00  0.00     0.026 A 
HETATM   19  C   UNL     1       8.128  22.872  54.666  1.00  0.00     0.034 A 
HETATM   20 CL   UNL     1       8.724  21.720  55.796  1.00  0.00    -0.084 Cl
HETATM   21  C   UNL     1       7.330  23.925  55.104  1.00  0.00     0.026 A 
HETATM   22  C   UNL     1       6.843  24.859  54.182  1.00  0.00     0.031 A 
ENDBRANCH  13  16
ENDBRANCH  10  12
BRANCH   9  23
HETATM   23  C   UNL     1       5.050  28.650  52.449  1.00  0.00     0.005 A 
HETATM   24  C   UNL     1       5.807  28.666  53.636  1.00  0.00     0.076 A 
HETATM   25  C   UNL     1       5.232  29.133  54.824  1.00  0.00     0.037 A 
HETATM   26  C   UNL     1       3.904  29.562  54.849  1.00  0.00     0.003 A 
HETATM   27  C   UNL     1       3.137  29.522  53.690  1.00  0.00     0.001 A 
HETATM   28  C   UNL     1       3.702  29.064  52.500  1.00  0.00     0.012 A 
BRANCH  24  29
HETATM   29  O   UNL     1       7.097  28.222  53.531  1.00  0.00    -0.355 OA
HETATM   30  C   UNL     1       7.922  28.317  54.686  1.00  0.00     0.210 C 
ENDBRANCH  24  29
ENDBRANCH   9  23
TORSDOF 4
ENDMDL
MODEL 4
REMARK VINA RESULT:      -7.8      8.097     11.199
REMARK  4 active torsions:
REMARK  status: ('A' for Active; 'I' for Inactive)
REMARK    1  A    between atoms: C_9  and  C_10 
REMARK    2  A    between atoms: C_11  and  O_12 
REMARK    3  A    between atoms: C_18  and  C_19 
REMARK       I    between atoms: C_19  and  N_20 
REMARK    4  A    between atoms: N_20  and  C_21 
ROOT
HETATM    1  C   UNL     1       7.939  31.968  63.099  1.00  0.00     0.070 C 
HETATM    2  C   UNL     1       7.001  32.918  63.802  1.00  0.00     0.037 C 
HETATM    3  N   UNL     1       7.413  33.345  65.062  1.00  0.00    -0.192 N 
HETATM    4  C   UNL     1       6.573  33.930  65.939  1.00  0.00     0.725 A 
HETATM    5  N   UNL     1       5.327  34.317  65.524  1.00  0.00    -0.084 N 
HETATM    6  N   UNL     1       4.601  34.811  66.549  1.00  0.00    -0.149 NA
HETATM    7  C   UNL     1       5.490  34.722  67.546  1.00  0.00     0.275 A 
HETATM    8  N   UNL     1       6.711  34.195  67.214  1.00  0.00    -0.054 NA
HETATM    9  C   UNL     1       4.845  34.184  64.140  1.00  0.00     0.205 C 
HETATM   10  C   UNL     1       5.789  33.303  63.327  1.00  0.00     0.063 C 
HETATM   11  H   UNL     1       8.275  32.949  65.430  1.00  0.00     0.184 HD
ENDROOT
BRANCH  10  12
HETATM   12  C   UNL     1       5.211  32.782  62.062  1.00  0.00     0.256 C 
HETATM   13  N   UNL     1       5.771  33.344  60.934  1.00  0.00    -0.323 N 
HETATM   14  H   UNL     1       6.472  34.059  61.079  1.00  0.00     0.169 HD
HETATM   15  O   UNL     1       4.336  31.929  62.117  1.00  0.00    -0.267 OA
BRANCH  13  16
HETATM   16  C   UNL     1       5.525  32.977  59.594  1.00  0.00     0.035 A 
HETATM   17  C   UNL     1       4.605  33.624  58.764  1.00  0.00     0.031 A 
HETATM   18  C   UNL     1       4.392  33.180  57.454  1.00  0.00     0.026 A 
HETATM   19  C   UNL     1       5.096  32.083  56.969  1.00  0.00     0.034 A 
HETATM   20 CL   UNL     1       4.822  31.528  55.365  1.00  0.00    -0.084 Cl
HETATM   21  C   UNL     1       6.020  31.431  57.781  1.00  0.00     0.026 A 
HETATM   22  C   UNL     1       6.238  31.882  59.088  1.00  0.00     0.031 A 
ENDBRANCH  13  16
ENDBRANCH  10  12
BRANCH   9  23
HETATM   23  C   UNL     1       4.677  35.568  63.505  1.00  0.00     0.005 A 
HETATM   24  C   UNL     1       3.475  35.919  62.861  1.00  0.00     0.076 A 
HETATM   25  C   UNL     1       3.330  37.194  62.300  1.00  0.00     0.037 A 
HETATM   26  C   UNL     1       4.378  38.116  62.352  1.00  0.00     0.003 A 
HETATM   27  C   UNL     1       5.580  37.770  62.958  1.00  0.00     0.001 A 
HETATM   28  C   UNL     1       5.732  36.506  63.525  1.00  0.00     0.012 A 
BRANCH  24  29
HETATM   29  O   UNL     1       2.500  34.959  62.845  1.00  0.00    -0.355 OA
HETATM   30  C   UNL     1       1.945  34.607  61.584  1.00  0.00     0.210 C 
ENDBRANCH  24  29
ENDBRANCH   9  23
TORSDOF 4
ENDMDL
MODEL 5
REMARK VINA RESULT:      -7.6      2.557      5.341
REMARK  4 active torsions:
REMARK  status: ('A' for Active; 'I' for Inactive)
REMARK    1  A    between atoms: C_9  and  C_10 
REMARK    2  A    between atoms: C_11  and  O_12 
REMARK    3  A    between atoms: C_18  and  C_19 
REMARK       I    between atoms: C_19  and  N_20 
REMARK    4  A    between atoms: N_20  and  C_21 
ROOT
HETATM    1  C   UNL     1       8.970  29.105  56.222  1.00  0.00     0.070 C 
HETATM    2  C   UNL     1       7.475  29.185  56.042  1.00  0.00     0.037 C 
HETATM    3  N   UNL     1       6.837  30.193  56.762  1.00  0.00    -0.192 N 
HETATM    4  C   UNL     1       5.504  30.208  56.961  1.00  0.00     0.725 A 
HETATM    5  N   UNL     1       4.708  29.336  56.267  1.00  0.00    -0.084 N 
HETATM    6  N   UNL     1       3.418  29.442  56.649  1.00  0.00    -0.149 NA
HETATM    7  C   UNL     1       3.508  30.425  57.552  1.00  0.00     0.275 A 
HETATM    8  N   UNL     1       4.765  30.927  57.768  1.00  0.00    -0.054 NA
HETATM    9  C   UNL     1       5.212  28.393  55.256  1.00  0.00     0.205 C 
HETATM   10  C   UNL     1       6.735  28.315  55.308  1.00  0.00     0.063 C 
HETATM   11  H   UNL     1       7.411  30.755  57.386  1.00  0.00     0.184 HD
ENDROOT
BRANCH  10  12
HETATM   12  C   UNL     1       7.315  27.129  54.628  1.00  0.00     0.256 C 
HETATM   13  N   UNL     1       6.996  25.937  55.243  1.00  0.00    -0.323 N 
HETATM   14  H   UNL     1       6.446  25.992  56.091  1.00  0.00     0.169 HD
HETATM   15  O   UNL     1       7.986  27.294  53.619  1.00  0.00    -0.267 OA
BRANCH  13  16
HETATM   16  C   UNL     1       7.291  24.638  54.777  1.00  0.00     0.035 A 
HETATM   17  C   UNL     1       7.274  23.498  55.585  1.00  0.00     0.031 A 
HETATM   18  C   UNL     1       7.611  22.246  55.057  1.00  0.00     0.026 A 
HETATM   19  C   UNL     1       7.970  22.130  53.718  1.00  0.00     0.034 A 
HETATM   20 CL   UNL     1       8.400  20.595  53.074  1.00  0.00    -0.084 Cl
HETATM   21  C   UNL     1       7.986  23.256  52.899  1.00  0.00     0.026 A 
HETATM   22  C   UNL     1       7.640  24.505  53.427  1.00  0.00     0.031 A 
ENDBRANCH  13  16
ENDBRANCH  10  12
BRANCH   9  23
HETATM   23  C   UNL     1       4.714  28.797  53.865  1.00  0.00     0.005 A 
HETATM   24  C   UNL     1       4.375  27.816  52.913  1.00  0.00     0.076 A 
HETATM   25  C   UNL     1       3.906  28.200  51.651  1.00  0.00     0.037 A 
HETATM   26  C   UNL     1       3.792  29.552  51.317  1.00  0.00     0.003 A 
HETATM   27  C   UNL     1       4.153  30.529  52.237  1.00  0.00     0.001 A 
HETATM   28  C   UNL     1       4.615  30.157  53.499  1.00  0.00     0.012 A 
BRANCH  24  29
HETATM   29  O   UNL     1       4.521  26.516  53.314  1.00  0.00    -0.355 OA
HETATM   30  C   UNL     1       4.616  25.522  52.300  1.00  0.00     0.210 C 
ENDBRANCH  24  29
ENDBRANCH   9  23
TORSDOF 4
ENDMDL
MODEL 6
REMARK VINA RESULT:      -7.5      3.467      6.302
REMARK  4 active torsions:
REMARK  status: ('A' for Active; 'I' for Inactive)
REMARK    1  A    between atoms: C_9  and  C_10 
REMARK    2  A    between atoms: C_11  and  O_12 
REMARK    3  A    between atoms: C_18  and  C_19 
REMARK       I    between atoms: C_19  and  N_20 
REMARK    4  A    between atoms: N_20  and  C_21 
ROOT
HETATM    1  C   UNL     1       8.758  30.633  58.774  1.00  0.00     0.070 C 
HETATM    2  C   UNL     1       7.308  30.953  58.508  1.00  0.00     0.037 C 
HETATM    3  N   UNL     1       6.761  31.960  59.299  1.00  0.00    -0.192 N 
HETATM    4  C   UNL     1       5.431  32.151  59.411  1.00  0.00     0.725 A 
HETATM    5  N   UNL     1       4.581  31.486  58.568  1.00  0.00    -0.084 N 
HETATM    6  N   UNL     1       3.291  31.741  58.874  1.00  0.00    -0.149 NA
HETATM    7  C   UNL     1       3.443  32.596  59.892  1.00  0.00     0.275 A 
HETATM    8  N   UNL     1       4.736  32.879  60.248  1.00  0.00    -0.054 NA
HETATM    9  C   UNL     1       5.029  30.594  57.487  1.00  0.00     0.205 C 
HETATM   10  C   UNL     1       6.517  30.286  57.629  1.00  0.00     0.063 C 
HETATM   11  H   UNL     1       7.355  32.360  60.022  1.00  0.00     0.184 HD
ENDROOT
BRANCH  10  12
HETATM   12  C   UNL     1       6.980  29.109  56.852  1.00  0.00     0.256 C 
HETATM   13  N   UNL     1       6.801  27.912  57.516  1.00  0.00    -0.323 N 
HETATM   14  H   UNL     1       6.419  27.961  58.451  1.00  0.00     0.169 HD
HETATM   15  O   UNL     1       7.448  29.281  55.735  1.00  0.00    -0.267 OA
BRANCH  13  16
HETATM   16  C   UNL     1       7.026  26.618  57.002  1.00  0.00     0.035 A 
HETATM   17  C   UNL     1       6.127  25.942  56.173  1.00  0.00     0.031 A 
HETATM   18  C   UNL     1       6.405  24.644  55.729  1.00  0.00     0.026 A 
HETATM   19  C   UNL     1       7.582  24.014  56.117  1.00  0.00     0.034 A 
HETATM   20 CL   UNL     1       7.916  22.414  55.586  1.00  0.00    -0.084 Cl
HETATM   21  C   UNL     1       8.491  24.676  56.938  1.00  0.00     0.026 A 
HETATM   22  C   UNL     1       8.215  25.978  57.373  1.00  0.00     0.031 A 
ENDBRANCH  13  16
ENDBRANCH  10  12
BRANCH   9  23
HETATM   23  C   UNL     1       4.708  31.216  56.124  1.00  0.00     0.005 A 
HETATM   24  C   UNL     1       4.170  30.429  55.087  1.00  0.00     0.076 A 
HETATM   25  C   UNL     1       3.866  31.014  53.852  1.00  0.00     0.037 A 
HETATM   26  C   UNL     1       4.115  32.370  53.629  1.00  0.00     0.003 A 
HETATM   27  C   UNL     1       4.674  33.150  54.634  1.00  0.00     0.001 A 
HETATM   28  C   UNL     1       4.974  32.579  55.870  1.00  0.00     0.012 A 
BRANCH  24  29
HETATM   29  O   UNL     1       3.964  29.108  55.382  1.00  0.00    -0.355 OA
HETATM   30  C   UNL     1       4.100  28.169  54.322  1.00  0.00     0.210 C 
ENDBRANCH  24  29
ENDBRANCH   9  23
TORSDOF 4
ENDMDL
MODEL 7
REMARK VINA RESULT:      -7.1      3.218      5.476
REMARK  4 active torsions:
REMARK  status: ('A' for Active; 'I' for Inactive)
REMARK    1  A    between atoms: C_9  and  C_10 
REMARK    2  A    between atoms: C_11  and  O_12 
REMARK    3  A    between atoms: C_18  and  C_19 
REMARK       I    between atoms: C_19  and  N_20 
REMARK    4  A    between atoms: N_20  and  C_21 
ROOT
HETATM    1  C   UNL     1       5.272  27.677  50.308  1.00  0.00     0.070 C 
HETATM    2  C   UNL     1       5.722  26.985  51.570  1.00  0.00     0.037 C 
HETATM    3  N   UNL     1       6.672  25.981  51.397  1.00  0.00    -0.192 N 
HETATM    4  C   UNL     1       6.945  25.069  52.353  1.00  0.00     0.725 A 
HETATM    5  N   UNL     1       6.440  25.243  53.614  1.00  0.00    -0.084 N 
HETATM    6  N   UNL     1       6.751  24.200  54.413  1.00  0.00    -0.149 NA
HETATM    7  C   UNL     1       7.475  23.453  53.571  1.00  0.00     0.275 A 
HETATM    8  N   UNL     1       7.624  23.952  52.303  1.00  0.00    -0.054 NA
HETATM    9  C   UNL     1       5.643  26.410  54.026  1.00  0.00     0.205 C 
HETATM   10  C   UNL     1       5.215  27.223  52.807  1.00  0.00     0.063 C 
HETATM   11  H   UNL     1       6.946  25.757  50.443  1.00  0.00     0.184 HD
ENDROOT
BRANCH  10  12
HETATM   12  C   UNL     1       4.101  28.171  53.058  1.00  0.00     0.256 C 
HETATM   13  N   UNL     1       4.529  29.445  53.370  1.00  0.00    -0.323 N 
HETATM   14  H   UNL     1       5.529  29.590  53.429  1.00  0.00     0.169 HD
HETATM   15  O   UNL     1       2.949  27.772  52.962  1.00  0.00    -0.267 OA
BRANCH  13  16
HETATM   16  C   UNL     1       3.723  30.590  53.543  1.00  0.00     0.035 A 
HETATM   17  C   UNL     1       3.337  31.437  52.499  1.00  0.00     0.031 A 
HETATM   18  C   UNL     1       2.563  32.574  52.754  1.00  0.00     0.026 A 
HETATM   19  C   UNL     1       2.173  32.873  54.055  1.00  0.00     0.034 A 
HETATM   20 CL   UNL     1       1.236  34.279  54.370  1.00  0.00    -0.084 Cl
HETATM   21  C   UNL     1       2.544  32.036  55.104  1.00  0.00     0.026 A 
HETATM   22  C   UNL     1       3.311  30.895  54.846  1.00  0.00     0.031 A 
ENDBRANCH  13  16
ENDBRANCH  10  12
BRANCH   9  23
HETATM   23  C   UNL     1       6.433  27.262  55.024  1.00  0.00     0.005 A 
HETATM   24  C   UNL     1       6.005  27.379  56.361  1.00  0.00     0.076 A 
HETATM   25  C   UNL     1       6.746  28.147  57.266  1.00  0.00     0.037 A 
HETATM   26  C   UNL     1       7.897  28.820  56.850  1.00  0.00     0.003 A 
HETATM   27  C   UNL     1       8.313  28.737  55.527  1.00  0.00     0.001 A 
HETATM   28  C   UNL     1       7.585  27.969  54.618  1.00  0.00     0.012 A 
BRANCH  24  29
HETATM   29  O   UNL     1       4.865  26.696  56.687  1.00  0.00    -0.355 OA
HETATM   30  C   UNL     1       5.015  25.433  57.323  1.00  0.00     0.210 C 
ENDBRANCH  24  29
ENDBRANCH   9  23
TORSDOF 4
ENDMDL
MODEL 8
REMARK VINA RESULT:      -7.0      3.441      6.066
REMARK  4 active torsions:
REMARK  status: ('A' for Active; 'I' for Inactive)
REMARK    1  A    between atoms: C_9  and  C_10 
REMARK    2  A    between atoms: C_11  and  O_12 
REMARK    3  A    between atoms: C_18  and  C_19 
REMARK       I    between atoms: C_19  and  N_20 
REMARK    4  A    between atoms: N_20  and  C_21 
ROOT
HETATM    1  C   UNL     1       4.456  28.973  52.047  1.00  0.00     0.070 C 
HETATM    2  C   UNL     1       5.459  28.139  52.805  1.00  0.00     0.037 C 
HETATM    3  N   UNL     1       6.166  27.212  52.043  1.00  0.00    -0.192 N 
HETATM    4  C   UNL     1       6.856  26.194  52.597  1.00  0.00     0.725 A 
HETATM    5  N   UNL     1       7.056  26.174  53.951  1.00  0.00    -0.084 N 
HETATM    6  N   UNL     1       7.696  25.049  54.334  1.00  0.00    -0.149 NA
HETATM    7  C   UNL     1       7.881  24.455  53.149  1.00  0.00     0.275 A 
HETATM    8  N   UNL     1       7.388  25.126  52.060  1.00  0.00    -0.054 NA
HETATM    9  C   UNL     1       6.605  27.237  54.864  1.00  0.00     0.205 C 
HETATM   10  C   UNL     1       5.647  28.186  54.149  1.00  0.00     0.063 C 
HETATM   11  H   UNL     1       5.920  27.131  51.059  1.00  0.00     0.184 HD
ENDROOT
BRANCH  10  12
HETATM   12  C   UNL     1       4.836  29.039  55.053  1.00  0.00     0.256 C 
HETATM   13  N   UNL     1       5.297  30.337  55.138  1.00  0.00    -0.323 N 
HETATM   14  H   UNL     1       6.138  30.558  54.620  1.00  0.00     0.169 HD
HETATM   15  O   UNL     1       3.863  28.554  55.613  1.00  0.00    -0.267 OA
BRANCH  13  16
HETATM   16  C   UNL     1       4.680  31.412  55.812  1.00  0.00     0.035 A 
HETATM   17  C   UNL     1       3.520  32.049  55.365  1.00  0.00     0.031 A 
HETATM   18  C   UNL     1       2.985  33.133  56.071  1.00  0.00     0.026 A 
HETATM   19  C   UNL     1       3.611  33.586  57.227  1.00  0.00     0.034 A 
HETATM   20 CL   UNL     1       2.963  34.927  58.085  1.00  0.00    -0.084 Cl
HETATM   21  C   UNL     1       4.764  32.958  57.689  1.00  0.00     0.026 A 
HETATM   22  C   UNL     1       5.292  31.869  56.985  1.00  0.00     0.031 A 
ENDBRANCH  13  16
ENDBRANCH  10  12
BRANCH   9  23
HETATM   23  C   UNL     1       7.813  27.983  55.441  1.00  0.00     0.005 A 
HETATM   24  C   UNL     1       8.080  27.950  56.824  1.00  0.00     0.076 A 
HETATM   25  C   UNL     1       9.196  28.622  57.335  1.00  0.00     0.037 A 
HETATM   26  C   UNL     1      10.037  29.347  56.488  1.00  0.00     0.003 A 
HETATM   27  C   UNL     1       9.767  29.413  55.127  1.00  0.00     0.001 A 
HETATM   28  C   UNL     1       8.661  28.742  54.606  1.00  0.00     0.012 A 
BRANCH  24  29
HETATM   29  O   UNL     1       7.205  27.224  57.586  1.00  0.00    -0.355 OA
HETATM   30  C   UNL     1       7.542  25.870  57.864  1.00  0.00     0.210 C 
ENDBRANCH  24  29
ENDBRANCH   9  23
TORSDOF 4
ENDMDL
MODEL 9
REMARK VINA RESULT:      -7.0     16.889     19.143
REMARK  4 active torsions:
REMARK  status: ('A' for Active; 'I' for Inactive)
REMARK    1  A    between atoms: C_9  and  C_10 
REMARK    2  A    between atoms: C_11  and  O_12 
REMARK    3  A    between atoms: C_18  and  C_19 
REMARK       I    between atoms: C_19  and  N_20 
REMARK    4  A    between atoms: N_20  and  C_21 
ROOT
HETATM    1  C   UNL     1      12.460  13.200  51.032  1.00  0.00     0.070 C 
HETATM    2  C   UNL     1      13.302  12.029  51.474  1.00  0.00     0.037 C 
HETATM    3  N   UNL     1      14.361  11.700  50.632  1.00  0.00    -0.192 N 
HETATM    4  C   UNL     1      15.007  10.518  50.707  1.00  0.00     0.725 A 
HETATM    5  N   UNL     1      14.771   9.688  51.771  1.00  0.00    -0.084 N 
HETATM    6  N   UNL     1      15.443   8.525  51.640  1.00  0.00    -0.149 NA
HETATM    7  C   UNL     1      16.089   8.741  50.489  1.00  0.00     0.275 A 
HETATM    8  N   UNL     1      15.856   9.951  49.889  1.00  0.00    -0.054 NA
HETATM    9  C   UNL     1      13.881  10.024  52.893  1.00  0.00     0.205 C 
HETATM   10  C   UNL     1      13.047  11.260  52.564  1.00  0.00     0.063 C 
HETATM   11  H   UNL     1      14.454  12.231  49.769  1.00  0.00     0.184 HD
ENDROOT
BRANCH  10  12
HETATM   12  C   UNL     1      11.858  11.451  53.432  1.00  0.00     0.256 C 
HETATM   13  N   UNL     1      10.786  10.661  53.072  1.00  0.00    -0.323 N 
HETATM   14  H   UNL     1      10.904  10.076  52.254  1.00  0.00     0.169 HD
HETATM   15  O   UNL     1      11.923  12.244  54.361  1.00  0.00    -0.267 OA
BRANCH  13  16
HETATM   16  C   UNL     1       9.565  10.524  53.764  1.00  0.00     0.035 A 
HETATM   17  C   UNL     1       8.693  11.584  54.024  1.00  0.00     0.031 A 
HETATM   18  C   UNL     1       7.513  11.375  54.748  1.00  0.00     0.026 A 
HETATM   19  C   UNL     1       7.203  10.104  55.219  1.00  0.00     0.034 A 
HETATM   20 CL   UNL     1       5.762   9.851  56.122  1.00  0.00    -0.084 Cl
HETATM   21  C   UNL     1       8.059   9.036  54.964  1.00  0.00     0.026 A 
HETATM   22  C   UNL     1       9.233   9.246  54.232  1.00  0.00     0.031 A 
ENDBRANCH  13  16
ENDBRANCH  10  12
BRANCH   9  23
HETATM   23  C   UNL     1      14.698  10.219  54.174  1.00  0.00     0.005 A 
HETATM   24  C   UNL     1      14.286   9.625  55.383  1.00  0.00     0.076 A 
HETATM   25  C   UNL     1      15.052   9.798  56.542  1.00  0.00     0.037 A 
HETATM   26  C   UNL     1      16.211  10.576  56.517  1.00  0.00     0.003 A 
HETATM   27  C   UNL     1      16.611  11.192  55.338  1.00  0.00     0.001 A 
HETATM   28  C   UNL     1      15.859  11.022  54.176  1.00  0.00     0.012 A 
BRANCH  24  29
HETATM   29  O   UNL     1      13.136   8.885  55.326  1.00  0.00    -0.355 OA
HETATM   30  C   UNL     1      12.200   9.043  56.386  1.00  0.00     0.210 C 
ENDBRANCH  24  29
ENDBRANCH   9  23
TORSDOF 4
ENDMDL
MODEL 10
REMARK VINA RESULT:      -6.6      2.876      5.617
REMARK  4 active torsions:
REMARK  status: ('A' for Active; 'I' for Inactive)
REMARK    1  A    between atoms: C_9  and  C_10 
REMARK    2  A    between atoms: C_11  and  O_12 
REMARK    3  A    between atoms: C_18  and  C_19 
REMARK       I    between atoms: C_19  and  N_20 
REMARK    4  A    between atoms: N_20  and  C_21 
ROOT
HETATM    1  C   UNL     1       8.807  29.630  56.562  1.00  0.00     0.070 C 
HETATM    2  C   UNL     1       7.304  29.737  56.496  1.00  0.00     0.037 C 
HETATM    3  N   UNL     1       6.730  30.668  57.359  1.00  0.00    -0.192 N 
HETATM    4  C   UNL     1       5.413  30.670  57.650  1.00  0.00     0.725 A 
HETATM    5  N   UNL     1       4.561  29.879  56.925  1.00  0.00    -0.084 N 
HETATM    6  N   UNL     1       3.301  29.953  57.404  1.00  0.00    -0.149 NA
HETATM    7  C   UNL     1       3.465  30.835  58.396  1.00  0.00     0.275 A 
HETATM    8  N   UNL     1       4.741  31.304  58.576  1.00  0.00    -0.054 NA
HETATM    9  C   UNL     1       4.982  29.044  55.789  1.00  0.00     0.205 C 
HETATM   10  C   UNL     1       6.505  28.953  55.728  1.00  0.00     0.063 C 
HETATM   11  H   UNL     1       7.352  31.159  57.996  1.00  0.00     0.184 HD
ENDROOT
BRANCH  10  12
HETATM   12  C   UNL     1       7.022  27.842  54.890  1.00  0.00     0.256 C 
HETATM   13  N   UNL     1       6.800  26.595  55.438  1.00  0.00    -0.323 N 
HETATM   14  H   UNL     1       6.353  26.568  56.346  1.00  0.00     0.169 HD
HETATM   15  O   UNL     1       7.565  28.104  53.826  1.00  0.00    -0.267 OA
BRANCH  13  16
HETATM   16  C   UNL     1       7.061  25.347  54.836  1.00  0.00     0.035 A 
HETATM   17  C   UNL     1       6.515  24.941  53.615  1.00  0.00     0.031 A 
HETATM   18  C   UNL     1       6.795  23.671  53.096  1.00  0.00     0.026 A 
HETATM   19  C   UNL     1       7.621  22.800  53.799  1.00  0.00     0.034 A 
HETATM   20 CL   UNL     1       7.952  21.235  53.169  1.00  0.00    -0.084 Cl
HETATM   21  C   UNL     1       8.178  23.192  55.013  1.00  0.00     0.026 A 
HETATM   22  C   UNL     1       7.903  24.465  55.525  1.00  0.00     0.031 A 
ENDBRANCH  13  16
ENDBRANCH  10  12
BRANCH   9  23
HETATM   23  C   UNL     1       4.396  29.595  54.485  1.00  0.00     0.005 A 
HETATM   24  C   UNL     1       4.443  30.974  54.205  1.00  0.00     0.076 A 
HETATM   25  C   UNL     1       3.918  31.460  53.002  1.00  0.00     0.037 A 
HETATM   26  C   UNL     1       3.325  30.591  52.084  1.00  0.00     0.003 A 
HETATM   27  C   UNL     1       3.245  29.232  52.362  1.00  0.00     0.001 A 
HETATM   28  C   UNL     1       3.770  28.737  53.555  1.00  0.00     0.012 A 
BRANCH  24  29
HETATM   29  O   UNL     1       5.033  31.759  55.159  1.00  0.00    -0.355 OA
HETATM   30  C   UNL     1       4.746  33.152  55.132  1.00  0.00     0.210 C 
ENDBRANCH  24  29
ENDBRANCH   9  23
TORSDOF 4
ENDMDL
