MODEL 1
REMARK VINA RESULT:      -9.4      0.000      0.000
REMARK  7 active torsions:
REMARK  status: ('A' for Active; 'I' for Inactive)
REMARK    1  A    between atoms: C_3  and  C_4 
REMARK    2  A    between atoms: C_9  and  N_10 
REMARK       I    between atoms: N_10  and  C_11 
REMARK       I    between atoms: C_11  and  N_15 
REMARK    3  A    between atoms: N_15  and  CA_16 
REMARK    4  A    between atoms: CA_16  and  C_17 
REMARK    5  A    between atoms: CA_16  and  CB_19 
REMARK    6  A    between atoms: C_17  and  O_18 
REMARK    7  A    between atoms: CB_19  and  CG_20 
ROOT
HETATM    1  N   UNK A   0       7.605  26.116  53.590  1.00  0.00    -0.309 N 
HETATM    2  C   UNK A   0       7.145  27.321  54.028  1.00  0.00     0.321 C 
HETATM    3  O   UNK A   0       7.284  28.312  53.315  1.00  0.00    -0.247 OA
HETATM    4  H   UNK A   0       7.897  26.183  52.622  1.00  0.00     0.170 HD
ATOM      5  N   TRP A   1       6.518  27.355  55.231  1.00  0.00    -0.336 N 
ATOM      6  H   TRP A   1       5.946  26.537  55.400  1.00  0.00     0.164 HD
ENDROOT
BRANCH   5   7
ATOM      7  CA  TRP A   1       5.911  28.591  55.750  1.00  0.00     0.114 C 
BRANCH   7   8
ATOM      8  C   TRP A   1       4.427  28.629  55.336  1.00  0.00     0.189 C 
BRANCH   8   9
ATOM      9  O   TRP A   1       3.617  28.070  56.374  1.00  0.00    -0.399 OA
ATOM     10  H   TRP A   1       3.142  27.318  55.979  1.00  0.00     0.209 HD
ENDBRANCH   8   9
ENDBRANCH   7   8
BRANCH   7  11
ATOM     11  CB  TRP A   1       6.074  28.646  57.285  1.00  0.00     0.068 C 
BRANCH  11  12
ATOM     12  CG  TRP A   1       7.050  29.682  57.777  1.00  0.00    -0.028 A 
ATOM     13  CD2 TRP A   1       8.472  29.743  57.575  1.00  0.00    -0.002 A 
ATOM     14  CE2 TRP A   1       8.941  30.879  58.239  1.00  0.00     0.042 A 
ATOM     15  CE3 TRP A   1       9.410  28.948  56.884  1.00  0.00     0.014 A 
ATOM     16  CZ2 TRP A   1      10.290  31.259  58.239  1.00  0.00     0.030 A 
ATOM     17  NE1 TRP A   1       7.859  31.475  58.838  1.00  0.00    -0.365 N 
ATOM     18  CH2 TRP A   1      11.191  30.460  57.532  1.00  0.00     0.002 A 
ATOM     19  CZ3 TRP A   1      10.759  29.319  56.864  1.00  0.00     0.001 A 
ATOM     20  HE1 TRP A   1       7.906  32.314  59.400  1.00  0.00     0.165 HD
ATOM     21  CD1 TRP A   1       6.719  30.769  58.568  1.00  0.00     0.096 A 
ENDBRANCH  11  12
ENDBRANCH   7  11
ENDBRANCH   5   7
BRANCH   1  22
HETATM   22  C   UNK A   0       7.769  24.863  54.209  1.00  0.00     0.036 A 
HETATM   23  C   UNK A   0       7.918  24.666  55.581  1.00  0.00     0.030 A 
HETATM   24  C   UNK A   0       8.047  23.373  56.104  1.00  0.00     0.018 A 
HETATM   25  C   UNK A   0       8.061  22.255  55.258  1.00  0.00     0.015 A 
HETATM   26  C   UNK A   0       7.970  22.439  53.867  1.00  0.00    -0.046 A 
HETATM   27  C   UNK A   0       8.003  21.291  52.894  1.00  0.00     0.049 C 
HETATM   28  C   UNK A   0       7.820  23.746  53.364  1.00  0.00     0.037 A 
BRANCH  25  29
HETATM   29  C   UNK A   0       8.153  20.891  55.860  1.00  0.00     0.156 C 
HETATM   30  C   UNK A   0       9.518  20.292  56.077  1.00  0.00     0.097 C 
HETATM   31  O   UNK A   0       7.136  20.290  56.199  1.00  0.00    -0.293 OA
ENDBRANCH  25  29
ENDBRANCH   1  22
TORSDOF 7
ENDMDL
MODEL 2
REMARK VINA RESULT:      -9.0      1.374      2.364
REMARK  7 active torsions:
REMARK  status: ('A' for Active; 'I' for Inactive)
REMARK    1  A    between atoms: C_3  and  C_4 
REMARK    2  A    between atoms: C_9  and  N_10 
REMARK       I    between atoms: N_10  and  C_11 
REMARK       I    between atoms: C_11  and  N_15 
REMARK    3  A    between atoms: N_15  and  CA_16 
REMARK    4  A    between atoms: CA_16  and  C_17 
REMARK    5  A    between atoms: CA_16  and  CB_19 
REMARK    6  A    between atoms: C_17  and  O_18 
REMARK    7  A    between atoms: CB_19  and  CG_20 
ROOT
HETATM    1  N   UNK A   0       7.718  26.135  53.295  1.00  0.00    -0.309 N 
HETATM    2  C   UNK A   0       7.462  27.226  54.069  1.00  0.00     0.321 C 
HETATM    3  O   UNK A   0       7.627  28.349  53.599  1.00  0.00    -0.247 OA
HETATM    4  H   UNK A   0       7.893  26.418  52.337  1.00  0.00     0.170 HD
ATOM      5  N   TRP A   1       6.997  27.009  55.326  1.00  0.00    -0.336 N 
ATOM      6  H   TRP A   1       6.359  26.226  55.380  1.00  0.00     0.164 HD
ENDROOT
BRANCH   5   7
ATOM      7  CA  TRP A   1       6.610  28.122  56.208  1.00  0.00     0.114 C 
BRANCH   7   8
ATOM      8  C   TRP A   1       5.082  28.090  56.408  1.00  0.00     0.189 C 
BRANCH   8   9
ATOM      9  O   TRP A   1       4.744  28.659  57.676  1.00  0.00    -0.399 OA
ATOM     10  H   TRP A   1       5.326  28.237  58.332  1.00  0.00     0.209 HD
ENDBRANCH   8   9
ENDBRANCH   7   8
BRANCH   7  11
ATOM     11  CB  TRP A   1       7.361  28.006  57.552  1.00  0.00     0.068 C 
BRANCH  11  12
ATOM     12  CG  TRP A   1       8.458  29.019  57.750  1.00  0.00    -0.028 A 
ATOM     13  CD2 TRP A   1       8.485  30.151  58.633  1.00  0.00    -0.002 A 
ATOM     14  CE2 TRP A   1       9.708  30.800  58.447  1.00  0.00     0.042 A 
ATOM     15  CE3 TRP A   1       7.591  30.689  59.584  1.00  0.00     0.014 A 
ATOM     16  CZ2 TRP A   1      10.081  31.945  59.163  1.00  0.00     0.030 A 
ATOM     17  NE1 TRP A   1      10.391  30.107  57.477  1.00  0.00    -0.365 N 
ATOM     18  CH2 TRP A   1       9.182  32.443  60.108  1.00  0.00     0.002 A 
ATOM     19  CZ3 TRP A   1       7.953  31.825  60.317  1.00  0.00     0.001 A 
ATOM     20  HE1 TRP A   1      11.306  30.361  57.130  1.00  0.00     0.165 HD
ATOM     21  CD1 TRP A   1       9.654  29.037  57.052  1.00  0.00     0.096 A 
ENDBRANCH  11  12
ENDBRANCH   7  11
ENDBRANCH   5   7
BRANCH   1  22
HETATM   22  C   UNK A   0       7.808  24.758  53.568  1.00  0.00     0.036 A 
HETATM   23  C   UNK A   0       7.636  23.746  52.625  1.00  0.00     0.030 A 
HETATM   24  C   UNK A   0       7.775  22.401  52.991  1.00  0.00     0.018 A 
HETATM   25  C   UNK A   0       8.059  22.044  54.317  1.00  0.00     0.015 A 
HETATM   26  C   UNK A   0       8.179  23.049  55.294  1.00  0.00    -0.046 A 
HETATM   27  C   UNK A   0       8.457  22.744  56.741  1.00  0.00     0.049 C 
HETATM   28  C   UNK A   0       8.056  24.395  54.900  1.00  0.00     0.037 A 
BRANCH  25  29
HETATM   29  C   UNK A   0       8.245  20.602  54.656  1.00  0.00     0.156 C 
HETATM   30  C   UNK A   0       7.621  20.074  55.922  1.00  0.00     0.097 C 
HETATM   31  O   UNK A   0       8.867  19.860  53.900  1.00  0.00    -0.293 OA
ENDBRANCH  25  29
ENDBRANCH   1  22
TORSDOF 7
ENDMDL
MODEL 3
REMARK VINA RESULT:      -8.9      4.969      7.377
REMARK  7 active torsions:
REMARK  status: ('A' for Active; 'I' for Inactive)
REMARK    1  A    between atoms: C_3  and  C_4 
REMARK    2  A    between atoms: C_9  and  N_10 
REMARK       I    between atoms: N_10  and  C_11 
REMARK       I    between atoms: C_11  and  N_15 
REMARK    3  A    between atoms: N_15  and  CA_16 
REMARK    4  A    between atoms: CA_16  and  C_17 
REMARK    5  A    between atoms: CA_16  and  CB_19 
REMARK    6  A    between atoms: C_17  and  O_18 
REMARK    7  A    between atoms: CB_19  and  CG_20 
ROOT
HETATM    1  N   UNK A   0       7.702  30.852  58.180  1.00  0.00    -0.309 N 
HETATM    2  C   UNK A   0       8.006  31.362  59.406  1.00  0.00     0.321 C 
HETATM    3  O   UNK A   0       8.730  32.352  59.482  1.00  0.00    -0.247 OA
HETATM    4  H   UNK A   0       8.028  31.476  57.450  1.00  0.00     0.170 HD
ATOM      5  N   TRP A   1       7.455  30.760  60.490  1.00  0.00    -0.336 N 
ATOM      6  H   TRP A   1       6.507  30.446  60.327  1.00  0.00     0.164 HD
ENDROOT
BRANCH   5   7
ATOM      7  CA  TRP A   1       7.652  31.289  61.850  1.00  0.00     0.114 C 
BRANCH   7   8
ATOM      8  C   TRP A   1       9.123  31.078  62.257  1.00  0.00     0.189 C 
BRANCH   8   9
ATOM      9  O   TRP A   1       9.425  29.680  62.286  1.00  0.00    -0.399 OA
ATOM     10  H   TRP A   1       9.715  29.442  61.388  1.00  0.00     0.209 HD
ENDBRANCH   8   9
ENDBRANCH   7   8
BRANCH   7  11
ATOM     11  CB  TRP A   1       7.260  32.782  61.890  1.00  0.00     0.068 C 
BRANCH  11  12
ATOM     12  CG  TRP A   1       6.105  33.105  62.802  1.00  0.00    -0.028 A 
ATOM     13  CD2 TRP A   1       6.133  33.456  64.195  1.00  0.00    -0.002 A 
ATOM     14  CE2 TRP A   1       4.811  33.647  64.606  1.00  0.00     0.042 A 
ATOM     15  CE3 TRP A   1       7.154  33.641  65.151  1.00  0.00     0.014 A 
ATOM     16  CZ2 TRP A   1       4.464  34.017  65.912  1.00  0.00     0.030 A 
ATOM     17  NE1 TRP A   1       4.009  33.402  63.518  1.00  0.00    -0.365 N 
ATOM     18  CH2 TRP A   1       5.499  34.208  66.830  1.00  0.00     0.002 A 
ATOM     19  CZ3 TRP A   1       6.826  34.022  66.457  1.00  0.00     0.001 A 
ATOM     20  HE1 TRP A   1       3.000  33.453  63.529  1.00  0.00     0.165 HD
ATOM     21  CD1 TRP A   1       4.772  33.078  62.430  1.00  0.00     0.096 A 
ENDBRANCH  11  12
ENDBRANCH   7  11
ENDBRANCH   5   7
BRANCH   1  22
HETATM   22  C   UNK A   0       7.077  29.665  57.756  1.00  0.00     0.036 A 
HETATM   23  C   UNK A   0       5.735  29.555  57.398  1.00  0.00     0.030 A 
HETATM   24  C   UNK A   0       5.213  28.331  56.961  1.00  0.00     0.018 A 
HETATM   25  C   UNK A   0       6.020  27.186  56.906  1.00  0.00     0.015 A 
HETATM   26  C   UNK A   0       7.362  27.264  57.318  1.00  0.00    -0.046 A 
HETATM   27  C   UNK A   0       8.283  26.074  57.312  1.00  0.00     0.049 C 
HETATM   28  C   UNK A   0       7.872  28.509  57.734  1.00  0.00     0.037 A 
BRANCH  25  29
HETATM   29  C   UNK A   0       5.436  25.911  56.390  1.00  0.00     0.156 C 
HETATM   30  C   UNK A   0       5.557  25.609  54.918  1.00  0.00     0.097 C 
HETATM   31  O   UNK A   0       4.900  25.116  57.158  1.00  0.00    -0.293 OA
ENDBRANCH  25  29
ENDBRANCH   1  22
TORSDOF 7
ENDMDL
MODEL 4
REMARK VINA RESULT:      -8.9      3.637      7.551
REMARK  7 active torsions:
REMARK  status: ('A' for Active; 'I' for Inactive)
REMARK    1  A    between atoms: C_3  and  C_4 
REMARK    2  A    between atoms: C_9  and  N_10 
REMARK       I    between atoms: N_10  and  C_11 
REMARK       I    between atoms: C_11  and  N_15 
REMARK    3  A    between atoms: N_15  and  CA_16 
REMARK    4  A    between atoms: CA_16  and  C_17 
REMARK    5  A    between atoms: CA_16  and  CB_19 
REMARK    6  A    between atoms: C_17  and  O_18 
REMARK    7  A    between atoms: CB_19  and  CG_20 
ROOT
HETATM    1  N   UNK A   0       4.532  28.302  53.414  1.00  0.00    -0.309 N 
HETATM    2  C   UNK A   0       5.158  27.953  54.572  1.00  0.00     0.321 C 
HETATM    3  O   UNK A   0       5.118  28.719  55.532  1.00  0.00    -0.247 OA
HETATM    4  H   UNK A   0       3.974  29.136  53.556  1.00  0.00     0.170 HD
ATOM      5  N   TRP A   1       5.772  26.743  54.614  1.00  0.00    -0.336 N 
ATOM      6  H   TRP A   1       5.264  26.026  54.112  1.00  0.00     0.164 HD
ENDROOT
BRANCH   5   7
ATOM      7  CA  TRP A   1       6.402  26.239  55.846  1.00  0.00     0.114 C 
BRANCH   7   8
ATOM      8  C   TRP A   1       5.451  25.224  56.510  1.00  0.00     0.189 C 
BRANCH   8   9
ATOM      9  O   TRP A   1       4.428  25.915  57.232  1.00  0.00    -0.399 OA
ATOM     10  H   TRP A   1       3.650  25.945  56.648  1.00  0.00     0.209 HD
ENDBRANCH   8   9
ENDBRANCH   7   8
BRANCH   7  11
ATOM     11  CB  TRP A   1       7.768  25.602  55.509  1.00  0.00     0.068 C 
BRANCH  11  12
ATOM     12  CG  TRP A   1       7.687  24.269  54.813  1.00  0.00    -0.028 A 
ATOM     13  CD2 TRP A   1       7.945  22.961  55.347  1.00  0.00    -0.002 A 
ATOM     14  CE2 TRP A   1       7.755  22.041  54.314  1.00  0.00     0.042 A 
ATOM     15  CE3 TRP A   1       8.316  22.462  56.615  1.00  0.00     0.014 A 
ATOM     16  CZ2 TRP A   1       7.908  20.659  54.485  1.00  0.00     0.030 A 
ATOM     17  NE1 TRP A   1       7.416  22.755  53.191  1.00  0.00    -0.365 N 
ATOM     18  CH2 TRP A   1       8.259  20.196  55.755  1.00  0.00     0.002 A 
ATOM     19  CZ3 TRP A   1       8.461  21.084  56.807  1.00  0.00     0.001 A 
ATOM     20  HE1 TRP A   1       7.232  22.345  52.286  1.00  0.00     0.165 HD
ATOM     21  CD1 TRP A   1       7.370  24.092  53.477  1.00  0.00     0.096 A 
ENDBRANCH  11  12
ENDBRANCH   7  11
ENDBRANCH   5   7
BRANCH   1  22
HETATM   22  C   UNK A   0       4.537  27.764  52.114  1.00  0.00     0.036 A 
HETATM   23  C   UNK A   0       5.159  26.572  51.748  1.00  0.00     0.030 A 
HETATM   24  C   UNK A   0       5.082  26.105  50.429  1.00  0.00     0.018 A 
HETATM   25  C   UNK A   0       4.407  26.842  49.446  1.00  0.00     0.015 A 
HETATM   26  C   UNK A   0       3.823  28.076  49.785  1.00  0.00    -0.046 A 
HETATM   27  C   UNK A   0       3.105  28.935  48.780  1.00  0.00     0.049 C 
HETATM   28  C   UNK A   0       3.894  28.516  51.120  1.00  0.00     0.037 A 
BRANCH  25  29
HETATM   29  C   UNK A   0       4.309  26.287  48.063  1.00  0.00     0.156 C 
HETATM   30  C   UNK A   0       3.184  25.335  47.749  1.00  0.00     0.097 C 
HETATM   31  O   UNK A   0       5.112  26.628  47.197  1.00  0.00    -0.293 OA
ENDBRANCH  25  29
ENDBRANCH   1  22
TORSDOF 7
ENDMDL
MODEL 5
REMARK VINA RESULT:      -8.8      3.402      8.754
REMARK  7 active torsions:
REMARK  status: ('A' for Active; 'I' for Inactive)
REMARK    1  A    between atoms: C_3  and  C_4 
REMARK    2  A    between atoms: C_9  and  N_10 
REMARK       I    between atoms: N_10  and  C_11 
REMARK       I    between atoms: C_11  and  N_15 
REMARK    3  A    between atoms: N_15  and  CA_16 
REMARK    4  A    between atoms: CA_16  and  C_17 
REMARK    5  A    between atoms: CA_16  and  CB_19 
REMARK    6  A    between atoms: C_17  and  O_18 
REMARK    7  A    between atoms: CB_19  and  CG_20 
ROOT
HETATM    1  N   UNK A   0       9.267  30.528  58.823  1.00  0.00    -0.309 N 
HETATM    2  C   UNK A   0       8.966  29.652  57.825  1.00  0.00     0.321 C 
HETATM    3  O   UNK A   0       9.656  29.639  56.809  1.00  0.00    -0.247 OA
HETATM    4  H   UNK A   0      10.152  30.984  58.634  1.00  0.00     0.170 HD
ATOM      5  N   TRP A   1       7.926  28.803  58.026  1.00  0.00    -0.336 N 
ATOM      6  H   TRP A   1       7.863  28.476  58.982  1.00  0.00     0.164 HD
ENDROOT
BRANCH   5   7
ATOM      7  CA  TRP A   1       7.576  27.763  57.045  1.00  0.00     0.114 C 
BRANCH   7   8
ATOM      8  C   TRP A   1       8.375  26.486  57.367  1.00  0.00     0.189 C 
BRANCH   8   9
ATOM      9  O   TRP A   1       7.733  25.762  58.421  1.00  0.00    -0.399 OA
ATOM     10  H   TRP A   1       8.098  24.860  58.398  1.00  0.00     0.209 HD
ENDBRANCH   8   9
ENDBRANCH   7   8
BRANCH   7  11
ATOM     11  CB  TRP A   1       6.054  27.506  57.079  1.00  0.00     0.068 C 
BRANCH  11  12
ATOM     12  CG  TRP A   1       5.419  27.304  55.728  1.00  0.00    -0.028 A 
ATOM     13  CD2 TRP A   1       5.657  26.258  54.772  1.00  0.00    -0.002 A 
ATOM     14  CE2 TRP A   1       4.844  26.510  53.664  1.00  0.00     0.042 A 
ATOM     15  CE3 TRP A   1       6.480  25.112  54.740  1.00  0.00     0.014 A 
ATOM     16  CZ2 TRP A   1       4.808  25.676  52.539  1.00  0.00     0.030 A 
ATOM     17  NE1 TRP A   1       4.155  27.670  53.922  1.00  0.00    -0.365 N 
ATOM     18  CH2 TRP A   1       5.622  24.541  52.545  1.00  0.00     0.002 A 
ATOM     19  CZ3 TRP A   1       6.447  24.261  53.629  1.00  0.00     0.001 A 
ATOM     20  HE1 TRP A   1       3.499  28.099  53.284  1.00  0.00     0.165 HD
ATOM     21  CD1 TRP A   1       4.489  28.155  55.156  1.00  0.00     0.096 A 
ENDBRANCH  11  12
ENDBRANCH   7  11
ENDBRANCH   5   7
BRANCH   1  22
HETATM   22  C   UNK A   0       8.598  30.920  59.998  1.00  0.00     0.036 A 
HETATM   23  C   UNK A   0       8.972  30.551  61.288  1.00  0.00     0.030 A 
HETATM   24  C   UNK A   0       8.256  31.018  62.398  1.00  0.00     0.018 A 
HETATM   25  C   UNK A   0       7.131  31.839  62.232  1.00  0.00     0.015 A 
HETATM   26  C   UNK A   0       6.705  32.174  60.934  1.00  0.00    -0.046 A 
HETATM   27  C   UNK A   0       5.494  33.028  60.675  1.00  0.00     0.049 C 
HETATM   28  C   UNK A   0       7.452  31.710  59.834  1.00  0.00     0.037 A 
BRANCH  25  29
HETATM   29  C   UNK A   0       6.424  32.353  63.442  1.00  0.00     0.156 C 
HETATM   30  C   UNK A   0       7.126  33.365  64.310  1.00  0.00     0.097 C 
HETATM   31  O   UNK A   0       5.281  31.981  63.701  1.00  0.00    -0.293 OA
ENDBRANCH  25  29
ENDBRANCH   1  22
TORSDOF 7
ENDMDL
MODEL 6
REMARK VINA RESULT:      -8.8      2.914      8.807
REMARK  7 active torsions:
REMARK  status: ('A' for Active; 'I' for Inactive)
REMARK    1  A    between atoms: C_3  and  C_4 
REMARK    2  A    between atoms: C_9  and  N_10 
REMARK       I    between atoms: N_10  and  C_11 
REMARK       I    between atoms: C_11  and  N_15 
REMARK    3  A    between atoms: N_15  and  CA_16 
REMARK    4  A    between atoms: CA_16  and  C_17 
REMARK    5  A    between atoms: CA_16  and  CB_19 
REMARK    6  A    between atoms: C_17  and  O_18 
REMARK    7  A    between atoms: CB_19  and  CG_20 
ROOT
HETATM    1  N   UNK A   0       9.109  30.268  58.130  1.00  0.00    -0.309 N 
HETATM    2  C   UNK A   0       9.034  29.108  57.421  1.00  0.00     0.321 C 
HETATM    3  O   UNK A   0       9.897  28.858  56.583  1.00  0.00    -0.247 OA
HETATM    4  H   UNK A   0       9.992  30.732  57.951  1.00  0.00     0.170 HD
ATOM      5  N   TRP A   1       8.013  28.261  57.709  1.00  0.00    -0.336 N 
ATOM      6  H   TRP A   1       7.792  28.231  58.696  1.00  0.00     0.164 HD
ENDROOT
BRANCH   5   7
ATOM      7  CA  TRP A   1       7.895  26.945  57.059  1.00  0.00     0.114 C 
BRANCH   7   8
ATOM      8  C   TRP A   1       7.446  25.910  58.109  1.00  0.00     0.189 C 
BRANCH   8   9
ATOM      9  O   TRP A   1       8.521  25.012  58.400  1.00  0.00    -0.399 OA
ATOM     10  H   TRP A   1       8.773  24.601  57.555  1.00  0.00     0.209 HD
ENDBRANCH   8   9
ENDBRANCH   7   8
BRANCH   7  11
ATOM     11  CB  TRP A   1       6.897  27.032  55.884  1.00  0.00     0.068 C 
BRANCH  11  12
ATOM     12  CG  TRP A   1       7.279  26.223  54.673  1.00  0.00    -0.028 A 
ATOM     13  CD2 TRP A   1       7.423  24.798  54.555  1.00  0.00    -0.002 A 
ATOM     14  CE2 TRP A   1       7.808  24.523  53.241  1.00  0.00     0.042 A 
ATOM     15  CE3 TRP A   1       7.257  23.708  55.435  1.00  0.00     0.014 A 
ATOM     16  CZ2 TRP A   1       8.026  23.223  52.766  1.00  0.00     0.030 A 
ATOM     17  NE1 TRP A   1       7.915  25.727  52.589  1.00  0.00    -0.365 N 
ATOM     18  CH2 TRP A   1       7.837  22.165  53.657  1.00  0.00     0.002 A 
ATOM     19  CZ3 TRP A   1       7.458  22.402  54.974  1.00  0.00     0.001 A 
ATOM     20  HE1 TRP A   1       8.192  25.831  51.622  1.00  0.00     0.165 HD
ATOM     21  CD1 TRP A   1       7.599  26.753  53.435  1.00  0.00     0.096 A 
ENDBRANCH  11  12
ENDBRANCH   7  11
ENDBRANCH   5   7
BRANCH   1  22
HETATM   22  C   UNK A   0       8.220  30.927  58.999  1.00  0.00     0.036 A 
HETATM   23  C   UNK A   0       7.028  31.533  58.610  1.00  0.00     0.030 A 
HETATM   24  C   UNK A   0       6.195  32.141  59.559  1.00  0.00     0.018 A 
HETATM   25  C   UNK A   0       6.559  32.178  60.913  1.00  0.00     0.015 A 
HETATM   26  C   UNK A   0       7.786  31.622  61.315  1.00  0.00    -0.046 A 
HETATM   27  C   UNK A   0       8.257  31.646  62.744  1.00  0.00     0.049 C 
HETATM   28  C   UNK A   0       8.598  30.998  60.348  1.00  0.00     0.037 A 
BRANCH  25  29
HETATM   29  C   UNK A   0       5.621  32.794  61.899  1.00  0.00     0.156 C 
HETATM   30  C   UNK A   0       5.715  34.276  62.152  1.00  0.00     0.097 C 
HETATM   31  O   UNK A   0       4.773  32.107  62.463  1.00  0.00    -0.293 OA
ENDBRANCH  25  29
ENDBRANCH   1  22
TORSDOF 7
ENDMDL
MODEL 7
REMARK VINA RESULT:      -8.8      2.866      8.503
REMARK  7 active torsions:
REMARK  status: ('A' for Active; 'I' for Inactive)
REMARK    1  A    between atoms: C_3  and  C_4 
REMARK    2  A    between atoms: C_9  and  N_10 
REMARK       I    between atoms: N_10  and  C_11 
REMARK       I    between atoms: C_11  and  N_15 
REMARK    3  A    between atoms: N_15  and  CA_16 
REMARK    4  A    between atoms: CA_16  and  C_17 
REMARK    5  A    between atoms: CA_16  and  CB_19 
REMARK    6  A    between atoms: C_17  and  O_18 
REMARK    7  A    between atoms: CB_19  and  CG_20 
ROOT
HETATM    1  N   UNK A   0       4.684  27.654  57.245  1.00  0.00    -0.309 N 
HETATM    2  C   UNK A   0       5.005  26.506  56.587  1.00  0.00     0.321 C 
HETATM    3  O   UNK A   0       4.971  25.436  57.191  1.00  0.00    -0.247 OA
HETATM    4  H   UNK A   0       4.310  27.439  58.163  1.00  0.00     0.170 HD
ATOM      5  N   TRP A   1       5.317  26.603  55.270  1.00  0.00    -0.336 N 
ATOM      6  H   TRP A   1       4.758  27.291  54.782  1.00  0.00     0.164 HD
ENDROOT
BRANCH   5   7
ATOM      7  CA  TRP A   1       5.594  25.411  54.451  1.00  0.00     0.114 C 
BRANCH   7   8
ATOM      8  C   TRP A   1       4.900  25.573  53.085  1.00  0.00     0.189 C 
BRANCH   8   9
ATOM      9  O   TRP A   1       3.814  26.497  53.197  1.00  0.00    -0.399 OA
ATOM     10  H   TRP A   1       3.975  27.017  54.003  1.00  0.00     0.209 HD
ENDBRANCH   8   9
ENDBRANCH   7   8
BRANCH   7  11
ATOM     11  CB  TRP A   1       7.120  25.229  54.296  1.00  0.00     0.068 C 
BRANCH  11  12
ATOM     12  CG  TRP A   1       7.683  24.018  54.992  1.00  0.00    -0.028 A 
ATOM     13  CD2 TRP A   1       7.947  22.714  54.450  1.00  0.00    -0.002 A 
ATOM     14  CE2 TRP A   1       8.450  21.923  55.486  1.00  0.00     0.042 A 
ATOM     15  CE3 TRP A   1       7.815  22.124  53.175  1.00  0.00     0.014 A 
ATOM     16  CZ2 TRP A   1       8.832  20.587  55.310  1.00  0.00     0.030 A 
ATOM     17  NE1 TRP A   1       8.474  22.703  56.617  1.00  0.00    -0.365 N 
ATOM     18  CH2 TRP A   1       8.705  20.038  54.032  1.00  0.00     0.002 A 
ATOM     19  CZ3 TRP A   1       8.204  20.794  52.978  1.00  0.00     0.001 A 
ATOM     20  HE1 TRP A   1       8.782  22.384  57.525  1.00  0.00     0.165 HD
ATOM     21  CD1 TRP A   1       8.018  23.961  56.334  1.00  0.00     0.096 A 
ENDBRANCH  11  12
ENDBRANCH   7  11
ENDBRANCH   5   7
BRANCH   1  22
HETATM   22  C   UNK A   0       4.796  29.017  56.918  1.00  0.00     0.036 A 
HETATM   23  C   UNK A   0       5.936  29.793  57.116  1.00  0.00     0.030 A 
HETATM   24  C   UNK A   0       5.956  31.140  56.729  1.00  0.00     0.018 A 
HETATM   25  C   UNK A   0       4.823  31.741  56.164  1.00  0.00     0.015 A 
HETATM   26  C   UNK A   0       3.645  30.988  56.009  1.00  0.00    -0.046 A 
HETATM   27  C   UNK A   0       2.381  31.570  55.434  1.00  0.00     0.049 C 
HETATM   28  C   UNK A   0       3.653  29.632  56.386  1.00  0.00     0.037 A 
BRANCH  25  29
HETATM   29  C   UNK A   0       4.901  33.165  55.721  1.00  0.00     0.156 C 
HETATM   30  C   UNK A   0       4.717  34.249  56.752  1.00  0.00     0.097 C 
HETATM   31  O   UNK A   0       5.144  33.441  54.548  1.00  0.00    -0.293 OA
ENDBRANCH  25  29
ENDBRANCH   1  22
TORSDOF 7
ENDMDL
MODEL 8
REMARK VINA RESULT:      -8.8      2.297      7.989
REMARK  7 active torsions:
REMARK  status: ('A' for Active; 'I' for Inactive)
REMARK    1  A    between atoms: C_3  and  C_4 
REMARK    2  A    between atoms: C_9  and  N_10 
REMARK       I    between atoms: N_10  and  C_11 
REMARK       I    between atoms: C_11  and  N_15 
REMARK    3  A    between atoms: N_15  and  CA_16 
REMARK    4  A    between atoms: CA_16  and  C_17 
REMARK    5  A    between atoms: CA_16  and  CB_19 
REMARK    6  A    between atoms: C_17  and  O_18 
REMARK    7  A    between atoms: CB_19  and  CG_20 
ROOT
HETATM    1  N   UNK A   0       5.169  29.268  55.915  1.00  0.00    -0.309 N 
HETATM    2  C   UNK A   0       5.074  28.242  55.024  1.00  0.00     0.321 C 
HETATM    3  O   UNK A   0       3.972  27.933  54.579  1.00  0.00    -0.247 OA
HETATM    4  H   UNK A   0       4.281  29.749  55.991  1.00  0.00     0.170 HD
ATOM      5  N   TRP A   1       6.225  27.631  54.645  1.00  0.00    -0.336 N 
ATOM      6  H   TRP A   1       7.000  28.275  54.548  1.00  0.00     0.164 HD
ENDROOT
BRANCH   5   7
ATOM      7  CA  TRP A   1       6.236  26.571  53.623  1.00  0.00     0.114 C 
BRANCH   7   8
ATOM      8  C   TRP A   1       5.929  27.199  52.250  1.00  0.00     0.189 C 
BRANCH   8   9
ATOM      9  O   TRP A   1       4.618  26.818  51.822  1.00  0.00    -0.399 OA
ATOM     10  H   TRP A   1       4.032  26.937  52.589  1.00  0.00     0.209 HD
ENDBRANCH   8   9
ENDBRANCH   7   8
BRANCH   7  11
ATOM     11  CB  TRP A   1       7.605  25.857  53.629  1.00  0.00     0.068 C 
BRANCH  11  12
ATOM     12  CG  TRP A   1       7.689  24.663  54.543  1.00  0.00    -0.028 A 
ATOM     13  CD2 TRP A   1       7.765  23.271  54.197  1.00  0.00    -0.002 A 
ATOM     14  CE2 TRP A   1       7.808  22.544  55.388  1.00  0.00     0.042 A 
ATOM     15  CE3 TRP A   1       7.809  22.552  52.983  1.00  0.00     0.014 A 
ATOM     16  CZ2 TRP A   1       7.900  21.146  55.426  1.00  0.00     0.030 A 
ATOM     17  NE1 TRP A   1       7.740  23.449  56.419  1.00  0.00    -0.365 N 
ATOM     18  CH2 TRP A   1       7.959  20.465  54.209  1.00  0.00     0.002 A 
ATOM     19  CZ3 TRP A   1       7.914  21.156  53.002  1.00  0.00     0.001 A 
ATOM     20  HE1 TRP A   1       7.739  23.201  57.399  1.00  0.00     0.165 HD
ATOM     21  CD1 TRP A   1       7.671  24.723  55.926  1.00  0.00     0.096 A 
ENDBRANCH  11  12
ENDBRANCH   7  11
ENDBRANCH   5   7
BRANCH   1  22
HETATM   22  C   UNK A   0       6.212  29.744  56.731  1.00  0.00     0.036 A 
HETATM   23  C   UNK A   0       7.521  29.266  56.710  1.00  0.00     0.030 A 
HETATM   24  C   UNK A   0       8.497  29.827  57.544  1.00  0.00     0.018 A 
HETATM   25  C   UNK A   0       8.170  30.857  58.438  1.00  0.00     0.015 A 
HETATM   26  C   UNK A   0       6.842  31.312  58.513  1.00  0.00    -0.046 A 
HETATM   27  C   UNK A   0       6.410  32.395  59.465  1.00  0.00     0.049 C 
HETATM   28  C   UNK A   0       5.882  30.749  57.651  1.00  0.00     0.037 A 
BRANCH  25  29
HETATM   29  C   UNK A   0       9.250  31.459  59.276  1.00  0.00     0.156 C 
HETATM   30  C   UNK A   0       9.434  30.953  60.683  1.00  0.00     0.097 C 
HETATM   31  O   UNK A   0       9.989  32.324  58.812  1.00  0.00    -0.293 OA
ENDBRANCH  25  29
ENDBRANCH   1  22
TORSDOF 7
ENDMDL
MODEL 9
REMARK VINA RESULT:      -8.7      3.381      8.988
REMARK  7 active torsions:
REMARK  status: ('A' for Active; 'I' for Inactive)
REMARK    1  A    between atoms: C_3  and  C_4 
REMARK    2  A    between atoms: C_9  and  N_10 
REMARK       I    between atoms: N_10  and  C_11 
REMARK       I    between atoms: C_11  and  N_15 
REMARK    3  A    between atoms: N_15  and  CA_16 
REMARK    4  A    between atoms: CA_16  and  C_17 
REMARK    5  A    between atoms: CA_16  and  CB_19 
REMARK    6  A    between atoms: C_17  and  O_18 
REMARK    7  A    between atoms: CB_19  and  CG_20 
ROOT
HETATM    1  N   UNK A   0       8.924  30.727  59.139  1.00  0.00    -0.309 N 
HETATM    2  C   UNK A   0       8.575  29.850  58.158  1.00  0.00     0.321 C 
HETATM    3  O   UNK A   0       9.247  29.798  57.131  1.00  0.00    -0.247 OA
HETATM    4  H   UNK A   0       9.821  31.149  58.930  1.00  0.00     0.170 HD
ATOM      5  N   TRP A   1       7.508  29.043  58.387  1.00  0.00    -0.336 N 
ATOM      6  H   TRP A   1       7.449  28.731  59.348  1.00  0.00     0.164 HD
ENDROOT
BRANCH   5   7
ATOM      7  CA  TRP A   1       7.105  28.004  57.426  1.00  0.00     0.114 C 
BRANCH   7   8
ATOM      8  C   TRP A   1       6.300  28.662  56.289  1.00  0.00     0.189 C 
BRANCH   8   9
ATOM      9  O   TRP A   1       7.162  28.951  55.184  1.00  0.00    -0.399 OA
ATOM     10  H   TRP A   1       6.611  28.904  54.384  1.00  0.00     0.209 HD
ENDBRANCH   8   9
ENDBRANCH   7   8
BRANCH   7  11
ATOM     11  CB  TRP A   1       8.358  27.278  56.889  1.00  0.00     0.068 C 
BRANCH  11  12
ATOM     12  CG  TRP A   1       8.222  25.781  56.784  1.00  0.00    -0.028 A 
ATOM     13  CD2 TRP A   1       7.890  24.989  55.632  1.00  0.00    -0.002 A 
ATOM     14  CE2 TRP A   1       7.868  23.652  56.035  1.00  0.00     0.042 A 
ATOM     15  CE3 TRP A   1       7.612  25.275  54.278  1.00  0.00     0.014 A 
ATOM     16  CZ2 TRP A   1       7.592  22.595  55.158  1.00  0.00     0.030 A 
ATOM     17  NE1 TRP A   1       8.153  23.628  57.378  1.00  0.00    -0.365 N 
ATOM     18  CH2 TRP A   1       7.337  22.910  53.821  1.00  0.00     0.002 A 
ATOM     19  CZ3 TRP A   1       7.346  24.231  53.385  1.00  0.00     0.001 A 
ATOM     20  HE1 TRP A   1       8.192  22.789  57.940  1.00  0.00     0.165 HD
ATOM     21  CD1 TRP A   1       8.369  24.898  57.839  1.00  0.00     0.096 A 
ENDBRANCH  11  12
ENDBRANCH   7  11
ENDBRANCH   5   7
BRANCH   1  22
HETATM   22  C   UNK A   0       8.288  31.159  60.318  1.00  0.00     0.036 A 
HETATM   23  C   UNK A   0       8.673  30.798  61.608  1.00  0.00     0.030 A 
HETATM   24  C   UNK A   0       7.991  31.306  62.722  1.00  0.00     0.018 A 
HETATM   25  C   UNK A   0       6.892  32.160  62.562  1.00  0.00     0.015 A 
HETATM   26  C   UNK A   0       6.454  32.490  61.266  1.00  0.00    -0.046 A 
HETATM   27  C   UNK A   0       5.267  33.380  61.014  1.00  0.00     0.049 C 
HETATM   28  C   UNK A   0       7.166  31.985  60.162  1.00  0.00     0.037 A 
BRANCH  25  29
HETATM   29  C   UNK A   0       6.222  32.717  63.776  1.00  0.00     0.156 C 
HETATM   30  C   UNK A   0       6.930  33.793  64.557  1.00  0.00     0.097 C 
HETATM   31  O   UNK A   0       5.105  32.325  64.105  1.00  0.00    -0.293 OA
ENDBRANCH  25  29
ENDBRANCH   1  22
TORSDOF 7
ENDMDL
MODEL 10
REMARK VINA RESULT:      -8.7      2.368      8.281
REMARK  7 active torsions:
REMARK  status: ('A' for Active; 'I' for Inactive)
REMARK    1  A    between atoms: C_3  and  C_4 
REMARK    2  A    between atoms: C_9  and  N_10 
REMARK       I    between atoms: N_10  and  C_11 
REMARK       I    between atoms: C_11  and  N_15 
REMARK    3  A    between atoms: N_15  and  CA_16 
REMARK    4  A    between atoms: CA_16  and  C_17 
REMARK    5  A    between atoms: CA_16  and  CB_19 
REMARK    6  A    between atoms: C_17  and  O_18 
REMARK    7  A    between atoms: CB_19  and  CG_20 
ROOT
HETATM    1  N   UNK A   0       7.370  29.137  55.378  1.00  0.00    -0.309 N 
HETATM    2  C   UNK A   0       6.973  27.883  55.025  1.00  0.00     0.321 C 
HETATM    3  O   UNK A   0       6.395  27.715  53.954  1.00  0.00    -0.247 OA
HETATM    4  H   UNK A   0       7.244  29.776  54.602  1.00  0.00     0.170 HD
ATOM      5  N   TRP A   1       7.274  26.867  55.873  1.00  0.00    -0.336 N 
ATOM      6  H   TRP A   1       8.181  26.974  56.310  1.00  0.00     0.164 HD
ENDROOT
BRANCH   5   7
ATOM      7  CA  TRP A   1       6.965  25.466  55.541  1.00  0.00     0.114 C 
BRANCH   7   8
ATOM      8  C   TRP A   1       5.435  25.281  55.542  1.00  0.00     0.189 C 
BRANCH   8   9
ATOM      9  O   TRP A   1       4.944  25.275  54.198  1.00  0.00    -0.399 OA
ATOM     10  H   TRP A   1       4.494  26.127  54.065  1.00  0.00     0.209 HD
ENDBRANCH   8   9
ENDBRANCH   7   8
BRANCH   7  11
ATOM     11  CB  TRP A   1       7.580  25.108  54.170  1.00  0.00     0.068 C 
BRANCH  11  12
ATOM     12  CG  TRP A   1       7.758  23.633  53.926  1.00  0.00    -0.028 A 
ATOM     13  CD2 TRP A   1       8.034  22.593  54.878  1.00  0.00    -0.002 A 
ATOM     14  CE2 TRP A   1       8.129  21.392  54.171  1.00  0.00     0.042 A 
ATOM     15  CE3 TRP A   1       8.207  22.549  56.278  1.00  0.00     0.014 A 
ATOM     16  CZ2 TRP A   1       8.377  20.160  54.790  1.00  0.00     0.030 A 
ATOM     17  NE1 TRP A   1       7.940  21.686  52.843  1.00  0.00    -0.365 N 
ATOM     18  CH2 TRP A   1       8.527  20.148  56.178  1.00  0.00     0.002 A 
ATOM     19  CZ3 TRP A   1       8.443  21.326  56.914  1.00  0.00     0.001 A 
ATOM     20  HE1 TRP A   1       7.968  21.006  52.096  1.00  0.00     0.165 HD
ATOM     21  CD1 TRP A   1       7.714  23.026  52.682  1.00  0.00     0.096 A 
ENDBRANCH  11  12
ENDBRANCH   7  11
ENDBRANCH   5   7
BRANCH   1  22
HETATM   22  C   UNK A   0       7.872  29.690  56.570  1.00  0.00     0.036 A 
HETATM   23  C   UNK A   0       9.177  29.533  57.033  1.00  0.00     0.030 A 
HETATM   24  C   UNK A   0       9.590  30.150  58.222  1.00  0.00     0.018 A 
HETATM   25  C   UNK A   0       8.692  30.910  58.984  1.00  0.00     0.015 A 
HETATM   26  C   UNK A   0       7.356  31.032  58.562  1.00  0.00    -0.046 A 
HETATM   27  C   UNK A   0       6.328  31.809  59.340  1.00  0.00     0.049 C 
HETATM   28  C   UNK A   0       6.968  30.421  57.354  1.00  0.00     0.037 A 
BRANCH  25  29
HETATM   29  C   UNK A   0       9.183  31.589  60.220  1.00  0.00     0.156 C 
HETATM   30  C   UNK A   0       9.289  30.784  61.489  1.00  0.00     0.097 C 
HETATM   31  O   UNK A   0       9.524  32.770  60.188  1.00  0.00    -0.293 OA
ENDBRANCH  25  29
ENDBRANCH   1  22
TORSDOF 7
ENDMDL
