MODEL 1
REMARK VINA RESULT:      -9.7      0.000      0.000
REMARK  6 active torsions:
REMARK  status: ('A' for Active; 'I' for Inactive)
REMARK    1  A    between atoms: C_2  and  N_3 
REMARK       I    between atoms: N_3  and  C_4 
REMARK    2  A    between atoms: C_4  and  C_6 
REMARK    3  A    between atoms: C_10  and  C_11 
REMARK    4  A    between atoms: C_11  and  N_12 
REMARK       I    between atoms: N_12  and  C_13 
REMARK    5  A    between atoms: C_13  and  C_15 
REMARK    6  A    between atoms: C_18  and  C_22 
ROOT
HETATM    1  N   UNL     1       7.126  28.036  55.700  1.00  0.00    -0.353 N 
HETATM    2  C   UNL     1       6.378  26.939  56.066  1.00  0.00     0.251 C 
HETATM    3  O   UNL     1       5.358  27.009  56.742  1.00  0.00    -0.268 OA
HETATM    4  H   UNL     1       8.002  27.922  55.214  1.00  0.00     0.163 HD
ENDROOT
BRANCH   1   5
HETATM    5  C   UNL     1       6.754  29.377  56.093  1.00  0.00     0.161 C 
BRANCH   5   6
HETATM    6  C   UNL     1       7.631  29.884  57.210  1.00  0.00    -0.040 A 
HETATM    7  C   UNL     1       9.025  29.755  57.132  1.00  0.00     0.009 A 
HETATM    8  C   UNL     1       9.845  30.265  58.139  1.00  0.00     0.002 A 
HETATM    9  C   UNL     1       9.283  30.916  59.239  1.00  0.00     0.017 A 
HETATM   10  C   UNL     1       7.892  31.045  59.341  1.00  0.00     0.032 A 
HETATM   11  C   UNL     1       7.074  30.534  58.321  1.00  0.00     0.026 A 
BRANCH  10  12
HETATM   12  C   UNL     1       7.237  31.755  60.477  1.00  0.00     0.251 C 
HETATM   13  N   UNL     1       7.383  31.194  61.730  1.00  0.00    -0.357 N 
HETATM   14  H   UNL     1       7.759  30.261  61.818  1.00  0.00     0.162 HD
HETATM   15  O   UNL     1       6.587  32.775  60.271  1.00  0.00    -0.268 OA
BRANCH  13  16
HETATM   16  C   UNL     1       6.764  31.783  62.899  1.00  0.00     0.118 C 
HETATM   17  C   UNL     1       7.747  32.620  63.697  1.00  0.00     0.026 C 
ENDBRANCH  13  16
ENDBRANCH  10  12
ENDBRANCH   5   6
ENDBRANCH   1   5
BRANCH   2  18
HETATM   18  C   UNL     1       6.880  25.608  55.625  1.00  0.00     0.032 A 
HETATM   19  C   UNL     1       7.076  24.624  56.597  1.00  0.00     0.018 A 
HETATM   20  C   UNL     1       7.537  23.358  56.231  1.00  0.00     0.014 A 
HETATM   21  C   UNL     1       7.804  23.050  54.887  1.00  0.00    -0.017 A 
HETATM   22  C   UNL     1       7.609  24.037  53.897  1.00  0.00    -0.050 A 
HETATM   23  C   UNL     1       7.866  23.778  52.437  1.00  0.00     0.049 C 
HETATM   24  C   UNL     1       7.131  25.308  54.279  1.00  0.00     0.024 A 
BRANCH  21  25
HETATM   25  C   UNL     1       8.257  21.709  54.565  1.00  0.00     0.011 A 
HETATM   26  C   UNL     1       8.167  20.955  53.375  1.00  0.00     0.152 A 
HETATM   27  N   UNL     1       8.710  19.740  53.494  1.00  0.00    -0.187 NA
HETATM   28  N   UNL     1       9.133  19.708  54.769  1.00  0.00    -0.289 N 
HETATM   29  H   UNL     1       9.585  18.863  55.105  1.00  0.00     0.188 HD
HETATM   30  C   UNL     1       8.883  20.861  55.454  1.00  0.00     0.123 A 
ENDBRANCH  21  25
ENDBRANCH   2  18
TORSDOF 6
ENDMDL
MODEL 2
REMARK VINA RESULT:      -9.5      1.029      1.777
REMARK  6 active torsions:
REMARK  status: ('A' for Active; 'I' for Inactive)
REMARK    1  A    between atoms: C_2  and  N_3 
REMARK       I    between atoms: N_3  and  C_4 
REMARK    2  A    between atoms: C_4  and  C_6 
REMARK    3  A    between atoms: C_10  and  C_11 
REMARK    4  A    between atoms: C_11  and  N_12 
REMARK       I    between atoms: N_12  and  C_13 
REMARK    5  A    between atoms: C_13  and  C_15 
REMARK    6  A    between atoms: C_18  and  C_22 
ROOT
HETATM    1  N   UNL     1       6.914  27.876  55.849  1.00  0.00    -0.353 N 
HETATM    2  C   UNL     1       7.362  27.447  54.620  1.00  0.00     0.251 C 
HETATM    3  O   UNL     1       7.560  28.197  53.671  1.00  0.00    -0.268 OA
HETATM    4  H   UNL     1       6.686  27.213  56.574  1.00  0.00     0.163 HD
ENDROOT
BRANCH   1   5
HETATM    5  C   UNL     1       6.641  29.271  56.117  1.00  0.00     0.161 C 
BRANCH   5   6
HETATM    6  C   UNL     1       7.549  29.811  57.193  1.00  0.00    -0.040 A 
HETATM    7  C   UNL     1       8.942  29.688  57.074  1.00  0.00     0.009 A 
HETATM    8  C   UNL     1       9.789  30.229  58.041  1.00  0.00     0.002 A 
HETATM    9  C   UNL     1       9.257  30.902  59.143  1.00  0.00     0.017 A 
HETATM   10  C   UNL     1       7.870  31.025  59.286  1.00  0.00     0.032 A 
HETATM   11  C   UNL     1       7.024  30.484  58.305  1.00  0.00     0.026 A 
BRANCH  10  12
HETATM   12  C   UNL     1       7.245  31.759  60.425  1.00  0.00     0.251 C 
HETATM   13  N   UNL     1       7.374  31.191  61.677  1.00  0.00    -0.357 N 
HETATM   14  H   UNL     1       7.714  30.245  61.763  1.00  0.00     0.162 HD
HETATM   15  O   UNL     1       6.635  32.803  60.221  1.00  0.00    -0.268 OA
BRANCH  13  16
HETATM   16  C   UNL     1       6.781  31.802  62.848  1.00  0.00     0.118 C 
HETATM   17  C   UNL     1       7.787  32.637  63.619  1.00  0.00     0.026 C 
ENDBRANCH  13  16
ENDBRANCH  10  12
ENDBRANCH   5   6
ENDBRANCH   1   5
BRANCH   2  18
HETATM   18  C   UNL     1       7.578  25.982  54.459  1.00  0.00     0.032 A 
HETATM   19  C   UNL     1       7.625  25.463  53.163  1.00  0.00     0.018 A 
HETATM   20  C   UNL     1       7.835  24.097  52.961  1.00  0.00     0.014 A 
HETATM   21  C   UNL     1       8.008  23.227  54.051  1.00  0.00    -0.017 A 
HETATM   22  C   UNL     1       7.961  23.742  55.364  1.00  0.00    -0.050 A 
HETATM   23  C   UNL     1       8.145  22.872  56.579  1.00  0.00     0.049 C 
HETATM   24  C   UNL     1       7.762  25.126  55.552  1.00  0.00     0.024 A 
BRANCH  21  25
HETATM   25  C   UNL     1       8.246  21.822  53.777  1.00  0.00     0.011 A 
HETATM   26  C   UNL     1       8.886  20.819  54.539  1.00  0.00     0.152 A 
HETATM   27  N   UNL     1       8.904  19.636  53.919  1.00  0.00    -0.187 NA
HETATM   28  N   UNL     1       8.292  19.885  52.749  1.00  0.00    -0.289 N 
HETATM   29  H   UNL     1       8.190  19.120  52.088  1.00  0.00     0.188 HD
HETATM   30  C   UNL     1       7.882  21.179  52.613  1.00  0.00     0.123 A 
ENDBRANCH  21  25
ENDBRANCH   2  18
TORSDOF 6
ENDMDL
MODEL 3
REMARK VINA RESULT:      -9.5      2.571     11.116
REMARK  6 active torsions:
REMARK  status: ('A' for Active; 'I' for Inactive)
REMARK    1  A    between atoms: C_2  and  N_3 
REMARK       I    between atoms: N_3  and  C_4 
REMARK    2  A    between atoms: C_4  and  C_6 
REMARK    3  A    between atoms: C_10  and  C_11 
REMARK    4  A    between atoms: C_11  and  N_12 
REMARK       I    between atoms: N_12  and  C_13 
REMARK    5  A    between atoms: C_13  and  C_15 
REMARK    6  A    between atoms: C_18  and  C_22 
ROOT
HETATM    1  N   UNL     1       8.105  30.229  59.415  1.00  0.00    -0.353 N 
HETATM    2  C   UNL     1       8.426  31.527  59.743  1.00  0.00     0.251 C 
HETATM    3  O   UNL     1       9.166  32.233  59.067  1.00  0.00    -0.268 OA
HETATM    4  H   UNL     1       7.559  29.659  60.044  1.00  0.00     0.163 HD
ENDROOT
BRANCH   1   5
HETATM    5  C   UNL     1       8.626  29.592  58.225  1.00  0.00     0.161 C 
BRANCH   5   6
HETATM    6  C   UNL     1       7.650  28.585  57.671  1.00  0.00    -0.040 A 
HETATM    7  C   UNL     1       6.301  28.926  57.497  1.00  0.00     0.009 A 
HETATM    8  C   UNL     1       5.403  28.015  56.938  1.00  0.00     0.002 A 
HETATM    9  C   UNL     1       5.841  26.750  56.543  1.00  0.00     0.017 A 
HETATM   10  C   UNL     1       7.182  26.386  56.719  1.00  0.00     0.032 A 
HETATM   11  C   UNL     1       8.080  27.310  57.276  1.00  0.00     0.026 A 
BRANCH  10  12
HETATM   12  C   UNL     1       7.714  25.060  56.289  1.00  0.00     0.251 C 
HETATM   13  N   UNL     1       6.996  24.385  55.323  1.00  0.00    -0.357 N 
HETATM   14  H   UNL     1       6.071  24.705  55.072  1.00  0.00     0.162 HD
HETATM   15  O   UNL     1       8.730  24.611  56.807  1.00  0.00    -0.268 OA
BRANCH  13  16
HETATM   16  C   UNL     1       7.404  23.077  54.854  1.00  0.00     0.118 C 
HETATM   17  C   UNL     1       7.618  23.058  53.352  1.00  0.00     0.026 C 
ENDBRANCH  13  16
ENDBRANCH  10  12
ENDBRANCH   5   6
ENDBRANCH   1   5
BRANCH   2  18
HETATM   18  C   UNL     1       7.851  32.061  61.009  1.00  0.00     0.032 A 
HETATM   19  C   UNL     1       8.450  31.685  62.213  1.00  0.00     0.018 A 
HETATM   20  C   UNL     1       7.953  32.168  63.425  1.00  0.00     0.014 A 
HETATM   21  C   UNL     1       6.850  33.038  63.455  1.00  0.00    -0.017 A 
HETATM   22  C   UNL     1       6.238  33.423  62.243  1.00  0.00    -0.050 A 
HETATM   23  C   UNL     1       5.059  34.358  62.196  1.00  0.00     0.049 C 
HETATM   24  C   UNL     1       6.759  32.939  61.026  1.00  0.00     0.024 A 
BRANCH  21  25
HETATM   25  C   UNL     1       6.394  33.525  64.743  1.00  0.00     0.011 A 
HETATM   26  C   UNL     1       5.102  33.585  65.313  1.00  0.00     0.152 A 
HETATM   27  N   UNL     1       5.106  34.119  66.538  1.00  0.00    -0.187 NA
HETATM   28  N   UNL     1       6.399  34.418  66.748  1.00  0.00    -0.289 N 
HETATM   29  H   UNL     1       6.656  34.850  67.630  1.00  0.00     0.188 HD
HETATM   30  C   UNL     1       7.211  34.085  65.702  1.00  0.00     0.123 A 
ENDBRANCH  21  25
ENDBRANCH   2  18
TORSDOF 6
ENDMDL
MODEL 4
REMARK VINA RESULT:      -9.4      3.272      6.005
REMARK  6 active torsions:
REMARK  status: ('A' for Active; 'I' for Inactive)
REMARK    1  A    between atoms: C_2  and  N_3 
REMARK       I    between atoms: N_3  and  C_4 
REMARK    2  A    between atoms: C_4  and  C_6 
REMARK    3  A    between atoms: C_10  and  C_11 
REMARK    4  A    between atoms: C_11  and  N_12 
REMARK       I    between atoms: N_12  and  C_13 
REMARK    5  A    between atoms: C_13  and  C_15 
REMARK    6  A    between atoms: C_18  and  C_22 
ROOT
HETATM    1  N   UNL     1       8.969  30.853  60.817  1.00  0.00    -0.353 N 
HETATM    2  C   UNL     1       9.013  31.318  59.522  1.00  0.00     0.251 C 
HETATM    3  O   UNL     1       9.324  32.466  59.225  1.00  0.00    -0.268 OA
HETATM    4  H   UNL     1       8.627  29.926  61.019  1.00  0.00     0.163 HD
ENDROOT
BRANCH   1   5
HETATM    5  C   UNL     1       9.295  31.700  61.943  1.00  0.00     0.161 C 
BRANCH   5   6
HETATM    6  C   UNL     1       8.050  32.190  62.639  1.00  0.00    -0.040 A 
HETATM    7  C   UNL     1       8.142  32.866  63.864  1.00  0.00     0.009 A 
HETATM    8  C   UNL     1       6.999  33.365  64.489  1.00  0.00     0.002 A 
HETATM    9  C   UNL     1       5.746  33.197  63.897  1.00  0.00     0.017 A 
HETATM   10  C   UNL     1       5.631  32.515  62.680  1.00  0.00     0.032 A 
HETATM   11  C   UNL     1       6.787  32.021  62.054  1.00  0.00     0.026 A 
BRANCH  10  12
HETATM   12  C   UNL     1       4.324  32.331  61.986  1.00  0.00     0.251 C 
HETATM   13  N   UNL     1       4.370  32.009  60.644  1.00  0.00    -0.357 N 
HETATM   14  H   UNL     1       5.244  32.081  60.143  1.00  0.00     0.162 HD
HETATM   15  O   UNL     1       3.275  32.489  62.602  1.00  0.00    -0.268 OA
BRANCH  13  16
HETATM   16  C   UNL     1       3.161  31.838  59.865  1.00  0.00     0.118 C 
HETATM   17  C   UNL     1       3.396  30.969  58.643  1.00  0.00     0.026 C 
ENDBRANCH  13  16
ENDBRANCH  10  12
ENDBRANCH   5   6
ENDBRANCH   1   5
BRANCH   2  18
HETATM   18  C   UNL     1       8.627  30.358  58.451  1.00  0.00     0.032 A 
HETATM   19  C   UNL     1       9.626  29.893  57.593  1.00  0.00     0.018 A 
HETATM   20  C   UNL     1       9.315  28.985  56.580  1.00  0.00     0.014 A 
HETATM   21  C   UNL     1       8.000  28.520  56.409  1.00  0.00    -0.017 A 
HETATM   22  C   UNL     1       6.983  28.985  57.270  1.00  0.00    -0.050 A 
HETATM   23  C   UNL     1       5.554  28.526  57.152  1.00  0.00     0.049 C 
HETATM   24  C   UNL     1       7.315  29.892  58.297  1.00  0.00     0.024 A 
BRANCH  21  25
HETATM   25  C   UNL     1       7.743  27.558  55.353  1.00  0.00     0.011 A 
HETATM   26  C   UNL     1       7.511  26.165  55.397  1.00  0.00     0.152 A 
HETATM   27  N   UNL     1       7.321  25.638  54.184  1.00  0.00    -0.187 NA
HETATM   28  N   UNL     1       7.448  26.691  53.359  1.00  0.00    -0.289 N 
HETATM   29  H   UNL     1       7.348  26.535  52.361  1.00  0.00     0.188 HD
HETATM   30  C   UNL     1       7.704  27.863  54.009  1.00  0.00     0.123 A 
ENDBRANCH  21  25
ENDBRANCH   2  18
TORSDOF 6
ENDMDL
MODEL 5
REMARK VINA RESULT:      -9.3      1.874      2.483
REMARK  6 active torsions:
REMARK  status: ('A' for Active; 'I' for Inactive)
REMARK    1  A    between atoms: C_2  and  N_3 
REMARK       I    between atoms: N_3  and  C_4 
REMARK    2  A    between atoms: C_4  and  C_6 
REMARK    3  A    between atoms: C_10  and  C_11 
REMARK    4  A    between atoms: C_11  and  N_12 
REMARK       I    between atoms: N_12  and  C_13 
REMARK    5  A    between atoms: C_13  and  C_15 
REMARK    6  A    between atoms: C_18  and  C_22 
ROOT
HETATM    1  N   UNL     1       4.750  27.403  55.825  1.00  0.00    -0.353 N 
HETATM    2  C   UNL     1       5.278  26.945  54.639  1.00  0.00     0.251 C 
HETATM    3  O   UNL     1       5.141  27.524  53.567  1.00  0.00    -0.268 OA
HETATM    4  H   UNL     1       4.817  26.851  56.666  1.00  0.00     0.163 HD
ENDROOT
BRANCH   1   5
HETATM    5  C   UNL     1       3.980  28.626  55.894  1.00  0.00     0.161 C 
BRANCH   5   6
HETATM    6  C   UNL     1       4.760  29.727  56.567  1.00  0.00    -0.040 A 
HETATM    7  C   UNL     1       4.358  31.065  56.434  1.00  0.00     0.009 A 
HETATM    8  C   UNL     1       5.046  32.083  57.093  1.00  0.00     0.002 A 
HETATM    9  C   UNL     1       6.146  31.781  57.898  1.00  0.00     0.017 A 
HETATM   10  C   UNL     1       6.571  30.453  58.034  1.00  0.00     0.032 A 
HETATM   11  C   UNL     1       5.870  29.433  57.372  1.00  0.00     0.026 A 
BRANCH  10  12
HETATM   12  C   UNL     1       7.721  30.067  58.902  1.00  0.00     0.251 C 
HETATM   13  N   UNL     1       7.836  30.723  60.111  1.00  0.00    -0.357 N 
HETATM   14  H   UNL     1       7.271  31.540  60.292  1.00  0.00     0.162 HD
HETATM   15  O   UNL     1       8.519  29.219  58.520  1.00  0.00    -0.268 OA
BRANCH  13  16
HETATM   16  C   UNL     1       8.931  30.448  61.019  1.00  0.00     0.118 C 
HETATM   17  C   UNL     1       9.623  31.722  61.469  1.00  0.00     0.026 C 
ENDBRANCH  13  16
ENDBRANCH  10  12
ENDBRANCH   5   6
ENDBRANCH   1   5
BRANCH   2  18
HETATM   18  C   UNL     1       6.025  25.658  54.691  1.00  0.00     0.032 A 
HETATM   19  C   UNL     1       6.068  24.971  55.906  1.00  0.00     0.018 A 
HETATM   20  C   UNL     1       6.748  23.755  56.003  1.00  0.00     0.014 A 
HETATM   21  C   UNL     1       7.393  23.202  54.884  1.00  0.00    -0.017 A 
HETATM   22  C   UNL     1       7.356  23.888  53.652  1.00  0.00    -0.050 A 
HETATM   23  C   UNL     1       8.017  23.352  52.410  1.00  0.00     0.049 C 
HETATM   24  C   UNL     1       6.654  25.108  53.566  1.00  0.00     0.024 A 
BRANCH  21  25
HETATM   25  C   UNL     1       8.063  21.924  55.040  1.00  0.00     0.011 A 
HETATM   26  C   UNL     1       7.850  20.676  54.413  1.00  0.00     0.152 A 
HETATM   27  N   UNL     1       8.690  19.732  54.848  1.00  0.00    -0.187 NA
HETATM   28  N   UNL     1       9.431  20.371  55.769  1.00  0.00    -0.289 N 
HETATM   29  H   UNL     1      10.151  19.845  56.255  1.00  0.00     0.188 HD
HETATM   30  C   UNL     1       9.094  21.684  55.924  1.00  0.00     0.123 A 
ENDBRANCH  21  25
ENDBRANCH   2  18
TORSDOF 6
ENDMDL
MODEL 6
REMARK VINA RESULT:      -9.1      1.656      2.288
REMARK  6 active torsions:
REMARK  status: ('A' for Active; 'I' for Inactive)
REMARK    1  A    between atoms: C_2  and  N_3 
REMARK       I    between atoms: N_3  and  C_4 
REMARK    2  A    between atoms: C_4  and  C_6 
REMARK    3  A    between atoms: C_10  and  C_11 
REMARK    4  A    between atoms: C_11  and  N_12 
REMARK       I    between atoms: N_12  and  C_13 
REMARK    5  A    between atoms: C_13  and  C_15 
REMARK    6  A    between atoms: C_18  and  C_22 
ROOT
HETATM    1  N   UNL     1       7.295  29.095  57.829  1.00  0.00    -0.353 N 
HETATM    2  C   UNL     1       7.153  28.585  56.559  1.00  0.00     0.251 C 
HETATM    3  O   UNL     1       6.740  29.239  55.608  1.00  0.00    -0.268 OA
HETATM    4  H   UNL     1       7.559  28.497  58.598  1.00  0.00     0.163 HD
ENDROOT
BRANCH   1   5
HETATM    5  C   UNL     1       6.963  30.468  58.141  1.00  0.00     0.161 C 
BRANCH   5   6
HETATM    6  C   UNL     1       7.670  30.934  59.388  1.00  0.00    -0.040 A 
HETATM    7  C   UNL     1       9.011  30.591  59.614  1.00  0.00     0.009 A 
HETATM    8  C   UNL     1       9.685  31.059  60.742  1.00  0.00     0.002 A 
HETATM    9  C   UNL     1       9.030  31.880  61.661  1.00  0.00     0.017 A 
HETATM   10  C   UNL     1       7.688  32.226  61.459  1.00  0.00     0.032 A 
HETATM   11  C   UNL     1       7.017  31.755  60.319  1.00  0.00     0.026 A 
BRANCH  10  12
HETATM   12  C   UNL     1       6.945  33.123  62.391  1.00  0.00     0.251 C 
HETATM   13  N   UNL     1       6.765  32.670  63.683  1.00  0.00    -0.357 N 
HETATM   14  H   UNL     1       6.972  31.707  63.907  1.00  0.00     0.162 HD
HETATM   15  O   UNL     1       6.508  34.196  61.990  1.00  0.00    -0.268 OA
BRANCH  13  16
HETATM   16  C   UNL     1       6.032  33.446  64.661  1.00  0.00     0.118 C 
HETATM   17  C   UNL     1       6.905  33.835  65.840  1.00  0.00     0.026 C 
ENDBRANCH  13  16
ENDBRANCH  10  12
ENDBRANCH   5   6
ENDBRANCH   1   5
BRANCH   2  18
HETATM   18  C   UNL     1       7.499  27.148  56.371  1.00  0.00     0.032 A 
HETATM   19  C   UNL     1       8.199  26.502  57.392  1.00  0.00     0.018 A 
HETATM   20  C   UNL     1       8.538  25.153  57.267  1.00  0.00     0.014 A 
HETATM   21  C   UNL     1       8.179  24.425  56.120  1.00  0.00    -0.017 A 
HETATM   22  C   UNL     1       7.473  25.070  55.082  1.00  0.00    -0.050 A 
HETATM   23  C   UNL     1       7.048  24.353  53.828  1.00  0.00     0.049 C 
HETATM   24  C   UNL     1       7.125  26.429  55.228  1.00  0.00     0.024 A 
BRANCH  21  25
HETATM   25  C   UNL     1       8.539  23.021  56.057  1.00  0.00     0.011 A 
HETATM   26  C   UNL     1       9.257  22.284  55.088  1.00  0.00     0.152 A 
HETATM   27  N   UNL     1       9.367  20.991  55.405  1.00  0.00    -0.187 NA
HETATM   28  N   UNL     1       8.704  20.894  56.569  1.00  0.00    -0.289 N 
HETATM   29  H   UNL     1       8.643  19.982  57.013  1.00  0.00     0.188 HD
HETATM   30  C   UNL     1       8.186  22.080  57.001  1.00  0.00     0.123 A 
ENDBRANCH  21  25
ENDBRANCH   2  18
TORSDOF 6
ENDMDL
MODEL 7
REMARK VINA RESULT:      -9.0      1.930      2.626
REMARK  6 active torsions:
REMARK  status: ('A' for Active; 'I' for Inactive)
REMARK    1  A    between atoms: C_2  and  N_3 
REMARK       I    between atoms: N_3  and  C_4 
REMARK    2  A    between atoms: C_4  and  C_6 
REMARK    3  A    between atoms: C_10  and  C_11 
REMARK    4  A    between atoms: C_11  and  N_12 
REMARK       I    between atoms: N_12  and  C_13 
REMARK    5  A    between atoms: C_13  and  C_15 
REMARK    6  A    between atoms: C_18  and  C_22 
ROOT
HETATM    1  N   UNL     1       7.761  28.191  56.049  1.00  0.00    -0.353 N 
HETATM    2  C   UNL     1       7.790  27.160  56.961  1.00  0.00     0.251 C 
HETATM    3  O   UNL     1       7.703  27.324  58.173  1.00  0.00    -0.268 OA
HETATM    4  H   UNL     1       7.919  28.015  55.069  1.00  0.00     0.163 HD
ENDROOT
BRANCH   1   5
HETATM    5  C   UNL     1       7.620  29.570  56.462  1.00  0.00     0.161 C 
BRANCH   5   6
HETATM    6  C   UNL     1       6.171  29.937  56.664  1.00  0.00    -0.040 A 
HETATM    7  C   UNL     1       5.190  29.463  55.781  1.00  0.00     0.009 A 
HETATM    8  C   UNL     1       3.842  29.758  55.989  1.00  0.00     0.002 A 
HETATM    9  C   UNL     1       3.455  30.531  57.085  1.00  0.00     0.017 A 
HETATM   10  C   UNL     1       4.420  31.023  57.972  1.00  0.00     0.032 A 
HETATM   11  C   UNL     1       5.774  30.717  57.759  1.00  0.00     0.026 A 
BRANCH  10  12
HETATM   12  C   UNL     1       4.064  31.828  59.176  1.00  0.00     0.251 C 
HETATM   13  N   UNL     1       5.017  31.919  60.170  1.00  0.00    -0.357 N 
HETATM   14  H   UNL     1       5.827  31.315  60.142  1.00  0.00     0.162 HD
HETATM   15  O   UNL     1       2.959  32.354  59.257  1.00  0.00    -0.268 OA
BRANCH  13  16
HETATM   16  C   UNL     1       4.766  32.649  61.395  1.00  0.00     0.118 C 
HETATM   17  C   UNL     1       5.862  32.424  62.421  1.00  0.00     0.026 C 
ENDBRANCH  13  16
ENDBRANCH  10  12
ENDBRANCH   5   6
ENDBRANCH   1   5
BRANCH   2  18
HETATM   18  C   UNL     1       7.970  25.786  56.415  1.00  0.00     0.032 A 
HETATM   19  C   UNL     1       8.707  24.870  57.167  1.00  0.00     0.018 A 
HETATM   20  C   UNL     1       8.895  23.567  56.701  1.00  0.00     0.014 A 
HETATM   21  C   UNL     1       8.343  23.155  55.477  1.00  0.00    -0.017 A 
HETATM   22  C   UNL     1       7.596  24.074  54.708  1.00  0.00    -0.050 A 
HETATM   23  C   UNL     1       6.969  23.702  53.391  1.00  0.00     0.049 C 
HETATM   24  C   UNL     1       7.404  25.382  55.198  1.00  0.00     0.024 A 
BRANCH  21  25
HETATM   25  C   UNL     1       8.552  21.782  55.056  1.00  0.00     0.011 A 
HETATM   26  C   UNL     1       8.740  21.218  53.775  1.00  0.00     0.152 A 
HETATM   27  N   UNL     1       8.893  19.891  53.816  1.00  0.00    -0.187 NA
HETATM   28  N   UNL     1       8.784  19.601  55.123  1.00  0.00    -0.289 N 
HETATM   29  H   UNL     1       8.861  18.630  55.408  1.00  0.00     0.188 HD
HETATM   30  C   UNL     1       8.576  20.698  55.908  1.00  0.00     0.123 A 
ENDBRANCH  21  25
ENDBRANCH   2  18
TORSDOF 6
ENDMDL
MODEL 8
REMARK VINA RESULT:      -8.9      2.998      5.758
REMARK  6 active torsions:
REMARK  status: ('A' for Active; 'I' for Inactive)
REMARK    1  A    between atoms: C_2  and  N_3 
REMARK       I    between atoms: N_3  and  C_4 
REMARK    2  A    between atoms: C_4  and  C_6 
REMARK    3  A    between atoms: C_10  and  C_11 
REMARK    4  A    between atoms: C_11  and  N_12 
REMARK       I    between atoms: N_12  and  C_13 
REMARK    5  A    between atoms: C_13  and  C_15 
REMARK    6  A    between atoms: C_18  and  C_22 
ROOT
HETATM    1  N   UNL     1       5.891  31.717  59.876  1.00  0.00    -0.353 N 
HETATM    2  C   UNL     1       5.687  31.621  58.518  1.00  0.00     0.251 C 
HETATM    3  O   UNL     1       5.136  32.489  57.852  1.00  0.00    -0.268 OA
HETATM    4  H   UNL     1       6.274  30.942  60.395  1.00  0.00     0.163 HD
ENDROOT
BRANCH   1   5
HETATM    5  C   UNL     1       5.462  32.874  60.631  1.00  0.00     0.161 C 
BRANCH   5   6
HETATM    6  C   UNL     1       6.105  32.909  61.994  1.00  0.00    -0.040 A 
HETATM    7  C   UNL     1       7.479  32.664  62.137  1.00  0.00     0.009 A 
HETATM    8  C   UNL     1       8.090  32.743  63.389  1.00  0.00     0.002 A 
HETATM    9  C   UNL     1       7.336  33.069  64.518  1.00  0.00     0.017 A 
HETATM   10  C   UNL     1       5.961  33.306  64.398  1.00  0.00     0.032 A 
HETATM   11  C   UNL     1       5.355  33.231  63.134  1.00  0.00     0.026 A 
BRANCH  10  12
HETATM   12  C   UNL     1       5.111  33.688  65.563  1.00  0.00     0.251 C 
HETATM   13  N   UNL     1       5.753  33.859  66.773  1.00  0.00    -0.357 N 
HETATM   14  H   UNL     1       6.711  33.558  66.877  1.00  0.00     0.162 HD
HETATM   15  O   UNL     1       3.900  33.814  65.423  1.00  0.00    -0.268 OA
BRANCH  13  16
HETATM   16  C   UNL     1       5.022  34.200  67.976  1.00  0.00     0.118 C 
HETATM   17  C   UNL     1       5.930  34.785  69.042  1.00  0.00     0.026 C 
ENDBRANCH  13  16
ENDBRANCH  10  12
ENDBRANCH   5   6
ENDBRANCH   1   5
BRANCH   2  18
HETATM   18  C   UNL     1       6.147  30.367  57.859  1.00  0.00     0.032 A 
HETATM   19  C   UNL     1       5.178  29.492  57.361  1.00  0.00     0.018 A 
HETATM   20  C   UNL     1       5.560  28.309  56.726  1.00  0.00     0.014 A 
HETATM   21  C   UNL     1       6.917  27.981  56.573  1.00  0.00    -0.017 A 
HETATM   22  C   UNL     1       7.904  28.857  57.072  1.00  0.00    -0.050 A 
HETATM   23  C   UNL     1       9.377  28.576  56.937  1.00  0.00     0.049 C 
HETATM   24  C   UNL     1       7.504  30.056  57.699  1.00  0.00     0.024 A 
BRANCH  21  25
HETATM   25  C   UNL     1       7.253  26.748  55.883  1.00  0.00     0.011 A 
HETATM   26  C   UNL     1       7.639  25.481  56.373  1.00  0.00     0.152 A 
HETATM   27  N   UNL     1       7.870  24.601  55.395  1.00  0.00    -0.187 NA
HETATM   28  N   UNL     1       7.648  25.309  54.275  1.00  0.00    -0.289 N 
HETATM   29  H   UNL     1       7.770  24.845  53.380  1.00  0.00     0.188 HD
HETATM   30  C   UNL     1       7.280  26.601  54.512  1.00  0.00     0.123 A 
ENDBRANCH  21  25
ENDBRANCH   2  18
TORSDOF 6
ENDMDL
MODEL 9
REMARK VINA RESULT:      -8.9      6.070      9.625
REMARK  6 active torsions:
REMARK  status: ('A' for Active; 'I' for Inactive)
REMARK    1  A    between atoms: C_2  and  N_3 
REMARK       I    between atoms: N_3  and  C_4 
REMARK    2  A    between atoms: C_4  and  C_6 
REMARK    3  A    between atoms: C_10  and  C_11 
REMARK    4  A    between atoms: C_11  and  N_12 
REMARK       I    between atoms: N_12  and  C_13 
REMARK    5  A    between atoms: C_13  and  C_15 
REMARK    6  A    between atoms: C_18  and  C_22 
ROOT
HETATM    1  N   UNL     1       5.634  26.610  51.401  1.00  0.00    -0.353 N 
HETATM    2  C   UNL     1       6.348  26.796  52.564  1.00  0.00     0.251 C 
HETATM    3  O   UNL     1       6.639  27.899  53.011  1.00  0.00    -0.268 OA
HETATM    4  H   UNL     1       5.490  25.684  51.028  1.00  0.00     0.163 HD
ENDROOT
BRANCH   1   5
HETATM    5  C   UNL     1       5.166  27.725  50.608  1.00  0.00     0.161 C 
BRANCH   5   6
HETATM    6  C   UNL     1       4.330  27.258  49.443  1.00  0.00    -0.040 A 
HETATM    7  C   UNL     1       4.261  25.894  49.122  1.00  0.00     0.009 A 
HETATM    8  C   UNL     1       3.451  25.449  48.077  1.00  0.00     0.002 A 
HETATM    9  C   UNL     1       2.695  26.361  47.337  1.00  0.00     0.017 A 
HETATM   10  C   UNL     1       2.759  27.728  47.635  1.00  0.00     0.032 A 
HETATM   11  C   UNL     1       3.572  28.167  48.692  1.00  0.00     0.026 A 
BRANCH  10  12
HETATM   12  C   UNL     1       1.953  28.745  46.900  1.00  0.00     0.251 C 
HETATM   13  N   UNL     1       0.631  28.433  46.653  1.00  0.00    -0.357 N 
HETATM   14  H   UNL     1       0.304  27.490  46.808  1.00  0.00     0.162 HD
HETATM   15  O   UNL     1       2.476  29.789  46.526  1.00  0.00    -0.268 OA
BRANCH  13  16
HETATM   16  C   UNL     1      -0.235  29.333  45.921  1.00  0.00     0.118 C 
HETATM   17  C   UNL     1      -0.994  28.615  44.820  1.00  0.00     0.026 C 
ENDBRANCH  13  16
ENDBRANCH  10  12
ENDBRANCH   5   6
ENDBRANCH   1   5
BRANCH   2  18
HETATM   18  C   UNL     1       6.800  25.568  53.275  1.00  0.00     0.032 A 
HETATM   19  C   UNL     1       7.034  24.418  52.519  1.00  0.00     0.018 A 
HETATM   20  C   UNL     1       7.469  23.245  53.139  1.00  0.00     0.014 A 
HETATM   21  C   UNL     1       7.683  23.203  54.527  1.00  0.00    -0.017 A 
HETATM   22  C   UNL     1       7.449  24.360  55.300  1.00  0.00    -0.050 A 
HETATM   23  C   UNL     1       7.664  24.392  56.791  1.00  0.00     0.049 C 
HETATM   24  C   UNL     1       7.023  25.541  54.658  1.00  0.00     0.024 A 
BRANCH  21  25
HETATM   25  C   UNL     1       8.158  21.962  55.112  1.00  0.00     0.011 A 
HETATM   26  C   UNL     1       7.471  20.921  55.776  1.00  0.00     0.152 A 
HETATM   27  N   UNL     1       8.287  19.942  56.176  1.00  0.00    -0.187 NA
HETATM   28  N   UNL     1       9.501  20.363  55.784  1.00  0.00    -0.289 N 
HETATM   29  H   UNL     1      10.303  19.774  55.988  1.00  0.00     0.188 HD
HETATM   30  C   UNL     1       9.478  21.568  55.145  1.00  0.00     0.123 A 
ENDBRANCH  21  25
ENDBRANCH   2  18
TORSDOF 6
ENDMDL
MODEL 10
REMARK VINA RESULT:      -8.8      2.882      4.601
REMARK  6 active torsions:
REMARK  status: ('A' for Active; 'I' for Inactive)
REMARK    1  A    between atoms: C_2  and  N_3 
REMARK       I    between atoms: N_3  and  C_4 
REMARK    2  A    between atoms: C_4  and  C_6 
REMARK    3  A    between atoms: C_10  and  C_11 
REMARK    4  A    between atoms: C_11  and  N_12 
REMARK       I    between atoms: N_12  and  C_13 
REMARK    5  A    between atoms: C_13  and  C_15 
REMARK    6  A    between atoms: C_18  and  C_22 
ROOT
HETATM    1  N   UNL     1       8.841  30.556  58.527  1.00  0.00    -0.353 N 
HETATM    2  C   UNL     1       9.556  29.867  57.574  1.00  0.00     0.251 C 
HETATM    3  O   UNL     1      10.737  30.080  57.327  1.00  0.00    -0.268 OA
HETATM    4  H   UNL     1       7.850  30.404  58.637  1.00  0.00     0.163 HD
ENDROOT
BRANCH   1   5
HETATM    5  C   UNL     1       9.444  31.601  59.325  1.00  0.00     0.161 C 
BRANCH   5   6
HETATM    6  C   UNL     1       8.599  31.929  60.529  1.00  0.00    -0.040 A 
HETATM    7  C   UNL     1       9.162  31.924  61.814  1.00  0.00     0.009 A 
HETATM    8  C   UNL     1       8.397  32.274  62.927  1.00  0.00     0.002 A 
HETATM    9  C   UNL     1       7.058  32.638  62.773  1.00  0.00     0.017 A 
HETATM   10  C   UNL     1       6.474  32.638  61.500  1.00  0.00     0.032 A 
HETATM   11  C   UNL     1       7.251  32.290  60.384  1.00  0.00     0.026 A 
BRANCH  10  12
HETATM   12  C   UNL     1       5.058  33.045  61.270  1.00  0.00     0.251 C 
HETATM   13  N   UNL     1       4.601  34.139  61.978  1.00  0.00    -0.357 N 
HETATM   14  H   UNL     1       5.156  34.510  62.736  1.00  0.00     0.162 HD
HETATM   15  O   UNL     1       4.353  32.403  60.499  1.00  0.00    -0.268 OA
BRANCH  13  16
HETATM   16  C   UNL     1       3.234  34.603  61.855  1.00  0.00     0.118 C 
HETATM   17  C   UNL     1       2.361  34.089  62.986  1.00  0.00     0.026 C 
ENDBRANCH  13  16
ENDBRANCH  10  12
ENDBRANCH   5   6
ENDBRANCH   1   5
BRANCH   2  18
HETATM   18  C   UNL     1       8.815  28.834  56.797  1.00  0.00     0.032 A 
HETATM   19  C   UNL     1       8.587  29.070  55.439  1.00  0.00     0.018 A 
HETATM   20  C   UNL     1       7.906  28.128  54.667  1.00  0.00     0.014 A 
HETATM   21  C   UNL     1       7.444  26.929  55.237  1.00  0.00    -0.017 A 
HETATM   22  C   UNL     1       7.669  26.681  56.608  1.00  0.00    -0.050 A 
HETATM   23  C   UNL     1       7.212  25.417  57.285  1.00  0.00     0.049 C 
HETATM   24  C   UNL     1       8.371  27.636  57.372  1.00  0.00     0.024 A 
BRANCH  21  25
HETATM   25  C   UNL     1       6.764  25.977  54.378  1.00  0.00     0.011 A 
HETATM   26  C   UNL     1       5.393  25.796  54.090  1.00  0.00     0.152 A 
HETATM   27  N   UNL     1       5.176  24.787  53.241  1.00  0.00    -0.187 NA
HETATM   28  N   UNL     1       6.408  24.309  52.998  1.00  0.00    -0.289 N 
HETATM   29  H   UNL     1       6.501  23.516  52.371  1.00  0.00     0.188 HD
HETATM   30  C   UNL     1       7.393  24.985  53.657  1.00  0.00     0.123 A 
ENDBRANCH  21  25
ENDBRANCH   2  18
TORSDOF 6
ENDMDL
