MODEL 1
REMARK VINA RESULT:      -8.7      0.000      0.000
REMARK  2 active torsions:
REMARK  status: ('A' for Active; 'I' for Inactive)
REMARK    1  A    between atoms: C_8  and  N_9 
REMARK    2  A    between atoms: N_9  and  C_10 
ROOT
HETATM    1  N   UNL     1       6.157  26.675  54.945  1.00  0.00    -0.340 N 
HETATM    2  H   UNL     1       5.152  26.677  54.883  1.00  0.00     0.167 HD
ENDROOT
BRANCH   1   3
HETATM    3  C   UNL     1       6.771  25.789  54.044  1.00  0.00     0.143 A 
HETATM    4  C   UNL     1       7.328  24.548  54.459  1.00  0.00     0.053 A 
HETATM    5  C   UNL     1       7.536  23.910  55.758  1.00  0.00    -0.032 A 
HETATM    6  C   UNL     1       7.809  23.738  53.439  1.00  0.00     0.114 A 
HETATM    7  C   UNL     1       7.208  24.528  57.082  1.00  0.00     0.050 C 
HETATM    8  C   UNL     1       8.096  22.645  55.621  1.00  0.00    -0.012 A 
HETATM    9  S   UNL     1       8.420  22.255  53.993  1.00  0.00    -0.074 SA
HETATM   10  C   UNL     1       8.443  21.658  56.689  1.00  0.00     0.057 C 
HETATM   11  N   UNL     1       7.823  24.012  52.125  1.00  0.00    -0.234 NA
HETATM   12  C   UNL     1       7.306  25.206  51.852  1.00  0.00     0.236 A 
HETATM   13  N   UNL     1       6.793  26.084  52.721  1.00  0.00    -0.223 NA
ENDBRANCH   1   3
BRANCH   1  14
HETATM   14  C   UNL     1       6.683  27.712  55.736  1.00  0.00     0.036 A 
HETATM   15  C   UNL     1       7.915  28.279  55.375  1.00  0.00     0.069 A 
HETATM   16  C   UNL     1       8.506  29.281  56.150  1.00  0.00     0.104 A 
HETATM   17  C   UNL     1       7.852  29.763  57.283  1.00  0.00     0.102 A 
HETATM   18  O   UNL     1       9.681  29.806  55.683  1.00  0.00    -0.348 OA
HETATM   19  O   UNL     1       8.318  30.808  58.030  1.00  0.00    -0.348 OA
HETATM   20  C   UNL     1       6.612  29.239  57.636  1.00  0.00     0.042 A 
HETATM   21  C   UNL     1       9.568  30.510  58.651  1.00  0.00     0.178 C 
HETATM   22  C   UNL     1      10.738  30.707  57.699  1.00  0.00     0.053 C 
HETATM   23  C   UNL     1      10.750  29.639  56.616  1.00  0.00     0.178 C 
HETATM   24  C   UNL     1       6.043  28.210  56.877  1.00  0.00     0.032 A 
ENDBRANCH   1  14
TORSDOF 2
ENDMDL
MODEL 2
REMARK VINA RESULT:      -8.7      3.528      7.027
REMARK  2 active torsions:
REMARK  status: ('A' for Active; 'I' for Inactive)
REMARK    1  A    between atoms: C_8  and  N_9 
REMARK    2  A    between atoms: N_9  and  C_10 
ROOT
HETATM    1  N   UNL     1       7.482  26.635  54.406  1.00  0.00    -0.340 N 
HETATM    2  H   UNL     1       8.311  27.159  54.174  1.00  0.00     0.167 HD
ENDROOT
BRANCH   1   3
HETATM    3  C   UNL     1       6.400  27.443  54.792  1.00  0.00     0.143 A 
HETATM    4  C   UNL     1       6.476  28.342  55.891  1.00  0.00     0.053 A 
HETATM    5  C   UNL     1       7.485  28.617  56.912  1.00  0.00    -0.032 A 
HETATM    6  C   UNL     1       5.360  29.144  56.085  1.00  0.00     0.114 A 
HETATM    7  C   UNL     1       8.785  27.887  57.055  1.00  0.00     0.050 C 
HETATM    8  C   UNL     1       7.088  29.646  57.759  1.00  0.00    -0.012 A 
HETATM    9  S   UNL     1       5.529  30.224  57.383  1.00  0.00    -0.074 SA
HETATM   10  C   UNL     1       7.830  30.247  58.909  1.00  0.00     0.057 C 
HETATM   11  N   UNL     1       4.225  29.141  55.368  1.00  0.00    -0.234 NA
HETATM   12  C   UNL     1       4.250  28.246  54.387  1.00  0.00     0.236 A 
HETATM   13  N   UNL     1       5.253  27.420  54.069  1.00  0.00    -0.223 NA
ENDBRANCH   1   3
BRANCH   1  14
HETATM   14  C   UNL     1       7.553  25.273  54.063  1.00  0.00     0.036 A 
HETATM   15  C   UNL     1       7.426  24.313  55.080  1.00  0.00     0.069 A 
HETATM   16  C   UNL     1       7.534  22.947  54.803  1.00  0.00     0.104 A 
HETATM   17  C   UNL     1       7.731  22.515  53.492  1.00  0.00     0.102 A 
HETATM   18  O   UNL     1       7.342  22.091  55.853  1.00  0.00    -0.348 OA
HETATM   19  O   UNL     1       7.744  21.197  53.130  1.00  0.00    -0.348 OA
HETATM   20  C   UNL     1       7.821  23.451  52.466  1.00  0.00     0.042 A 
HETATM   21  C   UNL     1       8.830  20.488  53.724  1.00  0.00     0.178 C 
HETATM   22  C   UNL     1       8.521  20.064  55.152  1.00  0.00     0.053 C 
HETATM   23  C   UNL     1       8.483  21.264  56.085  1.00  0.00     0.178 C 
HETATM   24  C   UNL     1       7.751  24.818  52.754  1.00  0.00     0.032 A 
ENDBRANCH   1  14
TORSDOF 2
ENDMDL
MODEL 3
REMARK VINA RESULT:      -8.4      1.799      2.168
REMARK  2 active torsions:
REMARK  status: ('A' for Active; 'I' for Inactive)
REMARK    1  A    between atoms: C_8  and  N_9 
REMARK    2  A    between atoms: N_9  and  C_10 
ROOT
HETATM    1  N   UNL     1       6.398  26.698  56.810  1.00  0.00    -0.340 N 
HETATM    2  H   UNL     1       6.244  26.045  57.561  1.00  0.00     0.167 HD
ENDROOT
BRANCH   1   3
HETATM    3  C   UNL     1       6.239  26.129  55.535  1.00  0.00     0.143 A 
HETATM    4  C   UNL     1       6.971  24.984  55.118  1.00  0.00     0.053 A 
HETATM    5  C   UNL     1       8.048  24.193  55.710  1.00  0.00    -0.032 A 
HETATM    6  C   UNL     1       6.632  24.481  53.869  1.00  0.00     0.114 A 
HETATM    7  C   UNL     1       8.715  24.492  57.017  1.00  0.00     0.050 C 
HETATM    8  C   UNL     1       8.397  23.118  54.901  1.00  0.00    -0.012 A 
HETATM    9  S   UNL     1       7.508  23.090  53.447  1.00  0.00    -0.074 SA
HETATM   10  C   UNL     1       9.426  22.060  55.146  1.00  0.00     0.057 C 
HETATM   11  N   UNL     1       5.716  24.971  53.019  1.00  0.00    -0.234 NA
HETATM   12  C   UNL     1       5.114  26.056  53.495  1.00  0.00     0.236 A 
HETATM   13  N   UNL     1       5.322  26.643  54.679  1.00  0.00    -0.223 NA
ENDBRANCH   1   3
BRANCH   1  14
HETATM   14  C   UNL     1       6.497  28.037  57.228  1.00  0.00     0.036 A 
HETATM   15  C   UNL     1       7.718  28.493  57.749  1.00  0.00     0.069 A 
HETATM   16  C   UNL     1       7.860  29.801  58.222  1.00  0.00     0.104 A 
HETATM   17  C   UNL     1       6.790  30.691  58.143  1.00  0.00     0.102 A 
HETATM   18  O   UNL     1       9.105  30.163  58.660  1.00  0.00    -0.348 OA
HETATM   19  O   UNL     1       6.883  32.009  58.489  1.00  0.00    -0.348 OA
HETATM   20  C   UNL     1       5.583  30.267  57.595  1.00  0.00     0.042 A 
HETATM   21  C   UNL     1       7.165  32.182  59.877  1.00  0.00     0.178 C 
HETATM   22  C   UNL     1       8.648  32.026  60.181  1.00  0.00     0.053 C 
HETATM   23  C   UNL     1       9.091  30.579  60.026  1.00  0.00     0.178 C 
HETATM   24  C   UNL     1       5.435  28.946  57.158  1.00  0.00     0.032 A 
ENDBRANCH   1  14
TORSDOF 2
ENDMDL
MODEL 4
REMARK VINA RESULT:      -8.3      1.323      2.113
REMARK  2 active torsions:
REMARK  status: ('A' for Active; 'I' for Inactive)
REMARK    1  A    between atoms: C_8  and  N_9 
REMARK    2  A    between atoms: N_9  and  C_10 
ROOT
HETATM    1  N   UNL     1       6.777  27.475  55.475  1.00  0.00    -0.340 N 
HETATM    2  H   UNL     1       5.839  27.620  55.812  1.00  0.00     0.167 HD
ENDROOT
BRANCH   1   3
HETATM    3  C   UNL     1       6.839  26.684  54.316  1.00  0.00     0.143 A 
HETATM    4  C   UNL     1       7.310  25.343  54.336  1.00  0.00     0.053 A 
HETATM    5  C   UNL     1       7.908  24.489  55.362  1.00  0.00    -0.032 A 
HETATM    6  C   UNL     1       7.217  24.659  53.132  1.00  0.00     0.114 A 
HETATM    7  C   UNL     1       8.229  24.921  56.759  1.00  0.00     0.050 C 
HETATM    8  C   UNL     1       8.161  23.211  54.878  1.00  0.00    -0.012 A 
HETATM    9  S   UNL     1       7.753  23.052  53.231  1.00  0.00    -0.074 SA
HETATM   10  C   UNL     1       8.739  22.037  55.602  1.00  0.00     0.057 C 
HETATM   11  N   UNL     1       6.757  25.133  51.964  1.00  0.00    -0.234 NA
HETATM   12  C   UNL     1       6.370  26.402  52.050  1.00  0.00     0.236 A 
HETATM   13  N   UNL     1       6.386  27.180  53.138  1.00  0.00    -0.223 NA
ENDBRANCH   1   3
BRANCH   1  14
HETATM   14  C   UNL     1       7.742  28.283  56.104  1.00  0.00     0.036 A 
HETATM   15  C   UNL     1       7.617  28.536  57.480  1.00  0.00     0.069 A 
HETATM   16  C   UNL     1       8.520  29.368  58.147  1.00  0.00     0.104 A 
HETATM   17  C   UNL     1       9.591  29.932  57.455  1.00  0.00     0.102 A 
HETATM   18  O   UNL     1       8.344  29.508  59.497  1.00  0.00    -0.348 OA
HETATM   19  O   UNL     1      10.569  30.671  58.060  1.00  0.00    -0.348 OA
HETATM   20  C   UNL     1       9.752  29.663  56.099  1.00  0.00     0.042 A 
HETATM   21  C   UNL     1      10.059  31.877  58.626  1.00  0.00     0.178 C 
HETATM   22  C   UNL     1       9.430  31.644  59.991  1.00  0.00     0.053 C 
HETATM   23  C   UNL     1       8.128  30.869  59.871  1.00  0.00     0.178 C 
HETATM   24  C   UNL     1       8.823  28.860  55.428  1.00  0.00     0.032 A 
ENDBRANCH   1  14
TORSDOF 2
ENDMDL
MODEL 5
REMARK VINA RESULT:      -8.3      4.417      7.111
REMARK  2 active torsions:
REMARK  status: ('A' for Active; 'I' for Inactive)
REMARK    1  A    between atoms: C_8  and  N_9 
REMARK    2  A    between atoms: N_9  and  C_10 
ROOT
HETATM    1  N   UNL     1       4.981  25.660  54.053  1.00  0.00    -0.340 N 
HETATM    2  H   UNL     1       4.082  25.217  53.957  1.00  0.00     0.167 HD
ENDROOT
BRANCH   1   3
HETATM    3  C   UNL     1       4.923  27.062  53.990  1.00  0.00     0.143 A 
HETATM    4  C   UNL     1       4.967  27.770  52.758  1.00  0.00     0.053 A 
HETATM    5  C   UNL     1       5.172  27.376  51.365  1.00  0.00    -0.032 A 
HETATM    6  C   UNL     1       4.799  29.145  52.852  1.00  0.00     0.114 A 
HETATM    7  C   UNL     1       5.461  25.982  50.900  1.00  0.00     0.050 C 
HETATM    8  C   UNL     1       5.080  28.466  50.507  1.00  0.00    -0.012 A 
HETATM    9  S   UNL     1       4.816  29.926  51.346  1.00  0.00    -0.074 SA
HETATM   10  C   UNL     1       5.202  28.493  49.017  1.00  0.00     0.057 C 
HETATM   11  N   UNL     1       4.625  29.865  53.971  1.00  0.00    -0.234 NA
HETATM   12  C   UNL     1       4.629  29.110  55.064  1.00  0.00     0.236 A 
HETATM   13  N   UNL     1       4.764  27.781  55.129  1.00  0.00    -0.223 NA
ENDBRANCH   1   3
BRANCH   1  14
HETATM   14  C   UNL     1       6.008  24.787  54.455  1.00  0.00     0.036 A 
HETATM   15  C   UNL     1       6.532  23.884  53.516  1.00  0.00     0.069 A 
HETATM   16  C   UNL     1       7.521  22.963  53.872  1.00  0.00     0.104 A 
HETATM   17  C   UNL     1       8.034  22.956  55.169  1.00  0.00     0.102 A 
HETATM   18  O   UNL     1       8.004  22.163  52.872  1.00  0.00    -0.348 OA
HETATM   19  O   UNL     1       9.070  22.157  55.562  1.00  0.00    -0.348 OA
HETATM   20  C   UNL     1       7.553  23.869  56.103  1.00  0.00     0.042 A 
HETATM   21  C   UNL     1       8.738  20.771  55.487  1.00  0.00     0.178 C 
HETATM   22  C   UNL     1       8.889  20.225  54.075  1.00  0.00     0.053 C 
HETATM   23  C   UNL     1       7.812  20.777  53.154  1.00  0.00     0.178 C 
HETATM   24  C   UNL     1       6.535  24.763  55.751  1.00  0.00     0.032 A 
ENDBRANCH   1  14
TORSDOF 2
ENDMDL
MODEL 6
REMARK VINA RESULT:      -8.2      3.729      5.424
REMARK  2 active torsions:
REMARK  status: ('A' for Active; 'I' for Inactive)
REMARK    1  A    between atoms: C_8  and  N_9 
REMARK    2  A    between atoms: N_9  and  C_10 
ROOT
HETATM    1  N   UNL     1       7.551  26.202  54.166  1.00  0.00    -0.340 N 
HETATM    2  H   UNL     1       8.382  26.609  53.768  1.00  0.00     0.167 HD
ENDROOT
BRANCH   1   3
HETATM    3  C   UNL     1       7.816  25.282  55.193  1.00  0.00     0.143 A 
HETATM    4  C   UNL     1       8.052  23.904  54.936  1.00  0.00     0.053 A 
HETATM    5  C   UNL     1       7.998  23.068  53.738  1.00  0.00    -0.032 A 
HETATM    6  C   UNL     1       8.398  23.140  56.043  1.00  0.00     0.114 A 
HETATM    7  C   UNL     1       7.586  23.541  52.378  1.00  0.00     0.050 C 
HETATM    8  C   UNL     1       8.368  21.756  54.013  1.00  0.00    -0.012 A 
HETATM    9  S   UNL     1       8.710  21.516  55.666  1.00  0.00    -0.074 SA
HETATM   10  C   UNL     1       8.469  20.599  53.072  1.00  0.00     0.057 C 
HETATM   11  N   UNL     1       8.507  23.559  57.314  1.00  0.00    -0.234 NA
HETATM   12  C   UNL     1       8.237  24.853  57.445  1.00  0.00     0.236 A 
HETATM   13  N   UNL     1       7.907  25.713  56.476  1.00  0.00    -0.223 NA
ENDBRANCH   1   3
BRANCH   1  14
HETATM   14  C   UNL     1       6.358  26.827  53.758  1.00  0.00     0.036 A 
HETATM   15  C   UNL     1       5.995  26.769  52.403  1.00  0.00     0.069 A 
HETATM   16  C   UNL     1       4.845  27.411  51.934  1.00  0.00     0.104 A 
HETATM   17  C   UNL     1       4.014  28.090  52.824  1.00  0.00     0.102 A 
HETATM   18  O   UNL     1       4.549  27.249  50.608  1.00  0.00    -0.348 OA
HETATM   19  O   UNL     1       2.823  28.652  52.458  1.00  0.00    -0.348 OA
HETATM   20  C   UNL     1       4.338  28.126  54.177  1.00  0.00     0.042 A 
HETATM   21  C   UNL     1       2.996  29.713  51.520  1.00  0.00     0.178 C 
HETATM   22  C   UNL     1       3.157  29.196  50.098  1.00  0.00     0.053 C 
HETATM   23  C   UNL     1       4.495  28.497  49.916  1.00  0.00     0.178 C 
HETATM   24  C   UNL     1       5.511  27.515  54.634  1.00  0.00     0.032 A 
ENDBRANCH   1  14
TORSDOF 2
ENDMDL
MODEL 7
REMARK VINA RESULT:      -8.1      3.744      7.304
REMARK  2 active torsions:
REMARK  status: ('A' for Active; 'I' for Inactive)
REMARK    1  A    between atoms: C_8  and  N_9 
REMARK    2  A    between atoms: N_9  and  C_10 
ROOT
HETATM    1  N   UNL     1       7.780  26.581  54.194  1.00  0.00    -0.340 N 
HETATM    2  H   UNL     1       8.173  27.108  53.431  1.00  0.00     0.167 HD
ENDROOT
BRANCH   1   3
HETATM    3  C   UNL     1       7.168  27.384  55.170  1.00  0.00     0.143 A 
HETATM    4  C   UNL     1       6.061  28.226  54.876  1.00  0.00     0.053 A 
HETATM    5  C   UNL     1       5.357  28.590  53.647  1.00  0.00    -0.032 A 
HETATM    6  C   UNL     1       5.503  28.882  55.965  1.00  0.00     0.114 A 
HETATM    7  C   UNL     1       5.734  28.130  52.273  1.00  0.00     0.050 C 
HETATM    8  C   UNL     1       4.285  29.436  53.904  1.00  0.00    -0.012 A 
HETATM    9  S   UNL     1       4.159  29.835  55.557  1.00  0.00    -0.074 SA
HETATM   10  C   UNL     1       3.302  30.017  52.938  1.00  0.00     0.057 C 
HETATM   11  N   UNL     1       5.909  28.822  57.243  1.00  0.00    -0.234 NA
HETATM   12  C   UNL     1       6.966  28.031  57.400  1.00  0.00     0.236 A 
HETATM   13  N   UNL     1       7.598  27.327  56.455  1.00  0.00    -0.223 NA
ENDBRANCH   1   3
BRANCH   1  14
HETATM   14  C   UNL     1       7.740  25.193  53.970  1.00  0.00     0.036 A 
HETATM   15  C   UNL     1       7.680  24.331  55.076  1.00  0.00     0.069 A 
HETATM   16  C   UNL     1       7.684  22.943  54.914  1.00  0.00     0.104 A 
HETATM   17  C   UNL     1       7.709  22.391  53.634  1.00  0.00     0.102 A 
HETATM   18  O   UNL     1       7.568  22.191  56.051  1.00  0.00    -0.348 OA
HETATM   19  O   UNL     1       7.612  21.049  53.393  1.00  0.00    -0.348 OA
HETATM   20  C   UNL     1       7.731  23.230  52.524  1.00  0.00     0.042 A 
HETATM   21  C   UNL     1       8.720  20.327  53.928  1.00  0.00     0.178 C 
HETATM   22  C   UNL     1       8.553  20.044  55.413  1.00  0.00     0.053 C 
HETATM   23  C   UNL     1       8.683  21.318  56.233  1.00  0.00     0.178 C 
HETATM   24  C   UNL     1       7.765  24.619  52.693  1.00  0.00     0.032 A 
ENDBRANCH   1  14
TORSDOF 2
ENDMDL
MODEL 8
REMARK VINA RESULT:      -8.0      4.221      6.570
REMARK  2 active torsions:
REMARK  status: ('A' for Active; 'I' for Inactive)
REMARK    1  A    between atoms: C_8  and  N_9 
REMARK    2  A    between atoms: N_9  and  C_10 
ROOT
HETATM    1  N   UNL     1       6.589  27.137  53.235  1.00  0.00    -0.340 N 
HETATM    2  H   UNL     1       7.469  27.625  53.194  1.00  0.00     0.167 HD
ENDROOT
BRANCH   1   3
HETATM    3  C   UNL     1       6.438  26.352  54.390  1.00  0.00     0.143 A 
HETATM    4  C   UNL     1       7.014  25.058  54.509  1.00  0.00     0.053 A 
HETATM    5  C   UNL     1       7.740  24.179  53.594  1.00  0.00    -0.032 A 
HETATM    6  C   UNL     1       6.861  24.448  55.747  1.00  0.00     0.114 A 
HETATM    7  C   UNL     1       8.020  24.480  52.154  1.00  0.00     0.050 C 
HETATM    8  C   UNL     1       8.138  23.004  54.222  1.00  0.00    -0.012 A 
HETATM    9  S   UNL     1       7.607  22.926  55.840  1.00  0.00    -0.074 SA
HETATM   10  C   UNL     1       8.917  21.861  53.655  1.00  0.00     0.057 C 
HETATM   11  N   UNL     1       6.217  24.937  56.818  1.00  0.00    -0.234 NA
HETATM   12  C   UNL     1       5.694  26.137  56.588  1.00  0.00     0.236 A 
HETATM   13  N   UNL     1       5.771  26.851  55.460  1.00  0.00    -0.223 NA
ENDBRANCH   1   3
BRANCH   1  14
HETATM   14  C   UNL     1       5.662  27.548  52.260  1.00  0.00     0.036 A 
HETATM   15  C   UNL     1       5.379  26.683  51.191  1.00  0.00     0.069 A 
HETATM   16  C   UNL     1       4.502  27.059  50.169  1.00  0.00     0.104 A 
HETATM   17  C   UNL     1       3.859  28.295  50.221  1.00  0.00     0.102 A 
HETATM   18  O   UNL     1       4.252  26.124  49.201  1.00  0.00    -0.348 OA
HETATM   19  O   UNL     1       2.913  28.687  49.316  1.00  0.00    -0.348 OA
HETATM   20  C   UNL     1       4.099  29.149  51.293  1.00  0.00     0.042 A 
HETATM   21  C   UNL     1       3.450  28.813  48.000  1.00  0.00     0.178 C 
HETATM   22  C   UNL     1       3.533  27.471  47.288  1.00  0.00     0.053 C 
HETATM   23  C   UNL     1       4.612  26.591  47.900  1.00  0.00     0.178 C 
HETATM   24  C   UNL     1       5.007  28.784  52.293  1.00  0.00     0.032 A 
ENDBRANCH   1  14
TORSDOF 2
ENDMDL
MODEL 9
REMARK VINA RESULT:      -8.0      3.707      7.147
REMARK  2 active torsions:
REMARK  status: ('A' for Active; 'I' for Inactive)
REMARK    1  A    between atoms: C_8  and  N_9 
REMARK    2  A    between atoms: N_9  and  C_10 
ROOT
HETATM    1  N   UNL     1       7.626  28.881  55.584  1.00  0.00    -0.340 N 
HETATM    2  H   UNL     1       6.777  29.424  55.588  1.00  0.00     0.167 HD
ENDROOT
BRANCH   1   3
HETATM    3  C   UNL     1       8.667  29.469  56.321  1.00  0.00     0.143 A 
HETATM    4  C   UNL     1       8.428  30.248  57.486  1.00  0.00     0.053 A 
HETATM    5  C   UNL     1       7.223  30.736  58.154  1.00  0.00    -0.032 A 
HETATM    6  C   UNL     1       9.563  30.678  58.161  1.00  0.00     0.114 A 
HETATM    7  C   UNL     1       5.824  30.529  57.662  1.00  0.00     0.050 C 
HETATM    8  C   UNL     1       7.530  31.438  59.314  1.00  0.00    -0.012 A 
HETATM    9  S   UNL     1       9.212  31.565  59.564  1.00  0.00    -0.074 SA
HETATM   10  C   UNL     1       6.598  32.076  60.294  1.00  0.00     0.057 C 
HETATM   11  N   UNL     1      10.842  30.455  57.819  1.00  0.00    -0.234 NA
HETATM   12  C   UNL     1      10.950  29.743  56.702  1.00  0.00     0.236 A 
HETATM   13  N   UNL     1       9.955  29.251  55.957  1.00  0.00    -0.223 NA
ENDBRANCH   1   3
BRANCH   1  14
HETATM   14  C   UNL     1       7.475  27.589  55.050  1.00  0.00     0.036 A 
HETATM   15  C   UNL     1       7.299  26.510  55.931  1.00  0.00     0.069 A 
HETATM   16  C   UNL     1       7.190  25.199  55.458  1.00  0.00     0.104 A 
HETATM   17  C   UNL     1       7.216  24.949  54.086  1.00  0.00     0.102 A 
HETATM   18  O   UNL     1       6.967  24.226  56.393  1.00  0.00    -0.348 OA
HETATM   19  O   UNL     1       7.013  23.710  53.546  1.00  0.00    -0.348 OA
HETATM   20  C   UNL     1       7.352  26.010  53.196  1.00  0.00     0.042 A 
HETATM   21  C   UNL     1       8.034  22.787  53.922  1.00  0.00     0.178 C 
HETATM   22  C   UNL     1       7.787  22.194  55.301  1.00  0.00     0.053 C 
HETATM   23  C   UNL     1       7.995  23.235  56.391  1.00  0.00     0.178 C 
HETATM   24  C   UNL     1       7.499  27.316  53.677  1.00  0.00     0.032 A 
ENDBRANCH   1  14
TORSDOF 2
ENDMDL
MODEL 10
REMARK VINA RESULT:      -7.9      3.452      6.820
REMARK  2 active torsions:
REMARK  status: ('A' for Active; 'I' for Inactive)
REMARK    1  A    between atoms: C_8  and  N_9 
REMARK    2  A    between atoms: N_9  and  C_10 
ROOT
HETATM    1  N   UNL     1       7.298  28.544  54.811  1.00  0.00    -0.340 N 
HETATM    2  H   UNL     1       7.751  29.095  54.101  1.00  0.00     0.167 HD
ENDROOT
BRANCH   1   3
HETATM    3  C   UNL     1       6.490  29.301  55.675  1.00  0.00     0.143 A 
HETATM    4  C   UNL     1       7.002  29.919  56.848  1.00  0.00     0.053 A 
HETATM    5  C   UNL     1       8.296  29.899  57.527  1.00  0.00    -0.032 A 
HETATM    6  C   UNL     1       6.103  30.715  57.545  1.00  0.00     0.114 A 
HETATM    7  C   UNL     1       9.479  29.086  57.099  1.00  0.00     0.050 C 
HETATM    8  C   UNL     1       8.301  30.728  58.643  1.00  0.00    -0.012 A 
HETATM    9  S   UNL     1       6.785  31.460  58.909  1.00  0.00    -0.074 SA
HETATM   10  C   UNL     1       9.422  31.009  59.592  1.00  0.00     0.057 C 
HETATM   11  N   UNL     1       4.814  30.938  57.243  1.00  0.00    -0.234 NA
HETATM   12  C   UNL     1       4.433  30.290  56.147  1.00  0.00     0.236 A 
HETATM   13  N   UNL     1       5.185  29.505  55.368  1.00  0.00    -0.223 NA
ENDBRANCH   1   3
BRANCH   1  14
HETATM   14  C   UNL     1       7.405  27.156  54.611  1.00  0.00     0.036 A 
HETATM   15  C   UNL     1       7.309  26.304  55.723  1.00  0.00     0.069 A 
HETATM   16  C   UNL     1       7.454  24.920  55.589  1.00  0.00     0.104 A 
HETATM   17  C   UNL     1       7.658  24.359  54.329  1.00  0.00     0.102 A 
HETATM   18  O   UNL     1       7.290  24.173  56.724  1.00  0.00    -0.348 OA
HETATM   19  O   UNL     1       7.706  23.011  54.107  1.00  0.00    -0.348 OA
HETATM   20  C   UNL     1       7.718  25.185  53.211  1.00  0.00     0.042 A 
HETATM   21  C   UNL     1       8.814  22.398  54.765  1.00  0.00     0.178 C 
HETATM   22  C   UNL     1       8.522  22.117  56.231  1.00  0.00     0.053 C 
HETATM   23  C   UNL     1       8.454  23.406  57.034  1.00  0.00     0.178 C 
HETATM   24  C   UNL     1       7.611  26.572  53.356  1.00  0.00     0.032 A 
ENDBRANCH   1  14
TORSDOF 2
ENDMDL
