MODEL 1
REMARK VINA RESULT:      -9.1      0.000      0.000
REMARK  3 active torsions:
REMARK  status: ('A' for Active; 'I' for Inactive)
REMARK    1  A    between atoms: C_2  and  C_3 
REMARK    2  A    between atoms: C_8  and  C_9 
REMARK    3  A    between atoms: C_9  and  N_10 
ROOT
HETATM    1  C   UNL     1       5.204  26.580  53.552  1.00  0.00     0.096 A 
HETATM    2  N   UNL     1       4.076  26.436  52.843  1.00  0.00    -0.174 NA
HETATM    3  N   UNL     1       3.427  27.595  52.964  1.00  0.00    -0.288 N 
HETATM    4  H   UNL     1       2.554  27.712  52.453  1.00  0.00     0.188 HD
HETATM    5  C   UNL     1       4.055  28.475  53.796  1.00  0.00     0.120 A 
HETATM    6  C   UNL     1       5.215  27.849  54.222  1.00  0.00     0.016 A 
ENDROOT
BRANCH   6   7
HETATM    7  C   UNL     1       6.247  28.385  55.148  1.00  0.00     0.277 C 
BRANCH   7   8
HETATM    8  N   UNL     1       5.908  28.213  56.613  1.00  0.00    -0.067 N 
HETATM    9  H   UNL     1       5.044  27.659  56.592  1.00  0.00     0.280 HD
HETATM   10  C   UNL     1       6.883  27.383  57.413  1.00  0.00     0.242 C 
HETATM   11  C   UNL     1       8.118  28.160  57.885  1.00  0.00     0.041 C 
HETATM   12  C   UNL     1       7.761  29.543  58.433  1.00  0.00     0.128 C 
HETATM   13  C   UNL     1       9.290  28.172  56.889  1.00  0.00     0.011 C 
HETATM   14  O   UNL     1       8.931  30.289  58.720  1.00  0.00    -0.385 OA
HETATM   15  C   UNL     1       6.764  30.332  57.589  1.00  0.00     0.060 C 
HETATM   16  C   UNL     1       9.836  30.533  57.646  1.00  0.00     0.168 C 
HETATM   17  C   UNL     1       9.735  29.565  56.475  1.00  0.00     0.027 C 
HETATM   18  C   UNL     1       5.532  29.499  57.303  1.00  0.00     0.237 C 
ENDBRANCH   7   8
ENDBRANCH   6   7
BRANCH   1  19
HETATM   19  C   UNL     1       6.192  25.500  53.590  1.00  0.00    -0.002 A 
HETATM   20  C   UNL     1       7.009  25.261  52.474  1.00  0.00     0.017 A 
HETATM   21  C   UNL     1       7.939  24.217  52.480  1.00  0.00     0.040 A 
HETATM   22  C   UNL     1       8.057  23.401  53.602  1.00  0.00     0.102 A 
HETATM   23  C   UNL     1       7.241  23.624  54.713  1.00  0.00     0.103 A 
HETATM   24  O   UNL     1       8.990  22.401  53.545  1.00  0.00    -0.346 OA
HETATM   25  C   UNL     1       6.341  24.689  54.723  1.00  0.00     0.053 A 
HETATM   26  O   UNL     1       7.266  22.836  55.836  1.00  0.00    -0.346 OA
HETATM   27  C   UNL     1       7.985  21.615  55.606  1.00  0.00     0.202 C 
HETATM   28  C   UNL     1       9.277  21.880  54.849  1.00  0.00     0.202 C 
ENDBRANCH   1  19
TORSDOF 3
ENDMDL
MODEL 2
REMARK VINA RESULT:      -8.9      1.355      2.015
REMARK  3 active torsions:
REMARK  status: ('A' for Active; 'I' for Inactive)
REMARK    1  A    between atoms: C_2  and  C_3 
REMARK    2  A    between atoms: C_8  and  C_9 
REMARK    3  A    between atoms: C_9  and  N_10 
ROOT
HETATM    1  C   UNL     1       5.773  25.546  52.774  1.00  0.00     0.096 A 
HETATM    2  N   UNL     1       5.088  25.261  51.659  1.00  0.00    -0.174 NA
HETATM    3  N   UNL     1       4.686  26.438  51.176  1.00  0.00    -0.288 N 
HETATM    4  H   UNL     1       4.181  26.447  50.292  1.00  0.00     0.188 HD
HETATM    5  C   UNL     1       5.020  27.487  51.981  1.00  0.00     0.120 A 
HETATM    6  C   UNL     1       5.716  26.952  53.051  1.00  0.00     0.016 A 
ENDROOT
BRANCH   6   7
HETATM    7  C   UNL     1       6.294  27.680  54.212  1.00  0.00     0.277 C 
BRANCH   7   8
HETATM    8  N   UNL     1       5.272  28.096  55.248  1.00  0.00    -0.067 N 
HETATM    9  H   UNL     1       4.381  27.800  54.832  1.00  0.00     0.280 HD
HETATM   10  C   UNL     1       5.348  27.365  56.567  1.00  0.00     0.242 C 
HETATM   11  C   UNL     1       6.408  27.922  57.524  1.00  0.00     0.041 C 
HETATM   12  C   UNL     1       6.406  29.450  57.570  1.00  0.00     0.128 C 
HETATM   13  C   UNL     1       7.810  27.309  57.359  1.00  0.00     0.011 C 
HETATM   14  O   UNL     1       7.490  29.934  58.344  1.00  0.00    -0.385 OA
HETATM   15  C   UNL     1       6.317  30.135  56.209  1.00  0.00     0.060 C 
HETATM   16  C   UNL     1       8.805  29.573  57.933  1.00  0.00     0.168 C 
HETATM   17  C   UNL     1       8.898  28.328  57.062  1.00  0.00     0.027 C 
HETATM   18  C   UNL     1       5.150  29.588  55.414  1.00  0.00     0.237 C 
ENDBRANCH   7   8
ENDBRANCH   6   7
BRANCH   1  19
HETATM   19  C   UNL     1       6.412  24.472  53.539  1.00  0.00    -0.002 A 
HETATM   20  C   UNL     1       6.523  24.579  54.935  1.00  0.00     0.017 A 
HETATM   21  C   UNL     1       7.154  23.579  55.681  1.00  0.00     0.040 A 
HETATM   22  C   UNL     1       7.683  22.465  55.035  1.00  0.00     0.102 A 
HETATM   23  C   UNL     1       7.588  22.355  53.647  1.00  0.00     0.103 A 
HETATM   24  O   UNL     1       8.283  21.520  55.823  1.00  0.00    -0.346 OA
HETATM   25  C   UNL     1       6.924  23.333  52.906  1.00  0.00     0.053 A 
HETATM   26  O   UNL     1       8.125  21.312  52.935  1.00  0.00    -0.346 OA
HETATM   27  C   UNL     1       9.032  20.540  53.737  1.00  0.00     0.202 C 
HETATM   28  C   UNL     1       8.452  20.284  55.118  1.00  0.00     0.202 C 
ENDBRANCH   1  19
TORSDOF 3
ENDMDL
MODEL 3
REMARK VINA RESULT:      -8.7      3.227      6.505
REMARK  3 active torsions:
REMARK  status: ('A' for Active; 'I' for Inactive)
REMARK    1  A    between atoms: C_2  and  C_3 
REMARK    2  A    between atoms: C_8  and  C_9 
REMARK    3  A    between atoms: C_9  and  N_10 
ROOT
HETATM    1  C   UNL     1       5.163  26.735  54.954  1.00  0.00     0.096 A 
HETATM    2  N   UNL     1       4.581  27.733  55.632  1.00  0.00    -0.174 NA
HETATM    3  N   UNL     1       4.878  27.515  56.914  1.00  0.00    -0.288 N 
HETATM    4  H   UNL     1       4.565  28.197  57.602  1.00  0.00     0.188 HD
HETATM    5  C   UNL     1       5.573  26.359  57.112  1.00  0.00     0.120 A 
HETATM    6  C   UNL     1       5.768  25.801  55.860  1.00  0.00     0.016 A 
ENDROOT
BRANCH   6   7
HETATM    7  C   UNL     1       6.469  24.532  55.531  1.00  0.00     0.277 C 
BRANCH   7   8
HETATM    8  N   UNL     1       7.875  24.724  55.005  1.00  0.00    -0.067 N 
HETATM    9  H   UNL     1       8.016  25.739  55.072  1.00  0.00     0.280 HD
HETATM   10  C   UNL     1       8.974  24.122  55.848  1.00  0.00     0.242 C 
HETATM   11  C   UNL     1       9.188  22.624  55.609  1.00  0.00     0.041 C 
HETATM   12  C   UNL     1       9.169  22.262  54.123  1.00  0.00     0.128 C 
HETATM   13  C   UNL     1       8.319  21.701  56.482  1.00  0.00     0.011 C 
HETATM   14  O   UNL     1       9.220  20.857  53.944  1.00  0.00    -0.385 OA
HETATM   15  C   UNL     1       8.043  22.907  53.318  1.00  0.00     0.060 C 
HETATM   16  C   UNL     1       8.180  20.081  54.533  1.00  0.00     0.168 C 
HETATM   17  C   UNL     1       7.445  20.745  55.689  1.00  0.00     0.027 C 
HETATM   18  C   UNL     1       8.022  24.405  53.540  1.00  0.00     0.237 C 
ENDBRANCH   7   8
ENDBRANCH   6   7
BRANCH   1  19
HETATM   19  C   UNL     1       5.085  26.695  53.492  1.00  0.00    -0.002 A 
HETATM   20  C   UNL     1       4.881  25.470  52.836  1.00  0.00     0.017 A 
HETATM   21  C   UNL     1       4.831  25.406  51.441  1.00  0.00     0.040 A 
HETATM   22  C   UNL     1       4.989  26.567  50.689  1.00  0.00     0.102 A 
HETATM   23  C   UNL     1       5.203  27.788  51.331  1.00  0.00     0.103 A 
HETATM   24  O   UNL     1       4.924  26.437  49.328  1.00  0.00    -0.346 OA
HETATM   25  C   UNL     1       5.214  27.859  52.724  1.00  0.00     0.053 A 
HETATM   26  O   UNL     1       5.414  28.966  50.660  1.00  0.00    -0.346 OA
HETATM   27  C   UNL     1       5.686  28.737  49.269  1.00  0.00     0.202 C 
HETATM   28  C   UNL     1       4.730  27.706  48.691  1.00  0.00     0.202 C 
ENDBRANCH   1  19
TORSDOF 3
ENDMDL
MODEL 4
REMARK VINA RESULT:      -8.6      1.310      2.220
REMARK  3 active torsions:
REMARK  status: ('A' for Active; 'I' for Inactive)
REMARK    1  A    between atoms: C_2  and  C_3 
REMARK    2  A    between atoms: C_8  and  C_9 
REMARK    3  A    between atoms: C_9  and  N_10 
ROOT
HETATM    1  C   UNL     1       5.663  25.269  53.874  1.00  0.00     0.096 A 
HETATM    2  N   UNL     1       4.846  25.358  52.816  1.00  0.00    -0.174 NA
HETATM    3  N   UNL     1       4.227  26.533  52.940  1.00  0.00    -0.288 N 
HETATM    4  H   UNL     1       3.588  26.819  52.201  1.00  0.00     0.188 HD
HETATM    5  C   UNL     1       4.552  27.189  54.091  1.00  0.00     0.120 A 
HETATM    6  C   UNL     1       5.475  26.392  54.747  1.00  0.00     0.016 A 
ENDROOT
BRANCH   6   7
HETATM    7  C   UNL     1       6.137  26.658  56.051  1.00  0.00     0.277 C 
BRANCH   7   8
HETATM    8  N   UNL     1       7.564  27.148  55.927  1.00  0.00    -0.067 N 
HETATM    9  H   UNL     1       8.014  26.423  55.355  1.00  0.00     0.280 HD
HETATM   10  C   UNL     1       7.747  28.429  55.149  1.00  0.00     0.242 C 
HETATM   11  C   UNL     1       7.480  29.696  55.967  1.00  0.00     0.041 C 
HETATM   12  C   UNL     1       8.104  29.630  57.363  1.00  0.00     0.128 C 
HETATM   13  C   UNL     1       6.015  30.167  55.966  1.00  0.00     0.011 C 
HETATM   14  O   UNL     1       7.715  30.747  58.143  1.00  0.00    -0.385 OA
HETATM   15  C   UNL     1       7.896  28.310  58.099  1.00  0.00     0.060 C 
HETATM   16  C   UNL     1       6.321  30.942  58.364  1.00  0.00     0.168 C 
HETATM   17  C   UNL     1       5.400  30.275  57.351  1.00  0.00     0.027 C 
HETATM   18  C   UNL     1       8.321  27.144  57.230  1.00  0.00     0.237 C 
ENDBRANCH   7   8
ENDBRANCH   6   7
BRANCH   1  19
HETATM   19  C   UNL     1       6.548  24.112  54.025  1.00  0.00    -0.002 A 
HETATM   20  C   UNL     1       7.082  23.487  52.887  1.00  0.00     0.017 A 
HETATM   21  C   UNL     1       7.906  22.364  53.008  1.00  0.00     0.040 A 
HETATM   22  C   UNL     1       8.200  21.855  54.270  1.00  0.00     0.102 A 
HETATM   23  C   UNL     1       7.666  22.463  55.408  1.00  0.00     0.103 A 
HETATM   24  O   UNL     1       9.017  20.758  54.320  1.00  0.00    -0.346 OA
HETATM   25  C   UNL     1       6.875  23.606  55.290  1.00  0.00     0.053 A 
HETATM   26  O   UNL     1       7.871  21.993  56.680  1.00  0.00    -0.346 OA
HETATM   27  C   UNL     1       8.426  20.669  56.669  1.00  0.00     0.202 C 
HETATM   28  C   UNL     1       9.539  20.555  55.640  1.00  0.00     0.202 C 
ENDBRANCH   1  19
TORSDOF 3
ENDMDL
MODEL 5
REMARK VINA RESULT:      -8.6      3.898      8.997
REMARK  3 active torsions:
REMARK  status: ('A' for Active; 'I' for Inactive)
REMARK    1  A    between atoms: C_2  and  C_3 
REMARK    2  A    between atoms: C_8  and  C_9 
REMARK    3  A    between atoms: C_9  and  N_10 
ROOT
HETATM    1  C   UNL     1       9.069  31.460  59.098  1.00  0.00     0.096 A 
HETATM    2  N   UNL     1      10.272  32.030  58.948  1.00  0.00    -0.174 NA
HETATM    3  N   UNL     1      10.834  31.413  57.908  1.00  0.00    -0.288 N 
HETATM    4  H   UNL     1      11.747  31.734  57.594  1.00  0.00     0.188 HD
HETATM    5  C   UNL     1      10.069  30.397  57.414  1.00  0.00     0.120 A 
HETATM    6  C   UNL     1       8.911  30.375  58.172  1.00  0.00     0.016 A 
ENDROOT
BRANCH   6   7
HETATM    7  C   UNL     1       7.755  29.449  58.037  1.00  0.00     0.277 C 
BRANCH   7   8
HETATM    8  N   UNL     1       7.004  29.590  56.731  1.00  0.00    -0.067 N 
HETATM    9  H   UNL     1       7.179  30.565  56.462  1.00  0.00     0.280 HD
HETATM   10  C   UNL     1       7.536  28.767  55.582  1.00  0.00     0.242 C 
HETATM   11  C   UNL     1       7.062  27.310  55.591  1.00  0.00     0.041 C 
HETATM   12  C   UNL     1       5.572  27.184  55.911  1.00  0.00     0.128 C 
HETATM   13  C   UNL     1       7.952  26.348  56.399  1.00  0.00     0.011 C 
HETATM   14  O   UNL     1       5.199  25.824  56.059  1.00  0.00    -0.385 OA
HETATM   15  C   UNL     1       5.087  28.045  57.074  1.00  0.00     0.060 C 
HETATM   16  C   UNL     1       5.864  25.066  57.065  1.00  0.00     0.168 C 
HETATM   17  C   UNL     1       7.217  25.609  57.505  1.00  0.00     0.027 C 
HETATM   18  C   UNL     1       5.508  29.487  56.879  1.00  0.00     0.237 C 
ENDBRANCH   7   8
ENDBRANCH   6   7
BRANCH   1  19
HETATM   19  C   UNL     1       8.149  31.943  60.130  1.00  0.00    -0.002 A 
HETATM   20  C   UNL     1       6.848  32.338  59.777  1.00  0.00     0.017 A 
HETATM   21  C   UNL     1       5.964  32.828  60.743  1.00  0.00     0.040 A 
HETATM   22  C   UNL     1       6.375  32.931  62.069  1.00  0.00     0.102 A 
HETATM   23  C   UNL     1       7.669  32.551  62.428  1.00  0.00     0.103 A 
HETATM   24  O   UNL     1       5.460  33.414  62.965  1.00  0.00    -0.346 OA
HETATM   25  C   UNL     1       8.539  32.025  61.473  1.00  0.00     0.053 A 
HETATM   26  O   UNL     1       8.163  32.667  63.703  1.00  0.00    -0.346 OA
HETATM   27  C   UNL     1       7.315  33.486  64.522  1.00  0.00     0.202 C 
HETATM   28  C   UNL     1       5.852  33.132  64.315  1.00  0.00     0.202 C 
ENDBRANCH   1  19
TORSDOF 3
ENDMDL
MODEL 6
REMARK VINA RESULT:      -8.5      3.791      6.586
REMARK  3 active torsions:
REMARK  status: ('A' for Active; 'I' for Inactive)
REMARK    1  A    between atoms: C_2  and  C_3 
REMARK    2  A    between atoms: C_8  and  C_9 
REMARK    3  A    between atoms: C_9  and  N_10 
ROOT
HETATM    1  C   UNL     1       5.261  26.763  53.823  1.00  0.00     0.096 A 
HETATM    2  N   UNL     1       5.012  27.282  55.032  1.00  0.00    -0.174 NA
HETATM    3  N   UNL     1       4.098  28.232  54.833  1.00  0.00    -0.288 N 
HETATM    4  H   UNL     1       3.731  28.725  55.644  1.00  0.00     0.188 HD
HETATM    5  C   UNL     1       3.792  28.410  53.515  1.00  0.00     0.120 A 
HETATM    6  C   UNL     1       4.543  27.484  52.811  1.00  0.00     0.016 A 
ENDROOT
BRANCH   6   7
HETATM    7  C   UNL     1       4.576  27.272  51.340  1.00  0.00     0.277 C 
BRANCH   7   8
HETATM    8  N   UNL     1       4.622  28.553  50.536  1.00  0.00    -0.067 N 
HETATM    9  H   UNL     1       5.150  29.193  51.141  1.00  0.00     0.280 HD
HETATM   10  C   UNL     1       5.415  28.488  49.252  1.00  0.00     0.242 C 
HETATM   11  C   UNL     1       4.641  27.885  48.075  1.00  0.00     0.041 C 
HETATM   12  C   UNL     1       3.209  28.416  47.987  1.00  0.00     0.128 C 
HETATM   13  C   UNL     1       4.742  26.355  47.954  1.00  0.00     0.011 C 
HETATM   14  O   UNL     1       2.478  27.731  46.984  1.00  0.00    -0.385 OA
HETATM   15  C   UNL     1       2.459  28.469  49.315  1.00  0.00     0.060 C 
HETATM   16  C   UNL     1       2.347  26.319  47.115  1.00  0.00     0.168 C 
HETATM   17  C   UNL     1       3.400  25.643  47.981  1.00  0.00     0.027 C 
HETATM   18  C   UNL     1       3.276  29.205  50.357  1.00  0.00     0.237 C 
ENDBRANCH   7   8
ENDBRANCH   6   7
BRANCH   1  19
HETATM   19  C   UNL     1       6.192  25.641  53.681  1.00  0.00    -0.002 A 
HETATM   20  C   UNL     1       6.966  25.517  52.517  1.00  0.00     0.017 A 
HETATM   21  C   UNL     1       7.840  24.439  52.350  1.00  0.00     0.040 A 
HETATM   22  C   UNL     1       7.943  23.472  53.346  1.00  0.00     0.102 A 
HETATM   23  C   UNL     1       7.170  23.580  54.503  1.00  0.00     0.103 A 
HETATM   24  O   UNL     1       8.820  22.445  53.123  1.00  0.00    -0.346 OA
HETATM   25  C   UNL     1       6.327  24.676  54.688  1.00  0.00     0.053 A 
HETATM   26  O   UNL     1       7.181  22.644  55.507  1.00  0.00    -0.346 OA
HETATM   27  C   UNL     1       7.829  21.433  55.091  1.00  0.00     0.202 C 
HETATM   28  C   UNL     1       9.113  21.736  54.335  1.00  0.00     0.202 C 
ENDBRANCH   1  19
TORSDOF 3
ENDMDL
MODEL 7
REMARK VINA RESULT:      -8.5      1.625      2.593
REMARK  3 active torsions:
REMARK  status: ('A' for Active; 'I' for Inactive)
REMARK    1  A    between atoms: C_2  and  C_3 
REMARK    2  A    between atoms: C_8  and  C_9 
REMARK    3  A    between atoms: C_9  and  N_10 
ROOT
HETATM    1  C   UNL     1       6.060  25.037  53.026  1.00  0.00     0.096 A 
HETATM    2  N   UNL     1       4.824  24.855  52.543  1.00  0.00    -0.174 NA
HETATM    3  N   UNL     1       4.392  26.069  52.197  1.00  0.00    -0.288 N 
HETATM    4  H   UNL     1       3.477  26.146  51.757  1.00  0.00     0.188 HD
HETATM    5  C   UNL     1       5.277  27.059  52.509  1.00  0.00     0.120 A 
HETATM    6  C   UNL     1       6.377  26.436  53.072  1.00  0.00     0.016 A 
ENDROOT
BRANCH   6   7
HETATM    7  C   UNL     1       7.617  27.075  53.586  1.00  0.00     0.277 C 
BRANCH   7   8
HETATM    8  N   UNL     1       7.388  28.419  54.244  1.00  0.00    -0.067 N 
HETATM    9  H   UNL     1       7.239  29.050  53.447  1.00  0.00     0.280 HD
HETATM   10  C   UNL     1       6.132  28.533  55.073  1.00  0.00     0.242 C 
HETATM   11  C   UNL     1       6.269  27.966  56.490  1.00  0.00     0.041 C 
HETATM   12  C   UNL     1       7.585  28.374  57.155  1.00  0.00     0.128 C 
HETATM   13  C   UNL     1       5.950  26.467  56.618  1.00  0.00     0.011 C 
HETATM   14  O   UNL     1       7.748  27.716  58.399  1.00  0.00    -0.385 OA
HETATM   15  C   UNL     1       8.821  28.249  56.268  1.00  0.00     0.060 C 
HETATM   16  C   UNL     1       7.757  26.291  58.393  1.00  0.00     0.168 C 
HETATM   17  C   UNL     1       7.090  25.639  57.189  1.00  0.00     0.027 C 
HETATM   18  C   UNL     1       8.604  28.963  54.950  1.00  0.00     0.237 C 
ENDBRANCH   7   8
ENDBRANCH   6   7
BRANCH   1  19
HETATM   19  C   UNL     1       6.860  23.887  53.453  1.00  0.00    -0.002 A 
HETATM   20  C   UNL     1       7.498  23.085  52.493  1.00  0.00     0.017 A 
HETATM   21  C   UNL     1       8.243  21.966  52.878  1.00  0.00     0.040 A 
HETATM   22  C   UNL     1       8.354  21.640  54.227  1.00  0.00     0.102 A 
HETATM   23  C   UNL     1       7.715  22.425  55.188  1.00  0.00     0.103 A 
HETATM   24  O   UNL     1       9.102  20.536  54.537  1.00  0.00    -0.346 OA
HETATM   25  C   UNL     1       7.003  23.563  54.808  1.00  0.00     0.053 A 
HETATM   26  O   UNL     1       7.738  22.141  56.530  1.00  0.00    -0.346 OA
HETATM   27  C   UNL     1       8.222  20.813  56.779  1.00  0.00     0.202 C 
HETATM   28  C   UNL     1       9.446  20.513  55.928  1.00  0.00     0.202 C 
ENDBRANCH   1  19
TORSDOF 3
ENDMDL
MODEL 8
REMARK VINA RESULT:      -8.4      3.267      8.369
REMARK  3 active torsions:
REMARK  status: ('A' for Active; 'I' for Inactive)
REMARK    1  A    between atoms: C_2  and  C_3 
REMARK    2  A    between atoms: C_8  and  C_9 
REMARK    3  A    between atoms: C_9  and  N_10 
ROOT
HETATM    1  C   UNL     1       9.294  30.418  58.453  1.00  0.00     0.096 A 
HETATM    2  N   UNL     1      10.461  30.967  58.093  1.00  0.00    -0.174 NA
HETATM    3  N   UNL     1      10.809  30.358  56.959  1.00  0.00    -0.288 N 
HETATM    4  H   UNL     1      11.656  30.668  56.487  1.00  0.00     0.188 HD
HETATM    5  C   UNL     1       9.944  29.367  56.599  1.00  0.00     0.120 A 
HETATM    6  C   UNL     1       8.944  29.353  57.557  1.00  0.00     0.016 A 
ENDROOT
BRANCH   6   7
HETATM    7  C   UNL     1       7.764  28.452  57.623  1.00  0.00     0.277 C 
BRANCH   7   8
HETATM    8  N   UNL     1       6.479  29.085  57.133  1.00  0.00    -0.067 N 
HETATM    9  H   UNL     1       6.384  29.917  57.728  1.00  0.00     0.280 HD
HETATM   10  C   UNL     1       6.513  29.618  55.721  1.00  0.00     0.242 C 
HETATM   11  C   UNL     1       6.286  28.548  54.648  1.00  0.00     0.041 C 
HETATM   12  C   UNL     1       5.146  27.594  55.009  1.00  0.00     0.128 C 
HETATM   13  C   UNL     1       7.563  27.833  54.171  1.00  0.00     0.011 C 
HETATM   14  O   UNL     1       5.061  26.532  54.074  1.00  0.00    -0.385 OA
HETATM   15  C   UNL     1       5.156  27.095  56.451  1.00  0.00     0.060 C 
HETATM   16  C   UNL     1       6.207  25.702  53.915  1.00  0.00     0.168 C 
HETATM   17  C   UNL     1       7.528  26.325  54.347  1.00  0.00     0.027 C 
HETATM   18  C   UNL     1       5.251  28.259  57.416  1.00  0.00     0.237 C 
ENDBRANCH   7   8
ENDBRANCH   6   7
BRANCH   1  19
HETATM   19  C   UNL     1       8.590  30.899  59.644  1.00  0.00    -0.002 A 
HETATM   20  C   UNL     1       9.089  30.598  60.921  1.00  0.00     0.017 A 
HETATM   21  C   UNL     1       8.417  31.024  62.070  1.00  0.00     0.040 A 
HETATM   22  C   UNL     1       7.237  31.753  61.951  1.00  0.00     0.102 A 
HETATM   23  C   UNL     1       6.727  32.049  60.686  1.00  0.00     0.103 A 
HETATM   24  O   UNL     1       6.631  32.145  63.114  1.00  0.00    -0.346 OA
HETATM   25  C   UNL     1       7.417  31.658  59.539  1.00  0.00     0.053 A 
HETATM   26  O   UNL     1       5.547  32.721  60.488  1.00  0.00    -0.346 OA
HETATM   27  C   UNL     1       4.779  32.804  61.698  1.00  0.00     0.202 C 
HETATM   28  C   UNL     1       5.663  33.174  62.877  1.00  0.00     0.202 C 
ENDBRANCH   1  19
TORSDOF 3
ENDMDL
MODEL 9
REMARK VINA RESULT:      -8.1      2.627      6.123
REMARK  3 active torsions:
REMARK  status: ('A' for Active; 'I' for Inactive)
REMARK    1  A    between atoms: C_2  and  C_3 
REMARK    2  A    between atoms: C_8  and  C_9 
REMARK    3  A    between atoms: C_9  and  N_10 
ROOT
HETATM    1  C   UNL     1       6.584  28.932  56.139  1.00  0.00     0.096 A 
HETATM    2  N   UNL     1       6.391  29.999  56.926  1.00  0.00    -0.174 NA
HETATM    3  N   UNL     1       7.253  29.862  57.934  1.00  0.00    -0.288 N 
HETATM    4  H   UNL     1       7.302  30.603  58.630  1.00  0.00     0.188 HD
HETATM    5  C   UNL     1       7.958  28.695  57.878  1.00  0.00     0.120 A 
HETATM    6  C   UNL     1       7.541  28.041  56.731  1.00  0.00     0.016 A 
ENDROOT
BRANCH   6   7
HETATM    7  C   UNL     1       8.003  26.724  56.219  1.00  0.00     0.277 C 
BRANCH   7   8
HETATM    8  N   UNL     1       7.530  25.545  57.041  1.00  0.00    -0.067 N 
HETATM    9  H   UNL     1       7.294  25.968  57.946  1.00  0.00     0.280 HD
HETATM   10  C   UNL     1       6.251  24.894  56.570  1.00  0.00     0.242 C 
HETATM   11  C   UNL     1       6.448  23.897  55.423  1.00  0.00     0.041 C 
HETATM   12  C   UNL     1       7.657  22.986  55.644  1.00  0.00     0.128 C 
HETATM   13  C   UNL     1       6.389  24.516  54.015  1.00  0.00     0.011 C 
HETATM   14  O   UNL     1       7.899  22.182  54.503  1.00  0.00    -0.385 OA
HETATM   15  C   UNL     1       8.918  23.696  56.130  1.00  0.00     0.060 C 
HETATM   16  C   UNL     1       8.153  22.849  53.270  1.00  0.00     0.168 C 
HETATM   17  C   UNL     1       7.639  24.280  53.184  1.00  0.00     0.027 C 
HETATM   18  C   UNL     1       8.615  24.545  57.346  1.00  0.00     0.237 C 
ENDBRANCH   7   8
ENDBRANCH   6   7
BRANCH   1  19
HETATM   19  C   UNL     1       5.829  28.791  54.892  1.00  0.00    -0.002 A 
HETATM   20  C   UNL     1       4.547  29.353  54.784  1.00  0.00     0.017 A 
HETATM   21  C   UNL     1       3.799  29.205  53.612  1.00  0.00     0.040 A 
HETATM   22  C   UNL     1       4.326  28.492  52.540  1.00  0.00     0.102 A 
HETATM   23  C   UNL     1       5.596  27.920  52.642  1.00  0.00     0.103 A 
HETATM   24  O   UNL     1       3.545  28.388  51.421  1.00  0.00    -0.346 OA
HETATM   25  C   UNL     1       6.359  28.099  53.795  1.00  0.00     0.053 A 
HETATM   26  O   UNL     1       6.163  27.163  51.647  1.00  0.00    -0.346 OA
HETATM   27  C   UNL     1       5.197  26.789  50.654  1.00  0.00     0.202 C 
HETATM   28  C   UNL     1       4.312  27.969  50.285  1.00  0.00     0.202 C 
ENDBRANCH   1  19
TORSDOF 3
ENDMDL
MODEL 10
REMARK VINA RESULT:      -7.9      3.475      6.513
REMARK  3 active torsions:
REMARK  status: ('A' for Active; 'I' for Inactive)
REMARK    1  A    between atoms: C_2  and  C_3 
REMARK    2  A    between atoms: C_8  and  C_9 
REMARK    3  A    between atoms: C_9  and  N_10 
ROOT
HETATM    1  C   UNL     1       7.911  27.441  56.481  1.00  0.00     0.096 A 
HETATM    2  N   UNL     1       8.223  26.211  56.912  1.00  0.00    -0.174 NA
HETATM    3  N   UNL     1       7.586  25.373  56.093  1.00  0.00    -0.288 N 
HETATM    4  H   UNL     1       7.731  24.374  56.221  1.00  0.00     0.188 HD
HETATM    5  C   UNL     1       6.800  26.013  55.180  1.00  0.00     0.120 A 
HETATM    6  C   UNL     1       6.963  27.369  55.407  1.00  0.00     0.016 A 
ENDROOT
BRANCH   6   7
HETATM    7  C   UNL     1       6.317  28.494  54.680  1.00  0.00     0.277 C 
BRANCH   7   8
HETATM    8  N   UNL     1       4.811  28.376  54.578  1.00  0.00    -0.067 N 
HETATM    9  H   UNL     1       4.675  27.441  54.177  1.00  0.00     0.280 HD
HETATM   10  C   UNL     1       4.070  28.349  55.893  1.00  0.00     0.242 C 
HETATM   11  C   UNL     1       3.827  29.736  56.497  1.00  0.00     0.041 C 
HETATM   12  C   UNL     1       3.364  30.753  55.453  1.00  0.00     0.128 C 
HETATM   13  C   UNL     1       4.960  30.251  57.403  1.00  0.00     0.011 C 
HETATM   14  O   UNL     1       3.293  32.054  56.011  1.00  0.00    -0.385 OA
HETATM   15  C   UNL     1       4.142  30.729  54.140  1.00  0.00     0.060 C 
HETATM   16  C   UNL     1       4.488  32.599  56.561  1.00  0.00     0.168 C 
HETATM   17  C   UNL     1       5.547  31.581  56.961  1.00  0.00     0.027 C 
HETATM   18  C   UNL     1       4.196  29.323  53.580  1.00  0.00     0.237 C 
ENDBRANCH   7   8
ENDBRANCH   6   7
BRANCH   1  19
HETATM   19  C   UNL     1       8.494  28.618  57.130  1.00  0.00    -0.002 A 
HETATM   20  C   UNL     1       9.552  29.304  56.513  1.00  0.00     0.017 A 
HETATM   21  C   UNL     1      10.141  30.412  57.129  1.00  0.00     0.040 A 
HETATM   22  C   UNL     1       9.677  30.842  58.369  1.00  0.00     0.102 A 
HETATM   23  C   UNL     1       8.632  30.160  58.996  1.00  0.00     0.103 A 
HETATM   24  O   UNL     1      10.293  31.935  58.915  1.00  0.00    -0.346 OA
HETATM   25  C   UNL     1       8.019  29.078  58.365  1.00  0.00     0.053 A 
HETATM   26  O   UNL     1       8.152  30.494  60.237  1.00  0.00    -0.346 OA
HETATM   27  C   UNL     1       9.034  31.400  60.916  1.00  0.00     0.202 C 
HETATM   28  C   UNL     1       9.513  32.497  59.979  1.00  0.00     0.202 C 
ENDBRANCH   1  19
TORSDOF 3
ENDMDL
