MODEL 1
REMARK VINA RESULT:      -8.4      0.000      0.000
REMARK  5 active torsions:
REMARK  status: ('A' for Active; 'I' for Inactive)
REMARK    1  A    between atoms: C_2  and  O_3 
REMARK    2  A    between atoms: O_3  and  C_4 
REMARK    3  A    between atoms: C_6  and  C_7 
REMARK    4  A    between atoms: C_7  and  N_8 
REMARK       I    between atoms: N_8  and  C_9 
REMARK       I    between atoms: C_9  and  N_10 
REMARK    5  A    between atoms: N_10  and  C_11 
ROOT
HETATM    1  N   UNL     1       7.082  26.527  56.305  1.00  0.00    -0.335 N 
HETATM    2  C   UNL     1       7.620  27.372  57.227  1.00  0.00     0.321 C 
HETATM    3  N   UNL     1       7.899  28.638  56.795  1.00  0.00    -0.307 N 
HETATM    4  O   UNL     1       7.822  26.927  58.353  1.00  0.00    -0.247 OA
HETATM    5  H   UNL     1       6.993  25.590  56.678  1.00  0.00     0.165 HD
HETATM    6  H   UNL     1       8.113  28.692  55.814  1.00  0.00     0.170 HD
ENDROOT
BRANCH   1   7
HETATM    7  C   UNL     1       6.825  26.686  54.878  1.00  0.00     0.115 C 
HETATM    8  C   UNL     1       5.367  27.110  54.681  1.00  0.00     0.037 C 
BRANCH   7   9
HETATM    9  C   UNL     1       7.238  25.415  54.149  1.00  0.00    -0.033 A 
HETATM   10  C   UNL     1       7.233  24.195  54.852  1.00  0.00     0.046 A 
HETATM   11  C   UNL     1       7.548  22.984  54.230  1.00  0.00     0.069 A 
HETATM   12  C   UNL     1       7.916  22.978  52.889  1.00  0.00     0.037 A 
HETATM   13  C   UNL     1       7.933  24.175  52.173  1.00  0.00     0.003 A 
HETATM   14  C   UNL     1       7.589  25.381  52.792  1.00  0.00     0.009 A 
BRANCH  11  15
HETATM   15  O   UNL     1       7.475  21.888  55.043  1.00  0.00    -0.352 OA
BRANCH  15  16
HETATM   16  C   UNL     1       8.361  21.874  56.161  1.00  0.00     0.171 C 
HETATM   17  C   UNL     1       9.020  20.507  56.211  1.00  0.00     0.034 C 
ENDBRANCH  15  16
ENDBRANCH  11  15
ENDBRANCH   7   9
ENDBRANCH   1   7
BRANCH   3  18
HETATM   18  C   UNL     1       8.445  29.689  57.573  1.00  0.00     0.059 A 
HETATM   19  C   UNL     1       9.777  30.122  57.569  1.00  0.00    -0.032 A 
HETATM   20  C   UNL     1      10.888  29.472  56.794  1.00  0.00     0.050 C 
HETATM   21  C   UNL     1      10.119  31.229  58.369  1.00  0.00     0.028 A 
HETATM   22  C   UNL     1       9.160  31.811  59.182  1.00  0.00     0.117 A 
HETATM   23  N   UNL     1       7.892  31.372  59.265  1.00  0.00    -0.271 NA
HETATM   24  C   UNL     1       7.572  30.329  58.464  1.00  0.00     0.146 A 
ENDBRANCH   3  18
TORSDOF 5
ENDMDL
MODEL 2
REMARK VINA RESULT:      -7.7      3.159      6.948
REMARK  5 active torsions:
REMARK  status: ('A' for Active; 'I' for Inactive)
REMARK    1  A    between atoms: C_2  and  O_3 
REMARK    2  A    between atoms: O_3  and  C_4 
REMARK    3  A    between atoms: C_6  and  C_7 
REMARK    4  A    between atoms: C_7  and  N_8 
REMARK       I    between atoms: N_8  and  C_9 
REMARK       I    between atoms: C_9  and  N_10 
REMARK    5  A    between atoms: N_10  and  C_11 
ROOT
HETATM    1  N   UNL     1       7.292  25.238  57.502  1.00  0.00    -0.335 N 
HETATM    2  C   UNL     1       7.805  24.126  56.906  1.00  0.00     0.321 C 
HETATM    3  N   UNL     1       7.249  23.772  55.709  1.00  0.00    -0.307 N 
HETATM    4  O   UNL     1       8.702  23.531  57.495  1.00  0.00    -0.247 OA
HETATM    5  H   UNL     1       7.692  25.375  58.422  1.00  0.00     0.165 HD
HETATM    6  H   UNL     1       6.288  24.050  55.613  1.00  0.00     0.170 HD
ENDROOT
BRANCH   1   7
HETATM    7  C   UNL     1       6.167  26.097  57.147  1.00  0.00     0.115 C 
HETATM    8  C   UNL     1       4.874  25.283  57.242  1.00  0.00     0.037 C 
BRANCH   7   9
HETATM    9  C   UNL     1       6.435  26.739  55.794  1.00  0.00    -0.033 A 
HETATM   10  C   UNL     1       5.502  26.555  54.756  1.00  0.00     0.046 A 
HETATM   11  C   UNL     1       5.659  27.161  53.506  1.00  0.00     0.069 A 
HETATM   12  C   UNL     1       6.785  27.939  53.259  1.00  0.00     0.037 A 
HETATM   13  C   UNL     1       7.727  28.131  54.270  1.00  0.00     0.003 A 
HETATM   14  C   UNL     1       7.550  27.547  55.528  1.00  0.00     0.009 A 
BRANCH  11  15
HETATM   15  O   UNL     1       4.656  26.902  52.615  1.00  0.00    -0.352 OA
BRANCH  15  16
HETATM   16  C   UNL     1       4.816  27.452  51.309  1.00  0.00     0.171 C 
HETATM   17  C   UNL     1       5.020  26.298  50.344  1.00  0.00     0.034 C 
ENDBRANCH  15  16
ENDBRANCH  11  15
ENDBRANCH   7   9
ENDBRANCH   1   7
BRANCH   3  18
HETATM   18  C   UNL     1       7.626  22.670  54.903  1.00  0.00     0.059 A 
HETATM   19  C   UNL     1       7.916  22.702  53.532  1.00  0.00    -0.032 A 
HETATM   20  C   UNL     1       7.782  23.915  52.655  1.00  0.00     0.050 C 
HETATM   21  C   UNL     1       8.336  21.510  52.913  1.00  0.00     0.028 A 
HETATM   22  C   UNL     1       8.385  20.336  53.647  1.00  0.00     0.117 A 
HETATM   23  N   UNL     1       8.041  20.256  54.944  1.00  0.00    -0.271 NA
HETATM   24  C   UNL     1       7.673  21.418  55.532  1.00  0.00     0.146 A 
ENDBRANCH   3  18
TORSDOF 5
ENDMDL
MODEL 3
REMARK VINA RESULT:      -7.7      2.284      7.874
REMARK  5 active torsions:
REMARK  status: ('A' for Active; 'I' for Inactive)
REMARK    1  A    between atoms: C_2  and  O_3 
REMARK    2  A    between atoms: O_3  and  C_4 
REMARK    3  A    between atoms: C_6  and  C_7 
REMARK    4  A    between atoms: C_7  and  N_8 
REMARK       I    between atoms: N_8  and  C_9 
REMARK       I    between atoms: C_9  and  N_10 
REMARK    5  A    between atoms: N_10  and  C_11 
ROOT
HETATM    1  N   UNL     1       7.295  28.376  55.537  1.00  0.00    -0.335 N 
HETATM    2  C   UNL     1       7.448  27.224  54.827  1.00  0.00     0.321 C 
HETATM    3  N   UNL     1       7.543  26.073  55.556  1.00  0.00    -0.307 N 
HETATM    4  O   UNL     1       7.503  27.316  53.604  1.00  0.00    -0.247 OA
HETATM    5  H   UNL     1       7.326  29.185  54.930  1.00  0.00     0.165 HD
HETATM    6  H   UNL     1       7.936  26.207  56.472  1.00  0.00     0.170 HD
ENDROOT
BRANCH   1   7
HETATM    7  C   UNL     1       7.307  28.638  56.972  1.00  0.00     0.115 C 
HETATM    8  C   UNL     1       5.964  29.254  57.374  1.00  0.00     0.037 C 
BRANCH   7   9
HETATM    9  C   UNL     1       8.535  29.468  57.319  1.00  0.00    -0.033 A 
HETATM   10  C   UNL     1       8.378  30.614  58.122  1.00  0.00     0.046 A 
HETATM   11  C   UNL     1       9.469  31.389  58.523  1.00  0.00     0.069 A 
HETATM   12  C   UNL     1      10.746  31.050  58.090  1.00  0.00     0.037 A 
HETATM   13  C   UNL     1      10.926  29.922  57.289  1.00  0.00     0.003 A 
HETATM   14  C   UNL     1       9.835  29.132  56.915  1.00  0.00     0.009 A 
BRANCH  11  15
HETATM   15  O   UNL     1       9.151  32.454  59.318  1.00  0.00    -0.352 OA
BRANCH  15  16
HETATM   16  C   UNL     1       8.403  32.159  60.496  1.00  0.00     0.171 C 
HETATM   17  C   UNL     1       9.390  31.790  61.590  1.00  0.00     0.034 C 
ENDBRANCH  15  16
ENDBRANCH  11  15
ENDBRANCH   7   9
ENDBRANCH   1   7
BRANCH   3  18
HETATM   18  C   UNL     1       7.690  24.762  55.040  1.00  0.00     0.059 A 
HETATM   19  C   UNL     1       6.851  24.134  54.110  1.00  0.00    -0.032 A 
HETATM   20  C   UNL     1       5.580  24.724  53.567  1.00  0.00     0.050 C 
HETATM   21  C   UNL     1       7.197  22.844  53.667  1.00  0.00     0.028 A 
HETATM   22  C   UNL     1       8.303  22.207  54.204  1.00  0.00     0.117 A 
HETATM   23  N   UNL     1       9.086  22.752  55.152  1.00  0.00    -0.271 NA
HETATM   24  C   UNL     1       8.759  24.006  55.542  1.00  0.00     0.146 A 
ENDBRANCH   3  18
TORSDOF 5
ENDMDL
MODEL 4
REMARK VINA RESULT:      -7.7      1.680      2.250
REMARK  5 active torsions:
REMARK  status: ('A' for Active; 'I' for Inactive)
REMARK    1  A    between atoms: C_2  and  O_3 
REMARK    2  A    between atoms: O_3  and  C_4 
REMARK    3  A    between atoms: C_6  and  C_7 
REMARK    4  A    between atoms: C_7  and  N_8 
REMARK       I    between atoms: N_8  and  C_9 
REMARK       I    between atoms: C_9  and  N_10 
REMARK    5  A    between atoms: N_10  and  C_11 
ROOT
HETATM    1  N   UNL     1       5.125  26.711  54.933  1.00  0.00    -0.335 N 
HETATM    2  C   UNL     1       5.362  27.432  56.064  1.00  0.00     0.321 C 
HETATM    3  N   UNL     1       6.348  28.374  55.984  1.00  0.00    -0.307 N 
HETATM    4  O   UNL     1       4.687  27.168  57.055  1.00  0.00    -0.247 OA
HETATM    5  H   UNL     1       4.449  25.977  55.104  1.00  0.00     0.165 HD
HETATM    6  H   UNL     1       7.067  28.149  55.319  1.00  0.00     0.170 HD
ENDROOT
BRANCH   1   7
HETATM    7  C   UNL     1       5.804  26.683  53.642  1.00  0.00     0.115 C 
HETATM    8  C   UNL     1       4.771  26.910  52.535  1.00  0.00     0.037 C 
BRANCH   7   9
HETATM    9  C   UNL     1       6.610  25.397  53.528  1.00  0.00    -0.033 A 
HETATM   10  C   UNL     1       6.651  24.519  54.627  1.00  0.00     0.046 A 
HETATM   11  C   UNL     1       7.327  23.297  54.570  1.00  0.00     0.069 A 
HETATM   12  C   UNL     1       8.013  22.947  53.413  1.00  0.00     0.037 A 
HETATM   13  C   UNL     1       7.992  23.804  52.312  1.00  0.00     0.003 A 
HETATM   14  C   UNL     1       7.289  25.012  52.363  1.00  0.00     0.009 A 
BRANCH  11  15
HETATM   15  O   UNL     1       7.253  22.550  55.712  1.00  0.00    -0.352 OA
BRANCH  15  16
HETATM   16  C   UNL     1       8.421  21.806  56.055  1.00  0.00     0.171 C 
HETATM   17  C   UNL     1       8.032  20.340  56.122  1.00  0.00     0.034 C 
ENDBRANCH  15  16
ENDBRANCH  11  15
ENDBRANCH   7   9
ENDBRANCH   1   7
BRANCH   3  18
HETATM   18  C   UNL     1       6.759  29.248  57.020  1.00  0.00     0.059 A 
HETATM   19  C   UNL     1       6.254  30.531  57.276  1.00  0.00    -0.032 A 
HETATM   20  C   UNL     1       5.242  31.240  56.422  1.00  0.00     0.050 C 
HETATM   21  C   UNL     1       6.746  31.227  58.395  1.00  0.00     0.028 A 
HETATM   22  C   UNL     1       7.753  30.667  59.165  1.00  0.00     0.117 A 
HETATM   23  N   UNL     1       8.310  29.472  58.903  1.00  0.00    -0.271 NA
HETATM   24  C   UNL     1       7.802  28.801  57.843  1.00  0.00     0.146 A 
ENDBRANCH   3  18
TORSDOF 5
ENDMDL
MODEL 5
REMARK VINA RESULT:      -7.5      5.425      8.716
REMARK  5 active torsions:
REMARK  status: ('A' for Active; 'I' for Inactive)
REMARK    1  A    between atoms: C_2  and  O_3 
REMARK    2  A    between atoms: O_3  and  C_4 
REMARK    3  A    between atoms: C_6  and  C_7 
REMARK    4  A    between atoms: C_7  and  N_8 
REMARK       I    between atoms: N_8  and  C_9 
REMARK       I    between atoms: C_9  and  N_10 
REMARK    5  A    between atoms: N_10  and  C_11 
ROOT
HETATM    1  N   UNL     1       4.780  32.060  60.640  1.00  0.00    -0.335 N 
HETATM    2  C   UNL     1       4.528  32.266  61.963  1.00  0.00     0.321 C 
HETATM    3  N   UNL     1       5.161  33.330  62.539  1.00  0.00    -0.307 N 
HETATM    4  O   UNL     1       3.773  31.478  62.524  1.00  0.00    -0.247 OA
HETATM    5  H   UNL     1       4.348  31.203  60.316  1.00  0.00     0.165 HD
HETATM    6  H   UNL     1       6.041  33.558  62.108  1.00  0.00     0.170 HD
ENDROOT
BRANCH   1   7
HETATM    7  C   UNL     1       5.695  32.718  59.714  1.00  0.00     0.115 C 
HETATM    8  C   UNL     1       5.094  32.671  58.307  1.00  0.00     0.037 C 
BRANCH   7   9
HETATM    9  C   UNL     1       7.079  32.099  59.852  1.00  0.00    -0.033 A 
HETATM   10  C   UNL     1       7.394  30.958  59.091  1.00  0.00     0.046 A 
HETATM   11  C   UNL     1       8.662  30.372  59.128  1.00  0.00     0.069 A 
HETATM   12  C   UNL     1       9.636  30.901  59.969  1.00  0.00     0.037 A 
HETATM   13  C   UNL     1       9.346  32.029  60.737  1.00  0.00     0.003 A 
HETATM   14  C   UNL     1       8.084  32.628  60.673  1.00  0.00     0.009 A 
BRANCH  11  15
HETATM   15  O   UNL     1       8.814  29.285  58.314  1.00  0.00    -0.352 OA
BRANCH  15  16
HETATM   16  C   UNL     1       9.131  29.559  56.951  1.00  0.00     0.171 C 
HETATM   17  C   UNL     1      10.639  29.477  56.801  1.00  0.00     0.034 C 
ENDBRANCH  15  16
ENDBRANCH  11  15
ENDBRANCH   7   9
ENDBRANCH   1   7
BRANCH   3  18
HETATM   18  C   UNL     1       5.042  33.747  63.888  1.00  0.00     0.059 A 
HETATM   19  C   UNL     1       6.052  33.724  64.859  1.00  0.00    -0.032 A 
HETATM   20  C   UNL     1       7.428  33.155  64.651  1.00  0.00     0.050 C 
HETATM   21  C   UNL     1       5.760  34.240  66.134  1.00  0.00     0.028 A 
HETATM   22  C   UNL     1       4.481  34.689  66.417  1.00  0.00     0.117 A 
HETATM   23  N   UNL     1       3.470  34.656  65.532  1.00  0.00    -0.271 NA
HETATM   24  C   UNL     1       3.776  34.188  64.299  1.00  0.00     0.146 A 
ENDBRANCH   3  18
TORSDOF 5
ENDMDL
MODEL 6
REMARK VINA RESULT:      -7.4      1.722      2.465
REMARK  5 active torsions:
REMARK  status: ('A' for Active; 'I' for Inactive)
REMARK    1  A    between atoms: C_2  and  O_3 
REMARK    2  A    between atoms: O_3  and  C_4 
REMARK    3  A    between atoms: C_6  and  C_7 
REMARK    4  A    between atoms: C_7  and  N_8 
REMARK       I    between atoms: N_8  and  C_9 
REMARK       I    between atoms: C_9  and  N_10 
REMARK    5  A    between atoms: N_10  and  C_11 
ROOT
HETATM    1  N   UNL     1       8.350  27.673  56.094  1.00  0.00    -0.335 N 
HETATM    2  C   UNL     1       8.408  28.872  56.738  1.00  0.00     0.321 C 
HETATM    3  N   UNL     1       7.510  29.058  57.750  1.00  0.00    -0.307 N 
HETATM    4  O   UNL     1       9.244  29.682  56.349  1.00  0.00    -0.247 OA
HETATM    5  H   UNL     1       8.981  27.652  55.303  1.00  0.00     0.165 HD
HETATM    6  H   UNL     1       6.654  28.543  57.630  1.00  0.00     0.170 HD
ENDROOT
BRANCH   1   7
HETATM    7  C   UNL     1       7.425  26.551  56.216  1.00  0.00     0.115 C 
HETATM    8  C   UNL     1       7.719  25.806  57.521  1.00  0.00     0.037 C 
BRANCH   7   9
HETATM    9  C   UNL     1       7.492  25.706  54.953  1.00  0.00    -0.033 A 
HETATM   10  C   UNL     1       7.517  24.303  55.072  1.00  0.00     0.046 A 
HETATM   11  C   UNL     1       7.524  23.467  53.953  1.00  0.00     0.069 A 
HETATM   12  C   UNL     1       7.546  24.027  52.680  1.00  0.00     0.037 A 
HETATM   13  C   UNL     1       7.527  25.415  52.536  1.00  0.00     0.003 A 
HETATM   14  C   UNL     1       7.490  26.246  53.659  1.00  0.00     0.009 A 
BRANCH  11  15
HETATM   15  O   UNL     1       7.525  22.130  54.238  1.00  0.00    -0.352 OA
BRANCH  15  16
HETATM   16  C   UNL     1       8.722  21.420  53.923  1.00  0.00     0.171 C 
HETATM   17  C   UNL     1       8.386  20.400  52.850  1.00  0.00     0.034 C 
ENDBRANCH  15  16
ENDBRANCH  11  15
ENDBRANCH   7   9
ENDBRANCH   1   7
BRANCH   3  18
HETATM   18  C   UNL     1       7.392  30.210  58.566  1.00  0.00     0.059 A 
HETATM   19  C   UNL     1       6.485  31.263  58.394  1.00  0.00    -0.032 A 
HETATM   20  C   UNL     1       5.532  31.393  57.239  1.00  0.00     0.050 C 
HETATM   21  C   UNL     1       6.477  32.297  59.348  1.00  0.00     0.028 A 
HETATM   22  C   UNL     1       7.399  32.284  60.382  1.00  0.00     0.117 A 
HETATM   23  N   UNL     1       8.331  31.327  60.533  1.00  0.00    -0.271 NA
HETATM   24  C   UNL     1       8.303  30.324  59.626  1.00  0.00     0.146 A 
ENDBRANCH   3  18
TORSDOF 5
ENDMDL
MODEL 7
REMARK VINA RESULT:      -7.4      3.607      7.265
REMARK  5 active torsions:
REMARK  status: ('A' for Active; 'I' for Inactive)
REMARK    1  A    between atoms: C_2  and  O_3 
REMARK    2  A    between atoms: O_3  and  C_4 
REMARK    3  A    between atoms: C_6  and  C_7 
REMARK    4  A    between atoms: C_7  and  N_8 
REMARK       I    between atoms: N_8  and  C_9 
REMARK       I    between atoms: C_9  and  N_10 
REMARK    5  A    between atoms: N_10  and  C_11 
ROOT
HETATM    1  N   UNL     1       6.715  25.587  51.712  1.00  0.00    -0.335 N 
HETATM    2  C   UNL     1       7.500  24.647  52.306  1.00  0.00     0.321 C 
HETATM    3  N   UNL     1       6.847  23.635  52.951  1.00  0.00    -0.307 N 
HETATM    4  O   UNL     1       8.716  24.793  52.227  1.00  0.00    -0.247 OA
HETATM    5  H   UNL     1       7.273  26.345  51.339  1.00  0.00     0.165 HD
HETATM    6  H   UNL     1       5.945  23.901  53.310  1.00  0.00     0.170 HD
ENDROOT
BRANCH   1   7
HETATM    7  C   UNL     1       5.269  25.782  51.710  1.00  0.00     0.115 C 
HETATM    8  C   UNL     1       4.823  26.169  50.297  1.00  0.00     0.037 C 
BRANCH   7   9
HETATM    9  C   UNL     1       4.895  26.771  52.804  1.00  0.00    -0.033 A 
HETATM   10  C   UNL     1       5.278  26.496  54.130  1.00  0.00     0.046 A 
HETATM   11  C   UNL     1       5.015  27.386  55.175  1.00  0.00     0.069 A 
HETATM   12  C   UNL     1       4.321  28.563  54.913  1.00  0.00     0.037 A 
HETATM   13  C   UNL     1       3.925  28.855  53.608  1.00  0.00     0.003 A 
HETATM   14  C   UNL     1       4.217  27.974  52.561  1.00  0.00     0.009 A 
BRANCH  11  15
HETATM   15  O   UNL     1       5.472  26.983  56.398  1.00  0.00    -0.352 OA
BRANCH  15  16
HETATM   16  C   UNL     1       6.375  27.871  57.057  1.00  0.00     0.171 C 
HETATM   17  C   UNL     1       7.719  27.172  57.156  1.00  0.00     0.034 C 
ENDBRANCH  15  16
ENDBRANCH  11  15
ENDBRANCH   7   9
ENDBRANCH   1   7
BRANCH   3  18
HETATM   18  C   UNL     1       7.448  22.543  53.625  1.00  0.00     0.059 A 
HETATM   19  C   UNL     1       7.734  22.466  54.995  1.00  0.00    -0.032 A 
HETATM   20  C   UNL     1       7.533  23.584  55.977  1.00  0.00     0.050 C 
HETATM   21  C   UNL     1       8.279  21.268  55.493  1.00  0.00     0.028 A 
HETATM   22  C   UNL     1       8.579  20.235  54.621  1.00  0.00     0.117 A 
HETATM   23  N   UNL     1       8.387  20.306  53.292  1.00  0.00    -0.271 NA
HETATM   24  C   UNL     1       7.831  21.452  52.834  1.00  0.00     0.146 A 
ENDBRANCH   3  18
TORSDOF 5
ENDMDL
MODEL 8
REMARK VINA RESULT:      -7.4      1.831      2.362
REMARK  5 active torsions:
REMARK  status: ('A' for Active; 'I' for Inactive)
REMARK    1  A    between atoms: C_2  and  O_3 
REMARK    2  A    between atoms: O_3  and  C_4 
REMARK    3  A    between atoms: C_6  and  C_7 
REMARK    4  A    between atoms: C_7  and  N_8 
REMARK       I    between atoms: N_8  and  C_9 
REMARK       I    between atoms: C_9  and  N_10 
REMARK    5  A    between atoms: N_10  and  C_11 
ROOT
HETATM    1  N   UNL     1       7.887  26.911  55.580  1.00  0.00    -0.335 N 
HETATM    2  C   UNL     1       7.608  28.185  55.972  1.00  0.00     0.321 C 
HETATM    3  N   UNL     1       6.760  28.317  57.035  1.00  0.00    -0.307 N 
HETATM    4  O   UNL     1       8.123  29.099  55.335  1.00  0.00    -0.247 OA
HETATM    5  H   UNL     1       8.444  26.904  54.734  1.00  0.00     0.165 HD
HETATM    6  H   UNL     1       6.102  27.562  57.123  1.00  0.00     0.170 HD
ENDROOT
BRANCH   1   7
HETATM    7  C   UNL     1       7.367  25.623  56.027  1.00  0.00     0.115 C 
HETATM    8  C   UNL     1       8.022  25.262  57.363  1.00  0.00     0.037 C 
BRANCH   7   9
HETATM    9  C   UNL     1       7.544  24.598  54.917  1.00  0.00    -0.033 A 
HETATM   10  C   UNL     1       7.510  23.229  55.242  1.00  0.00     0.046 A 
HETATM   11  C   UNL     1       7.611  22.235  54.265  1.00  0.00     0.069 A 
HETATM   12  C   UNL     1       7.789  22.599  52.934  1.00  0.00     0.037 A 
HETATM   13  C   UNL     1       7.831  23.950  52.588  1.00  0.00     0.003 A 
HETATM   14  C   UNL     1       7.700  24.940  53.566  1.00  0.00     0.009 A 
BRANCH  11  15
HETATM   15  O   UNL     1       7.538  20.956  54.741  1.00  0.00    -0.352 OA
BRANCH  15  16
HETATM   16  C   UNL     1       8.779  20.271  54.897  1.00  0.00     0.171 C 
HETATM   17  C   UNL     1       9.158  20.331  56.366  1.00  0.00     0.034 C 
ENDBRANCH  15  16
ENDBRANCH  11  15
ENDBRANCH   7   9
ENDBRANCH   1   7
BRANCH   3  18
HETATM   18  C   UNL     1       6.339  29.534  57.626  1.00  0.00     0.059 A 
HETATM   19  C   UNL     1       7.116  30.384  58.425  1.00  0.00    -0.032 A 
HETATM   20  C   UNL     1       8.520  30.093  58.873  1.00  0.00     0.050 C 
HETATM   21  C   UNL     1       6.539  31.586  58.873  1.00  0.00     0.028 A 
HETATM   22  C   UNL     1       5.215  31.866  58.576  1.00  0.00     0.117 A 
HETATM   23  N   UNL     1       4.421  31.037  57.875  1.00  0.00    -0.271 NA
HETATM   24  C   UNL     1       5.001  29.901  57.423  1.00  0.00     0.146 A 
ENDBRANCH   3  18
TORSDOF 5
ENDMDL
MODEL 9
REMARK VINA RESULT:      -7.3      3.169      4.157
REMARK  5 active torsions:
REMARK  status: ('A' for Active; 'I' for Inactive)
REMARK    1  A    between atoms: C_2  and  O_3 
REMARK    2  A    between atoms: O_3  and  C_4 
REMARK    3  A    between atoms: C_6  and  C_7 
REMARK    4  A    between atoms: C_7  and  N_8 
REMARK       I    between atoms: N_8  and  C_9 
REMARK       I    between atoms: C_9  and  N_10 
REMARK    5  A    between atoms: N_10  and  C_11 
ROOT
HETATM    1  N   UNL     1       6.317  27.053  55.845  1.00  0.00    -0.335 N 
HETATM    2  C   UNL     1       5.879  28.337  55.718  1.00  0.00     0.321 C 
HETATM    3  N   UNL     1       4.546  28.498  55.469  1.00  0.00    -0.307 N 
HETATM    4  O   UNL     1       6.712  29.231  55.822  1.00  0.00    -0.247 OA
HETATM    5  H   UNL     1       7.324  27.019  55.935  1.00  0.00     0.165 HD
HETATM    6  H   UNL     1       4.132  27.728  54.972  1.00  0.00     0.170 HD
ENDROOT
BRANCH   1   7
HETATM    7  C   UNL     1       5.636  25.775  55.668  1.00  0.00     0.115 C 
HETATM    8  C   UNL     1       5.191  25.257  57.038  1.00  0.00     0.037 C 
BRANCH   7   9
HETATM    9  C   UNL     1       6.533  24.835  54.876  1.00  0.00    -0.033 A 
HETATM   10  C   UNL     1       7.455  24.028  55.569  1.00  0.00     0.046 A 
HETATM   11  C   UNL     1       8.270  23.104  54.909  1.00  0.00     0.069 A 
HETATM   12  C   UNL     1       8.202  23.000  53.523  1.00  0.00     0.037 A 
HETATM   13  C   UNL     1       7.300  23.793  52.814  1.00  0.00     0.003 A 
HETATM   14  C   UNL     1       6.467  24.694  53.482  1.00  0.00     0.009 A 
BRANCH  11  15
HETATM   15  O   UNL     1       9.093  22.382  55.726  1.00  0.00    -0.352 OA
BRANCH  15  16
HETATM   16  C   UNL     1       9.128  20.974  55.500  1.00  0.00     0.171 C 
HETATM   17  C   UNL     1       7.903  20.369  56.161  1.00  0.00     0.034 C 
ENDBRANCH  15  16
ENDBRANCH  11  15
ENDBRANCH   7   9
ENDBRANCH   1   7
BRANCH   3  18
HETATM   18  C   UNL     1       3.864  29.730  55.315  1.00  0.00     0.059 A 
HETATM   19  C   UNL     1       3.671  30.431  54.116  1.00  0.00    -0.032 A 
HETATM   20  C   UNL     1       4.247  30.030  52.787  1.00  0.00     0.050 C 
HETATM   21  C   UNL     1       2.910  31.613  54.153  1.00  0.00     0.028 A 
HETATM   22  C   UNL     1       2.435  32.087  55.365  1.00  0.00     0.117 A 
HETATM   23  N   UNL     1       2.665  31.479  56.541  1.00  0.00    -0.271 NA
HETATM   24  C   UNL     1       3.370  30.325  56.484  1.00  0.00     0.146 A 
ENDBRANCH   3  18
TORSDOF 5
ENDMDL
MODEL 10
REMARK VINA RESULT:      -7.3      2.231      7.035
REMARK  5 active torsions:
REMARK  status: ('A' for Active; 'I' for Inactive)
REMARK    1  A    between atoms: C_2  and  O_3 
REMARK    2  A    between atoms: O_3  and  C_4 
REMARK    3  A    between atoms: C_6  and  C_7 
REMARK    4  A    between atoms: C_7  and  N_8 
REMARK       I    between atoms: N_8  and  C_9 
REMARK       I    between atoms: C_9  and  N_10 
REMARK    5  A    between atoms: N_10  and  C_11 
ROOT
HETATM    1  N   UNL     1       5.157  27.413  56.617  1.00  0.00    -0.335 N 
HETATM    2  C   UNL     1       5.522  26.101  56.589  1.00  0.00     0.321 C 
HETATM    3  N   UNL     1       6.587  25.787  55.794  1.00  0.00    -0.307 N 
HETATM    4  O   UNL     1       4.860  25.317  57.262  1.00  0.00    -0.247 OA
HETATM    5  H   UNL     1       4.309  27.545  57.153  1.00  0.00     0.165 HD
HETATM    6  H   UNL     1       6.697  26.402  55.005  1.00  0.00     0.170 HD
ENDROOT
BRANCH   1   7
HETATM    7  C   UNL     1       5.638  28.569  55.866  1.00  0.00     0.115 C 
HETATM    8  C   UNL     1       5.558  28.255  54.370  1.00  0.00     0.037 C 
BRANCH   7   9
HETATM    9  C   UNL     1       7.017  28.960  56.377  1.00  0.00    -0.033 A 
HETATM   10  C   UNL     1       7.179  29.253  57.745  1.00  0.00     0.046 A 
HETATM   11  C   UNL     1       8.427  29.566  58.290  1.00  0.00     0.069 A 
HETATM   12  C   UNL     1       9.540  29.631  57.459  1.00  0.00     0.037 A 
HETATM   13  C   UNL     1       9.404  29.351  56.100  1.00  0.00     0.003 A 
HETATM   14  C   UNL     1       8.158  29.009  55.564  1.00  0.00     0.009 A 
BRANCH  11  15
HETATM   15  O   UNL     1       8.419  29.802  59.637  1.00  0.00    -0.352 OA
BRANCH  15  16
HETATM   16  C   UNL     1       9.267  30.853  60.097  1.00  0.00     0.171 C 
HETATM   17  C   UNL     1       9.143  30.917  61.609  1.00  0.00     0.034 C 
ENDBRANCH  15  16
ENDBRANCH  11  15
ENDBRANCH   7   9
ENDBRANCH   1   7
BRANCH   3  18
HETATM   18  C   UNL     1       7.153  24.500  55.619  1.00  0.00     0.059 A 
HETATM   19  C   UNL     1       7.136  23.736  54.444  1.00  0.00    -0.032 A 
HETATM   20  C   UNL     1       6.421  24.123  53.180  1.00  0.00     0.050 C 
HETATM   21  C   UNL     1       7.809  22.501  54.445  1.00  0.00     0.028 A 
HETATM   22  C   UNL     1       8.404  22.043  55.610  1.00  0.00     0.117 A 
HETATM   23  N   UNL     1       8.373  22.717  56.773  1.00  0.00    -0.271 NA
HETATM   24  C   UNL     1       7.751  23.919  56.745  1.00  0.00     0.146 A 
ENDBRANCH   3  18
TORSDOF 5
ENDMDL
