MODEL 1
REMARK VINA RESULT:      -8.4      0.000      0.000
REMARK  4 active torsions:
REMARK  status: ('A' for Active; 'I' for Inactive)
REMARK    1  A    between atoms: C_2  and  C_3 
REMARK    2  A    between atoms: C_8  and  C_9 
REMARK       I    between atoms: C_9  and  N_10 
REMARK    3  A    between atoms: C_20  and  C_21 
REMARK    4  A    between atoms: C_23  and  O_24 
ROOT
HETATM    1  C   UNL     1       7.551  26.600  57.457  1.00  0.00     0.258 C 
HETATM    2  N   UNL     1       7.734  25.875  56.274  1.00  0.00    -0.340 N 
HETATM    3  C   UNL     1       7.467  26.328  54.917  1.00  0.00     0.123 C 
HETATM    4  C   UNL     1       8.125  25.271  53.989  1.00  0.00     0.221 C 
HETATM    5  N   UNL     1       7.089  24.778  52.969  1.00  0.00    -0.064 N 
HETATM    6  H   UNL     1       7.526  24.090  52.341  1.00  0.00     0.280 HD
HETATM    7  C   UNL     1       5.841  24.136  53.558  1.00  0.00     0.236 C 
HETATM    8  C   UNL     1       5.298  25.052  54.645  1.00  0.00     0.034 C 
HETATM    9  C   UNL     1       5.967  26.436  54.553  1.00  0.00     0.014 C 
HETATM   10  C   UNL     1       5.864  26.922  53.090  1.00  0.00     0.034 C 
HETATM   11  C   UNL     1       6.624  25.979  52.146  1.00  0.00     0.236 C 
HETATM   12  C   UNL     1       8.830  24.228  54.902  1.00  0.00     0.070 C 
HETATM   13  C   UNL     1       8.801  24.887  56.291  1.00  0.00     0.138 C 
HETATM   14  O   UNL     1       7.690  26.072  58.556  1.00  0.00    -0.267 OA
ENDROOT
BRANCH   1  15
HETATM   15  C   UNL     1       7.403  28.028  57.323  1.00  0.00     0.090 C 
HETATM   16  C   UNL     1       8.338  29.074  57.124  1.00  0.00     0.080 C 
HETATM   17  N   UNL     1       7.724  30.267  57.137  1.00  0.00    -0.132 NA
HETATM   18  O   UNL     1       6.373  30.002  57.177  1.00  0.00    -0.217 OA
HETATM   19  C   UNL     1       6.180  28.662  57.252  1.00  0.00     0.092 C 
HETATM   20  C   UNL     1       4.782  28.190  57.223  1.00  0.00     0.080 C 
BRANCH  16  21
HETATM   21  C   UNL     1       9.817  29.011  56.951  1.00  0.00     0.058 C 
HETATM   22  C   UNL     1      10.519  30.323  57.273  1.00  0.00     0.011 C 
ENDBRANCH  16  21
ENDBRANCH   1  15
BRANCH  12  23
HETATM   23  C   UNL     1       8.390  22.782  54.839  1.00  0.00    -0.048 A 
HETATM   24  C   UNL     1       8.600  22.059  53.648  1.00  0.00     0.044 A 
HETATM   25  C   UNL     1       8.178  20.736  53.548  1.00  0.00     0.066 A 
HETATM   26  C   UNL     1       7.554  20.103  54.613  1.00  0.00     0.036 A 
HETATM   27  C   UNL     1       7.371  20.791  55.808  1.00  0.00     0.003 A 
HETATM   28  C   UNL     1       7.786  22.120  55.923  1.00  0.00     0.008 A 
BRANCH  25  29
HETATM   29  O   UNL     1       8.350  20.025  52.400  1.00  0.00    -0.361 OA
HETATM   30  H   UNL     1       8.077  20.565  51.640  1.00  0.00     0.217 HD
ENDBRANCH  25  29
ENDBRANCH  12  23
TORSDOF 4
ENDMDL
MODEL 2
REMARK VINA RESULT:      -8.3      0.563      2.029
REMARK  4 active torsions:
REMARK  status: ('A' for Active; 'I' for Inactive)
REMARK    1  A    between atoms: C_2  and  C_3 
REMARK    2  A    between atoms: C_8  and  C_9 
REMARK       I    between atoms: C_9  and  N_10 
REMARK    3  A    between atoms: C_20  and  C_21 
REMARK    4  A    between atoms: C_23  and  O_24 
ROOT
HETATM    1  C   UNL     1       7.456  26.728  57.209  1.00  0.00     0.258 C 
HETATM    2  N   UNL     1       7.641  25.968  56.049  1.00  0.00    -0.340 N 
HETATM    3  C   UNL     1       7.348  26.369  54.681  1.00  0.00     0.123 C 
HETATM    4  C   UNL     1       8.020  25.297  53.780  1.00  0.00     0.221 C 
HETATM    5  N   UNL     1       6.983  24.746  52.790  1.00  0.00    -0.064 N 
HETATM    6  H   UNL     1       7.429  24.048  52.180  1.00  0.00     0.280 HD
HETATM    7  C   UNL     1       5.758  24.095  53.416  1.00  0.00     0.236 C 
HETATM    8  C   UNL     1       5.206  25.035  54.479  1.00  0.00     0.034 C 
HETATM    9  C   UNL     1       5.841  26.430  54.333  1.00  0.00     0.014 C 
HETATM   10  C   UNL     1       5.710  26.864  52.856  1.00  0.00     0.034 C 
HETATM   11  C   UNL     1       6.481  25.908  51.934  1.00  0.00     0.236 C 
HETATM   12  C   UNL     1       8.760  24.302  54.718  1.00  0.00     0.070 C 
HETATM   13  C   UNL     1       8.732  25.006  56.085  1.00  0.00     0.138 C 
HETATM   14  O   UNL     1       7.620  26.240  58.323  1.00  0.00    -0.267 OA
ENDROOT
BRANCH   1  15
HETATM   15  C   UNL     1       7.272  28.146  57.030  1.00  0.00     0.090 C 
HETATM   16  C   UNL     1       6.116  28.963  56.976  1.00  0.00     0.080 C 
HETATM   17  N   UNL     1       6.448  30.237  56.715  1.00  0.00    -0.132 NA
HETATM   18  O   UNL     1       7.823  30.292  56.760  1.00  0.00    -0.217 OA
HETATM   19  C   UNL     1       8.315  29.049  56.985  1.00  0.00     0.092 C 
HETATM   20  C   UNL     1       9.778  28.932  57.145  1.00  0.00     0.080 C 
BRANCH  16  21
HETATM   21  C   UNL     1       4.679  28.595  57.129  1.00  0.00     0.058 C 
HETATM   22  C   UNL     1       3.808  29.076  55.978  1.00  0.00     0.011 C 
ENDBRANCH  16  21
ENDBRANCH   1  15
BRANCH  12  23
HETATM   23  C   UNL     1       8.354  22.845  54.708  1.00  0.00    -0.048 A 
HETATM   24  C   UNL     1       8.570  22.087  53.542  1.00  0.00     0.044 A 
HETATM   25  C   UNL     1       8.178  20.751  53.491  1.00  0.00     0.066 A 
HETATM   26  C   UNL     1       7.579  20.141  54.582  1.00  0.00     0.036 A 
HETATM   27  C   UNL     1       7.390  20.865  55.755  1.00  0.00     0.003 A 
HETATM   28  C   UNL     1       7.775  22.206  55.820  1.00  0.00     0.008 A 
BRANCH  25  29
HETATM   29  O   UNL     1       8.358  20.006  52.366  1.00  0.00    -0.361 OA
HETATM   30  H   UNL     1       8.637  20.582  51.635  1.00  0.00     0.217 HD
ENDBRANCH  25  29
ENDBRANCH  12  23
TORSDOF 4
ENDMDL
MODEL 3
REMARK VINA RESULT:      -7.9      4.312      6.741
REMARK  4 active torsions:
REMARK  status: ('A' for Active; 'I' for Inactive)
REMARK    1  A    between atoms: C_2  and  C_3 
REMARK    2  A    between atoms: C_8  and  C_9 
REMARK       I    between atoms: C_9  and  N_10 
REMARK    3  A    between atoms: C_20  and  C_21 
REMARK    4  A    between atoms: C_23  and  O_24 
ROOT
HETATM    1  C   UNL     1       4.946  28.222  49.661  1.00  0.00     0.258 C 
HETATM    2  N   UNL     1       4.923  27.543  50.884  1.00  0.00    -0.340 N 
HETATM    3  C   UNL     1       4.363  28.018  52.141  1.00  0.00     0.123 C 
HETATM    4  C   UNL     1       4.322  26.777  53.073  1.00  0.00     0.221 C 
HETATM    5  N   UNL     1       5.019  27.118  54.399  1.00  0.00    -0.064 N 
HETATM    6  H   UNL     1       4.980  26.303  55.026  1.00  0.00     0.280 HD
HETATM    7  C   UNL     1       6.476  27.541  54.286  1.00  0.00     0.236 C 
HETATM    8  C   UNL     1       6.583  28.606  53.204  1.00  0.00     0.034 C 
HETATM    9  C   UNL     1       5.183  29.130  52.837  1.00  0.00     0.014 C 
HETATM   10  C   UNL     1       4.456  29.512  54.145  1.00  0.00     0.034 C 
HETATM   11  C   UNL     1       4.266  28.281  55.045  1.00  0.00     0.236 C 
HETATM   12  C   UNL     1       4.837  25.562  52.250  1.00  0.00     0.070 C 
HETATM   13  C   UNL     1       4.867  26.092  50.807  1.00  0.00     0.138 C 
HETATM   14  O   UNL     1       5.559  27.776  48.696  1.00  0.00    -0.267 OA
ENDROOT
BRANCH   1  15
HETATM   15  C   UNL     1       4.053  29.345  49.528  1.00  0.00     0.090 C 
HETATM   16  C   UNL     1       2.643  29.442  49.422  1.00  0.00     0.080 C 
HETATM   17  N   UNL     1       2.268  30.718  49.241  1.00  0.00    -0.132 NA
HETATM   18  O   UNL     1       3.407  31.478  49.392  1.00  0.00    -0.217 OA
HETATM   19  C   UNL     1       4.468  30.660  49.601  1.00  0.00     0.092 C 
HETATM   20  C   UNL     1       5.766  31.310  49.865  1.00  0.00     0.080 C 
BRANCH  16  21
HETATM   21  C   UNL     1       1.609  28.369  49.450  1.00  0.00     0.058 C 
HETATM   22  C   UNL     1       1.527  27.575  48.154  1.00  0.00     0.011 C 
ENDBRANCH  16  21
ENDBRANCH   1  15
BRANCH  12  23
HETATM   23  C   UNL     1       6.074  24.830  52.719  1.00  0.00    -0.048 A 
HETATM   24  C   UNL     1       6.015  24.093  53.919  1.00  0.00     0.044 A 
HETATM   25  C   UNL     1       7.146  23.434  54.393  1.00  0.00     0.066 A 
HETATM   26  C   UNL     1       8.344  23.480  53.697  1.00  0.00     0.036 A 
HETATM   27  C   UNL     1       8.411  24.173  52.492  1.00  0.00     0.003 A 
HETATM   28  C   UNL     1       7.286  24.842  52.005  1.00  0.00     0.008 A 
BRANCH  25  29
HETATM   29  O   UNL     1       7.117  22.735  55.560  1.00  0.00    -0.361 OA
HETATM   30  H   UNL     1       8.023  22.619  55.893  1.00  0.00     0.217 HD
ENDBRANCH  25  29
ENDBRANCH  12  23
TORSDOF 4
ENDMDL
MODEL 4
REMARK VINA RESULT:      -7.8      4.301      6.324
REMARK  4 active torsions:
REMARK  status: ('A' for Active; 'I' for Inactive)
REMARK    1  A    between atoms: C_2  and  C_3 
REMARK    2  A    between atoms: C_8  and  C_9 
REMARK       I    between atoms: C_9  and  N_10 
REMARK    3  A    between atoms: C_20  and  C_21 
REMARK    4  A    between atoms: C_23  and  O_24 
ROOT
HETATM    1  C   UNL     1       4.846  28.112  49.834  1.00  0.00     0.258 C 
HETATM    2  N   UNL     1       4.872  27.447  51.065  1.00  0.00    -0.340 N 
HETATM    3  C   UNL     1       4.365  27.939  52.339  1.00  0.00     0.123 C 
HETATM    4  C   UNL     1       4.360  26.708  53.286  1.00  0.00     0.221 C 
HETATM    5  N   UNL     1       5.111  27.061  54.578  1.00  0.00    -0.064 N 
HETATM    6  H   UNL     1       5.096  26.253  55.215  1.00  0.00     0.280 HD
HETATM    7  C   UNL     1       6.565  27.477  54.400  1.00  0.00     0.236 C 
HETATM    8  C   UNL     1       6.630  28.529  53.302  1.00  0.00     0.034 C 
HETATM    9  C   UNL     1       5.218  29.055  52.987  1.00  0.00     0.014 C 
HETATM   10  C   UNL     1       4.547  29.454  54.321  1.00  0.00     0.034 C 
HETATM   11  C   UNL     1       4.391  28.234  55.241  1.00  0.00     0.236 C 
HETATM   12  C   UNL     1       4.835  25.482  52.456  1.00  0.00     0.070 C 
HETATM   13  C   UNL     1       4.807  25.996  51.007  1.00  0.00     0.138 C 
HETATM   14  O   UNL     1       5.416  27.653  48.850  1.00  0.00    -0.267 OA
ENDROOT
BRANCH   1  15
HETATM   15  C   UNL     1       3.952  29.238  49.727  1.00  0.00     0.090 C 
HETATM   16  C   UNL     1       4.147  30.634  49.872  1.00  0.00     0.080 C 
HETATM   17  N   UNL     1       2.983  31.290  49.751  1.00  0.00    -0.132 NA
HETATM   18  O   UNL     1       2.053  30.352  49.362  1.00  0.00    -0.217 OA
HETATM   19  C   UNL     1       2.640  29.131  49.312  1.00  0.00     0.092 C 
HETATM   20  C   UNL     1       1.805  28.012  48.833  1.00  0.00     0.080 C 
BRANCH  16  21
HETATM   21  C   UNL     1       5.395  31.398  50.160  1.00  0.00     0.058 C 
HETATM   22  C   UNL     1       5.924  32.163  48.956  1.00  0.00     0.011 C 
ENDBRANCH  16  21
ENDBRANCH   1  15
BRANCH  12  23
HETATM   23  C   UNL     1       6.088  24.750  52.882  1.00  0.00    -0.048 A 
HETATM   24  C   UNL     1       6.072  24.016  54.084  1.00  0.00     0.044 A 
HETATM   25  C   UNL     1       7.219  23.357  54.518  1.00  0.00     0.066 A 
HETATM   26  C   UNL     1       8.391  23.401  53.779  1.00  0.00     0.036 A 
HETATM   27  C   UNL     1       8.415  24.092  52.571  1.00  0.00     0.003 A 
HETATM   28  C   UNL     1       7.273  24.760  52.124  1.00  0.00     0.008 A 
BRANCH  25  29
HETATM   29  O   UNL     1       7.232  22.660  55.687  1.00  0.00    -0.361 OA
HETATM   30  H   UNL     1       6.754  23.160  56.370  1.00  0.00     0.217 HD
ENDBRANCH  25  29
ENDBRANCH  12  23
TORSDOF 4
ENDMDL
MODEL 5
REMARK VINA RESULT:      -7.7      2.202      3.628
REMARK  4 active torsions:
REMARK  status: ('A' for Active; 'I' for Inactive)
REMARK    1  A    between atoms: C_2  and  C_3 
REMARK    2  A    between atoms: C_8  and  C_9 
REMARK       I    between atoms: C_9  and  N_10 
REMARK    3  A    between atoms: C_20  and  C_21 
REMARK    4  A    between atoms: C_23  and  O_24 
ROOT
HETATM    1  C   UNL     1       7.122  28.626  57.476  1.00  0.00     0.258 C 
HETATM    2  N   UNL     1       7.109  28.268  56.123  1.00  0.00    -0.340 N 
HETATM    3  C   UNL     1       6.463  28.982  55.032  1.00  0.00     0.123 C 
HETATM    4  C   UNL     1       7.014  28.340  53.730  1.00  0.00     0.221 C 
HETATM    5  N   UNL     1       5.838  27.922  52.835  1.00  0.00    -0.064 N 
HETATM    6  H   UNL     1       6.199  27.510  51.964  1.00  0.00     0.280 HD
HETATM    7  C   UNL     1       4.869  26.921  53.449  1.00  0.00     0.236 C 
HETATM    8  C   UNL     1       4.486  27.414  54.837  1.00  0.00     0.034 C 
HETATM    9  C   UNL     1       4.919  28.880  55.016  1.00  0.00     0.014 C 
HETATM   10  C   UNL     1       4.400  29.684  53.803  1.00  0.00     0.034 C 
HETATM   11  C   UNL     1       5.029  29.174  52.498  1.00  0.00     0.236 C 
HETATM   12  C   UNL     1       8.053  27.262  54.150  1.00  0.00     0.070 C 
HETATM   13  C   UNL     1       8.273  27.537  55.647  1.00  0.00     0.138 C 
HETATM   14  O   UNL     1       7.593  27.880  58.328  1.00  0.00    -0.267 OA
ENDROOT
BRANCH   1  15
HETATM   15  C   UNL     1       6.754  29.984  57.788  1.00  0.00     0.090 C 
HETATM   16  C   UNL     1       5.500  30.634  57.906  1.00  0.00     0.080 C 
HETATM   17  N   UNL     1       5.665  31.944  58.143  1.00  0.00    -0.132 NA
HETATM   18  O   UNL     1       7.015  32.130  58.346  1.00  0.00    -0.217 OA
HETATM   19  C   UNL     1       7.661  30.951  58.169  1.00  0.00     0.092 C 
HETATM   20  C   UNL     1       9.115  30.946  58.427  1.00  0.00     0.080 C 
BRANCH  16  21
HETATM   21  C   UNL     1       4.122  30.080  57.772  1.00  0.00     0.058 C 
HETATM   22  C   UNL     1       3.145  31.045  57.115  1.00  0.00     0.011 C 
ENDBRANCH  16  21
ENDBRANCH   1  15
BRANCH  12  23
HETATM   23  C   UNL     1       7.812  25.820  53.763  1.00  0.00    -0.048 A 
HETATM   24  C   UNL     1       7.541  24.881  54.777  1.00  0.00     0.044 A 
HETATM   25  C   UNL     1       7.345  23.540  54.455  1.00  0.00     0.066 A 
HETATM   26  C   UNL     1       7.403  23.105  53.140  1.00  0.00     0.036 A 
HETATM   27  C   UNL     1       7.634  24.025  52.122  1.00  0.00     0.003 A 
HETATM   28  C   UNL     1       7.835  25.373  52.429  1.00  0.00     0.008 A 
BRANCH  25  29
HETATM   29  O   UNL     1       7.104  22.611  55.421  1.00  0.00    -0.361 OA
HETATM   30  H   UNL     1       7.593  21.796  55.217  1.00  0.00     0.217 HD
ENDBRANCH  25  29
ENDBRANCH  12  23
TORSDOF 4
ENDMDL
MODEL 6
REMARK VINA RESULT:      -7.6      2.907      7.519
REMARK  4 active torsions:
REMARK  status: ('A' for Active; 'I' for Inactive)
REMARK    1  A    between atoms: C_2  and  C_3 
REMARK    2  A    between atoms: C_8  and  C_9 
REMARK       I    between atoms: C_9  and  N_10 
REMARK    3  A    between atoms: C_20  and  C_21 
REMARK    4  A    between atoms: C_23  and  O_24 
ROOT
HETATM    1  C   UNL     1       7.336  28.009  54.143  1.00  0.00     0.258 C 
HETATM    2  N   UNL     1       7.085  28.437  55.451  1.00  0.00    -0.340 N 
HETATM    3  C   UNL     1       5.785  28.635  56.075  1.00  0.00     0.123 C 
HETATM    4  C   UNL     1       6.073  28.805  57.592  1.00  0.00     0.221 C 
HETATM    5  N   UNL     1       5.404  30.093  58.093  1.00  0.00    -0.064 N 
HETATM    6  H   UNL     1       5.579  30.201  59.101  1.00  0.00     0.280 HD
HETATM    7  C   UNL     1       5.854  31.376  57.409  1.00  0.00     0.236 C 
HETATM    8  C   UNL     1       5.802  31.160  55.903  1.00  0.00     0.034 C 
HETATM    9  C   UNL     1       5.011  29.879  55.579  1.00  0.00     0.014 C 
HETATM   10  C   UNL     1       3.667  29.940  56.340  1.00  0.00     0.034 C 
HETATM   11  C   UNL     1       3.899  29.968  57.858  1.00  0.00     0.236 C 
HETATM   12  C   UNL     1       7.605  28.632  57.794  1.00  0.00     0.070 C 
HETATM   13  C   UNL     1       8.087  28.078  56.442  1.00  0.00     0.138 C 
HETATM   14  O   UNL     1       8.473  27.999  53.684  1.00  0.00    -0.267 OA
ENDROOT
BRANCH   1  15
HETATM   15  C   UNL     1       6.239  27.389  53.444  1.00  0.00     0.090 C 
HETATM   16  C   UNL     1       5.553  26.163  53.631  1.00  0.00     0.080 C 
HETATM   17  N   UNL     1       4.635  25.982  52.670  1.00  0.00    -0.132 NA
HETATM   18  O   UNL     1       4.597  27.155  51.949  1.00  0.00    -0.217 OA
HETATM   19  C   UNL     1       5.531  28.010  52.435  1.00  0.00     0.092 C 
HETATM   20  C   UNL     1       5.578  29.356  51.831  1.00  0.00     0.080 C 
BRANCH  16  21
HETATM   21  C   UNL     1       5.744  25.112  54.671  1.00  0.00     0.058 C 
HETATM   22  C   UNL     1       6.848  24.121  54.332  1.00  0.00     0.011 C 
ENDBRANCH  16  21
ENDBRANCH   1  15
BRANCH  12  23
HETATM   23  C   UNL     1       8.404  29.780  58.369  1.00  0.00    -0.048 A 
HETATM   24  C   UNL     1       8.127  30.211  59.681  1.00  0.00     0.044 A 
HETATM   25  C   UNL     1       8.823  31.287  60.227  1.00  0.00     0.066 A 
HETATM   26  C   UNL     1       9.802  31.947  59.500  1.00  0.00     0.036 A 
HETATM   27  C   UNL     1      10.114  31.512  58.215  1.00  0.00     0.003 A 
HETATM   28  C   UNL     1       9.422  30.436  57.653  1.00  0.00     0.008 A 
BRANCH  25  29
HETATM   29  O   UNL     1       8.557  31.734  61.484  1.00  0.00    -0.361 OA
HETATM   30  H   UNL     1       7.618  31.976  61.552  1.00  0.00     0.217 HD
ENDBRANCH  25  29
ENDBRANCH  12  23
TORSDOF 4
ENDMDL
MODEL 7
REMARK VINA RESULT:      -7.4      3.204      7.603
REMARK  4 active torsions:
REMARK  status: ('A' for Active; 'I' for Inactive)
REMARK    1  A    between atoms: C_2  and  C_3 
REMARK    2  A    between atoms: C_8  and  C_9 
REMARK       I    between atoms: C_9  and  N_10 
REMARK    3  A    between atoms: C_20  and  C_21 
REMARK    4  A    between atoms: C_23  and  O_24 
ROOT
HETATM    1  C   UNL     1       7.280  28.195  54.231  1.00  0.00     0.258 C 
HETATM    2  N   UNL     1       7.033  28.612  55.544  1.00  0.00    -0.340 N 
HETATM    3  C   UNL     1       5.735  28.840  56.162  1.00  0.00     0.123 C 
HETATM    4  C   UNL     1       6.017  28.979  57.683  1.00  0.00     0.221 C 
HETATM    5  N   UNL     1       5.383  30.280  58.198  1.00  0.00    -0.064 N 
HETATM    6  H   UNL     1       5.554  30.368  59.209  1.00  0.00     0.280 HD
HETATM    7  C   UNL     1       5.875  31.558  57.536  1.00  0.00     0.236 C 
HETATM    8  C   UNL     1       5.827  31.365  56.027  1.00  0.00     0.034 C 
HETATM    9  C   UNL     1       5.001  30.113  55.679  1.00  0.00     0.014 C 
HETATM   10  C   UNL     1       3.655  30.204  56.432  1.00  0.00     0.034 C 
HETATM   11  C   UNL     1       3.876  30.203  57.952  1.00  0.00     0.236 C 
HETATM   12  C   UNL     1       7.542  28.758  57.893  1.00  0.00     0.070 C 
HETATM   13  C   UNL     1       8.016  28.209  56.536  1.00  0.00     0.138 C 
HETATM   14  O   UNL     1       8.420  28.158  53.779  1.00  0.00    -0.267 OA
ENDROOT
BRANCH   1  15
HETATM   15  C   UNL     1       6.170  27.619  53.516  1.00  0.00     0.090 C 
HETATM   16  C   UNL     1       5.364  28.095  52.453  1.00  0.00     0.080 C 
HETATM   17  N   UNL     1       4.389  27.218  52.167  1.00  0.00    -0.132 NA
HETATM   18  O   UNL     1       4.649  26.096  52.923  1.00  0.00    -0.217 OA
HETATM   19  C   UNL     1       5.735  26.322  53.703  1.00  0.00     0.092 C 
HETATM   20  C   UNL     1       6.209  25.192  54.525  1.00  0.00     0.080 C 
BRANCH  16  21
HETATM   21  C   UNL     1       5.443  29.376  51.695  1.00  0.00     0.058 C 
HETATM   22  C   UNL     1       4.311  30.340  52.019  1.00  0.00     0.011 C 
ENDBRANCH  16  21
ENDBRANCH   1  15
BRANCH  12  23
HETATM   23  C   UNL     1       8.370  29.874  58.489  1.00  0.00    -0.048 A 
HETATM   24  C   UNL     1       8.130  30.261  59.822  1.00  0.00     0.044 A 
HETATM   25  C   UNL     1       8.854  31.306  60.390  1.00  0.00     0.066 A 
HETATM   26  C   UNL     1       9.826  31.979  59.664  1.00  0.00     0.036 A 
HETATM   27  C   UNL     1      10.101  31.586  58.358  1.00  0.00     0.003 A 
HETATM   28  C   UNL     1       9.381  30.541  57.774  1.00  0.00     0.008 A 
BRANCH  25  29
HETATM   29  O   UNL     1       8.624  31.711  61.668  1.00  0.00    -0.361 OA
HETATM   30  H   UNL     1       7.691  31.964  61.767  1.00  0.00     0.217 HD
ENDBRANCH  25  29
ENDBRANCH  12  23
TORSDOF 4
ENDMDL
MODEL 8
REMARK VINA RESULT:      -7.4     11.521     13.588
REMARK  4 active torsions:
REMARK  status: ('A' for Active; 'I' for Inactive)
REMARK    1  A    between atoms: C_2  and  C_3 
REMARK    2  A    between atoms: C_8  and  C_9 
REMARK       I    between atoms: C_9  and  N_10 
REMARK    3  A    between atoms: C_20  and  C_21 
REMARK    4  A    between atoms: C_23  and  O_24 
ROOT
HETATM    1  C   UNL     1       4.519  33.657  63.754  1.00  0.00     0.258 C 
HETATM    2  N   UNL     1       4.641  34.576  62.706  1.00  0.00    -0.340 N 
HETATM    3  C   UNL     1       5.376  35.832  62.722  1.00  0.00     0.123 C 
HETATM    4  C   UNL     1       5.445  36.292  61.241  1.00  0.00     0.221 C 
HETATM    5  N   UNL     1       4.935  37.737  61.136  1.00  0.00    -0.064 N 
HETATM    6  H   UNL     1       4.994  38.052  60.158  1.00  0.00     0.280 HD
HETATM    7  C   UNL     1       3.505  37.965  61.605  1.00  0.00     0.236 C 
HETATM    8  C   UNL     1       3.341  37.315  62.972  1.00  0.00     0.034 C 
HETATM    9  C   UNL     1       4.719  36.957  63.557  1.00  0.00     0.014 C 
HETATM   10  C   UNL     1       5.619  38.209  63.464  1.00  0.00     0.034 C 
HETATM   11  C   UNL     1       5.833  38.622  61.999  1.00  0.00     0.236 C 
HETATM   12  C   UNL     1       4.758  35.193  60.382  1.00  0.00     0.070 C 
HETATM   13  C   UNL     1       4.592  34.020  61.363  1.00  0.00     0.138 C 
HETATM   14  O   UNL     1       3.768  32.690  63.669  1.00  0.00    -0.267 OA
ENDROOT
BRANCH   1  15
HETATM   15  C   UNL     1       5.462  33.782  64.837  1.00  0.00     0.090 C 
HETATM   16  C   UNL     1       5.308  34.095  66.210  1.00  0.00     0.080 C 
HETATM   17  N   UNL     1       6.502  34.168  66.817  1.00  0.00    -0.132 NA
HETATM   18  O   UNL     1       7.429  33.744  65.890  1.00  0.00    -0.217 OA
HETATM   19  C   UNL     1       6.802  33.479  64.718  1.00  0.00     0.092 C 
HETATM   20  C   UNL     1       7.636  32.932  63.628  1.00  0.00     0.080 C 
BRANCH  16  21
HETATM   21  C   UNL     1       4.068  34.367  66.994  1.00  0.00     0.058 C 
HETATM   22  C   UNL     1       3.376  35.663  66.597  1.00  0.00     0.011 C 
ENDBRANCH  16  21
ENDBRANCH   1  15
BRANCH  12  23
HETATM   23  C   UNL     1       3.539  35.557  59.563  1.00  0.00    -0.048 A 
HETATM   24  C   UNL     1       2.264  35.219  60.055  1.00  0.00     0.044 A 
HETATM   25  C   UNL     1       1.125  35.512  59.310  1.00  0.00     0.066 A 
HETATM   26  C   UNL     1       1.219  36.146  58.081  1.00  0.00     0.036 A 
HETATM   27  C   UNL     1       2.468  36.520  57.596  1.00  0.00     0.003 A 
HETATM   28  C   UNL     1       3.621  36.230  58.331  1.00  0.00     0.008 A 
BRANCH  25  29
HETATM   29  O   UNL     1      -0.116  35.174  59.756  1.00  0.00    -0.361 OA
HETATM   30  H   UNL     1      -0.747  35.204  59.017  1.00  0.00     0.217 HD
ENDBRANCH  25  29
ENDBRANCH  12  23
TORSDOF 4
ENDMDL
MODEL 9
REMARK VINA RESULT:      -7.4      5.057      7.898
REMARK  4 active torsions:
REMARK  status: ('A' for Active; 'I' for Inactive)
REMARK    1  A    between atoms: C_2  and  C_3 
REMARK    2  A    between atoms: C_8  and  C_9 
REMARK       I    between atoms: C_9  and  N_10 
REMARK    3  A    between atoms: C_20  and  C_21 
REMARK    4  A    between atoms: C_23  and  O_24 
ROOT
HETATM    1  C   UNL     1       5.038  25.878  52.018  1.00  0.00     0.258 C 
HETATM    2  N   UNL     1       4.801  26.929  51.124  1.00  0.00    -0.340 N 
HETATM    3  C   UNL     1       5.121  28.335  51.318  1.00  0.00     0.123 C 
HETATM    4  C   UNL     1       4.942  28.999  49.926  1.00  0.00     0.221 C 
HETATM    5  N   UNL     1       4.012  30.214  50.061  1.00  0.00    -0.064 N 
HETATM    6  H   UNL     1       3.903  30.666  49.143  1.00  0.00     0.280 HD
HETATM    7  C   UNL     1       2.618  29.918  50.594  1.00  0.00     0.236 C 
HETATM    8  C   UNL     1       2.755  29.063  51.846  1.00  0.00     0.034 C 
HETATM    9  C   UNL     1       4.216  29.071  52.334  1.00  0.00     0.014 C 
HETATM   10  C   UNL     1       4.686  30.540  52.416  1.00  0.00     0.034 C 
HETATM   11  C   UNL     1       4.659  31.202  51.030  1.00  0.00     0.236 C 
HETATM   12  C   UNL     1       4.560  27.874  48.922  1.00  0.00     0.070 C 
HETATM   13  C   UNL     1       4.827  26.581  49.712  1.00  0.00     0.138 C 
HETATM   14  O   UNL     1       4.611  24.749  51.801  1.00  0.00    -0.267 OA
ENDROOT
BRANCH   1  15
HETATM   15  C   UNL     1       5.973  26.135  53.084  1.00  0.00     0.090 C 
HETATM   16  C   UNL     1       5.824  26.702  54.374  1.00  0.00     0.080 C 
HETATM   17  N   UNL     1       7.013  26.805  54.987  1.00  0.00    -0.132 NA
HETATM   18  O   UNL     1       7.919  26.158  54.176  1.00  0.00    -0.217 OA
HETATM   19  C   UNL     1       7.291  25.726  53.056  1.00  0.00     0.092 C 
HETATM   20  C   UNL     1       8.097  24.937  52.104  1.00  0.00     0.080 C 
BRANCH  16  21
HETATM   21  C   UNL     1       4.597  27.194  55.064  1.00  0.00     0.058 C 
HETATM   22  C   UNL     1       4.889  28.187  56.179  1.00  0.00     0.011 C 
ENDBRANCH  16  21
ENDBRANCH   1  15
BRANCH  12  23
HETATM   23  C   UNL     1       3.233  27.954  48.200  1.00  0.00    -0.048 A 
HETATM   24  C   UNL     1       3.025  28.995  47.275  1.00  0.00     0.044 A 
HETATM   25  C   UNL     1       1.803  29.114  46.618  1.00  0.00     0.066 A 
HETATM   26  C   UNL     1       0.776  28.212  46.851  1.00  0.00     0.036 A 
HETATM   27  C   UNL     1       0.977  27.157  47.735  1.00  0.00     0.003 A 
HETATM   28  C   UNL     1       2.196  27.026  48.404  1.00  0.00     0.008 A 
BRANCH  25  29
HETATM   29  O   UNL     1       1.571  30.125  45.737  1.00  0.00    -0.361 OA
HETATM   30  H   UNL     1       2.136  30.885  45.958  1.00  0.00     0.217 HD
ENDBRANCH  25  29
ENDBRANCH  12  23
TORSDOF 4
ENDMDL
MODEL 10
REMARK VINA RESULT:      -7.2     10.532     13.608
REMARK  4 active torsions:
REMARK  status: ('A' for Active; 'I' for Inactive)
REMARK    1  A    between atoms: C_2  and  C_3 
REMARK    2  A    between atoms: C_8  and  C_9 
REMARK       I    between atoms: C_9  and  N_10 
REMARK    3  A    between atoms: C_20  and  C_21 
REMARK    4  A    between atoms: C_23  and  O_24 
ROOT
HETATM    1  C   UNL     1       3.673  37.625  61.064  1.00  0.00     0.258 C 
HETATM    2  N   UNL     1       4.374  36.592  61.695  1.00  0.00    -0.340 N 
HETATM    3  C   UNL     1       4.876  35.370  61.083  1.00  0.00     0.123 C 
HETATM    4  C   UNL     1       5.828  34.739  62.135  1.00  0.00     0.221 C 
HETATM    5  N   UNL     1       5.422  33.276  62.371  1.00  0.00    -0.064 N 
HETATM    6  H   UNL     1       6.061  32.849  63.056  1.00  0.00     0.280 HD
HETATM    7  C   UNL     1       4.001  33.062  62.872  1.00  0.00     0.236 C 
HETATM    8  C   UNL     1       3.055  33.864  61.990  1.00  0.00     0.034 C 
HETATM    9  C   UNL     1       3.787  34.333  60.719  1.00  0.00     0.014 C 
HETATM   10  C   UNL     1       4.486  33.108  60.089  1.00  0.00     0.034 C 
HETATM   11  C   UNL     1       5.543  32.530  61.043  1.00  0.00     0.236 C 
HETATM   12  C   UNL     1       5.880  35.705  63.352  1.00  0.00     0.070 C 
HETATM   13  C   UNL     1       5.199  36.981  62.828  1.00  0.00     0.138 C 
HETATM   14  O   UNL     1       3.188  38.550  61.706  1.00  0.00    -0.267 OA
ENDROOT
BRANCH   1  15
HETATM   15  C   UNL     1       3.731  37.659  59.624  1.00  0.00     0.090 C 
HETATM   16  C   UNL     1       2.858  37.176  58.618  1.00  0.00     0.080 C 
HETATM   17  N   UNL     1       3.380  37.380  57.399  1.00  0.00    -0.132 NA
HETATM   18  O   UNL     1       4.511  38.142  57.589  1.00  0.00    -0.217 OA
HETATM   19  C   UNL     1       4.701  38.340  58.917  1.00  0.00     0.092 C 
HETATM   20  C   UNL     1       5.830  39.209  59.304  1.00  0.00     0.080 C 
BRANCH  16  21
HETATM   21  C   UNL     1       1.542  36.486  58.748  1.00  0.00     0.058 C 
HETATM   22  C   UNL     1       1.198  35.613  57.550  1.00  0.00     0.011 C 
ENDBRANCH  16  21
ENDBRANCH   1  15
BRANCH  12  23
HETATM   23  C   UNL     1       5.418  35.208  64.704  1.00  0.00    -0.048 A 
HETATM   24  C   UNL     1       4.139  35.577  65.163  1.00  0.00     0.044 A 
HETATM   25  C   UNL     1       3.697  35.161  66.416  1.00  0.00     0.066 A 
HETATM   26  C   UNL     1       4.498  34.374  67.231  1.00  0.00     0.036 A 
HETATM   27  C   UNL     1       5.750  33.971  66.778  1.00  0.00     0.003 A 
HETATM   28  C   UNL     1       6.208  34.383  65.524  1.00  0.00     0.008 A 
BRANCH  25  29
HETATM   29  O   UNL     1       2.474  35.523  66.889  1.00  0.00    -0.361 OA
HETATM   30  H   UNL     1       2.066  36.162  66.281  1.00  0.00     0.217 HD
ENDBRANCH  25  29
ENDBRANCH  12  23
TORSDOF 4
ENDMDL
