MODEL 1
REMARK VINA RESULT:      -9.8      0.000      0.000
REMARK  7 active torsions:
REMARK  status: ('A' for Active; 'I' for Inactive)
REMARK    1  A    between atoms: C_4  and  N_5 
REMARK    2  A    between atoms: N_8  and  C_10 
REMARK    3  A    between atoms: C_10  and  C_11 
REMARK    4  A    between atoms: C_11  and  C_12 
REMARK    5  A    between atoms: C_12  and  C_13 
REMARK    6  A    between atoms: C_13  and  N_14 
REMARK       I    between atoms: N_14  and  C_15 
REMARK    7  A    between atoms: C_15  and  C_16 
ROOT
HETATM    1  C   UNL     1       4.611  29.340  54.330  1.00  0.00     0.123 C 
ENDROOT
BRANCH   1   2
HETATM    2  C   UNL     1       4.679  29.469  52.807  1.00  0.00     0.021 C 
BRANCH   2   3
HETATM    3  C   UNL     1       4.344  28.142  52.121  1.00  0.00     0.029 C 
BRANCH   3   4
HETATM    4  C   UNL     1       4.419  26.979  53.108  1.00  0.00     0.235 C 
BRANCH   4   5
HETATM    5  N   UNL     1       5.840  26.482  53.239  1.00  0.00    -0.068 N 
HETATM    6  C   UNL     1       6.093  25.866  54.625  1.00  0.00     0.254 C 
HETATM    7  C   UNL     1       7.579  25.476  54.779  1.00  0.00     0.150 C 
HETATM    8  N   UNL     1       8.001  24.584  53.681  1.00  0.00    -0.378 N 
HETATM    9  C   UNL     1       7.739  25.095  52.327  1.00  0.00     0.150 C 
HETATM   10  C   UNL     1       6.256  25.482  52.150  1.00  0.00     0.254 C 
HETATM   11  H   UNL     1       6.470  27.290  53.164  1.00  0.00     0.280 HD
BRANCH   8  12
HETATM   12  C   UNL     1       8.080  23.215  53.936  1.00  0.00     0.030 A 
HETATM   13  C   UNL     1       8.242  22.680  55.225  1.00  0.00     0.036 A 
HETATM   14  C   UNL     1       8.298  21.293  55.459  1.00  0.00    -0.060 A 
HETATM   15  C   UNL     1       8.431  20.752  56.855  1.00  0.00     0.048 C 
HETATM   16  C   UNL     1       8.165  20.412  54.386  1.00  0.00     0.007 A 
HETATM   17  C   UNL     1       7.988  20.910  53.102  1.00  0.00     0.003 A 
HETATM   18  C   UNL     1       7.942  22.291  52.886  1.00  0.00     0.029 A 
ENDBRANCH   8  12
ENDBRANCH   4   5
ENDBRANCH   3   4
ENDBRANCH   2   3
ENDBRANCH   1   2
BRANCH   1  19
HETATM   19  N   UNL     1       5.891  29.585  54.958  1.00  0.00    -0.357 N 
HETATM   20  C   UNL     1       6.106  29.274  56.288  1.00  0.00     0.254 C 
HETATM   21  O   UNL     1       5.262  28.692  56.965  1.00  0.00    -0.268 OA
HETATM   22  H   UNL     1       6.639  29.957  54.389  1.00  0.00     0.162 HD
BRANCH  20  23
HETATM   23  C   UNL     1       7.425  29.640  56.870  1.00  0.00     0.064 A 
HETATM   24  C   UNL     1       7.488  30.429  58.005  1.00  0.00     0.077 A 
HETATM   25  C   UNL     1       8.704  30.795  58.590  1.00  0.00     0.065 A 
HETATM   26  N   UNL     1       6.469  31.000  58.772  1.00  0.00    -0.330 N 
HETATM   27  N   UNL     1       8.431  31.582  59.708  1.00  0.00    -0.331 N 
HETATM   28  C   UNL     1       9.916  30.407  58.073  1.00  0.00     0.074 A 
HETATM   29  C   UNL     1       7.043  31.721  59.821  1.00  0.00     0.176 A 
HETATM   30  H   UNL     1       9.105  32.008  60.328  1.00  0.00     0.168 HD
HETATM   31  S   UNL     1       6.238  32.578  60.974  1.00  0.00    -0.041 SA
HETATM   32  C   UNL     1       9.867  29.627  56.920  1.00  0.00     0.119 A 
HETATM   33  F   UNL     1      11.014  29.226  56.356  1.00  0.00    -0.206 F 
HETATM   34  C   UNL     1       8.651  29.245  56.315  1.00  0.00     0.061 A 
HETATM   35  H   UNL     1       5.481  30.938  58.552  1.00  0.00     0.168 HD
ENDBRANCH  20  23
ENDBRANCH   1  19
TORSDOF 7
ENDMDL
MODEL 2
REMARK VINA RESULT:      -9.6      3.563      5.502
REMARK  7 active torsions:
REMARK  status: ('A' for Active; 'I' for Inactive)
REMARK    1  A    between atoms: C_4  and  N_5 
REMARK    2  A    between atoms: N_8  and  C_10 
REMARK    3  A    between atoms: C_10  and  C_11 
REMARK    4  A    between atoms: C_11  and  C_12 
REMARK    5  A    between atoms: C_12  and  C_13 
REMARK    6  A    between atoms: C_13  and  N_14 
REMARK       I    between atoms: N_14  and  C_15 
REMARK    7  A    between atoms: C_15  and  C_16 
ROOT
HETATM    1  C   UNL     1       9.211  30.604  59.832  1.00  0.00     0.123 C 
ENDROOT
BRANCH   1   2
HETATM    2  C   UNL     1       8.681  30.647  58.398  1.00  0.00     0.021 C 
BRANCH   2   3
HETATM    3  C   UNL     1       7.722  29.485  58.125  1.00  0.00     0.029 C 
BRANCH   3   4
HETATM    4  C   UNL     1       8.407  28.387  57.314  1.00  0.00     0.235 C 
BRANCH   4   5
HETATM    5  N   UNL     1       7.410  27.332  56.896  1.00  0.00    -0.068 N 
HETATM    6  C   UNL     1       7.367  27.176  55.367  1.00  0.00     0.254 C 
HETATM    7  C   UNL     1       6.258  26.182  54.956  1.00  0.00     0.150 C 
HETATM    8  N   UNL     1       6.433  24.890  55.649  1.00  0.00    -0.378 N 
HETATM    9  C   UNL     1       6.533  24.977  57.114  1.00  0.00     0.150 C 
HETATM   10  C   UNL     1       7.642  25.959  57.544  1.00  0.00     0.254 C 
HETATM   11  H   UNL     1       6.474  27.646  57.179  1.00  0.00     0.280 HD
BRANCH   8  12
HETATM   12  C   UNL     1       7.015  23.838  54.944  1.00  0.00     0.030 A 
HETATM   13  C   UNL     1       7.447  22.647  55.555  1.00  0.00     0.036 A 
HETATM   14  C   UNL     1       8.013  21.590  54.819  1.00  0.00    -0.060 A 
HETATM   15  C   UNL     1       8.427  20.314  55.496  1.00  0.00     0.048 C 
HETATM   16  C   UNL     1       8.132  21.707  53.434  1.00  0.00     0.007 A 
HETATM   17  C   UNL     1       7.701  22.864  52.799  1.00  0.00     0.003 A 
HETATM   18  C   UNL     1       7.148  23.909  53.547  1.00  0.00     0.029 A 
ENDBRANCH   8  12
ENDBRANCH   4   5
ENDBRANCH   3   4
ENDBRANCH   2   3
ENDBRANCH   1   2
BRANCH   1  19
HETATM   19  N   UNL     1       8.476  31.485  60.714  1.00  0.00    -0.357 N 
HETATM   20  C   UNL     1       8.317  31.186  62.054  1.00  0.00     0.254 C 
HETATM   21  O   UNL     1       8.868  30.219  62.574  1.00  0.00    -0.268 OA
HETATM   22  H   UNL     1       8.111  32.347  60.332  1.00  0.00     0.162 HD
BRANCH  20  23
HETATM   23  C   UNL     1       7.475  32.105  62.864  1.00  0.00     0.064 A 
HETATM   24  C   UNL     1       6.196  32.428  62.442  1.00  0.00     0.077 A 
HETATM   25  C   UNL     1       5.367  33.285  63.172  1.00  0.00     0.065 A 
HETATM   26  N   UNL     1       5.487  32.028  61.307  1.00  0.00    -0.330 N 
HETATM   27  N   UNL     1       4.156  33.405  62.491  1.00  0.00    -0.331 N 
HETATM   28  C   UNL     1       5.766  33.871  64.348  1.00  0.00     0.074 A 
HETATM   29  C   UNL     1       4.229  32.634  61.324  1.00  0.00     0.176 A 
HETATM   30  H   UNL     1       3.362  33.967  62.760  1.00  0.00     0.168 HD
HETATM   31  S   UNL     1       3.051  32.474  60.185  1.00  0.00    -0.041 SA
HETATM   32  C   UNL     1       7.057  33.569  64.774  1.00  0.00     0.119 A 
HETATM   33  F   UNL     1       7.514  34.119  65.907  1.00  0.00    -0.206 F 
HETATM   34  C   UNL     1       7.909  32.707  64.054  1.00  0.00     0.061 A 
HETATM   35  H   UNL     1       5.863  31.440  60.573  1.00  0.00     0.168 HD
ENDBRANCH  20  23
ENDBRANCH   1  19
TORSDOF 7
ENDMDL
MODEL 3
REMARK VINA RESULT:      -9.5      2.798      4.434
REMARK  7 active torsions:
REMARK  status: ('A' for Active; 'I' for Inactive)
REMARK    1  A    between atoms: C_4  and  N_5 
REMARK    2  A    between atoms: N_8  and  C_10 
REMARK    3  A    between atoms: C_10  and  C_11 
REMARK    4  A    between atoms: C_11  and  C_12 
REMARK    5  A    between atoms: C_12  and  C_13 
REMARK    6  A    between atoms: C_13  and  N_14 
REMARK       I    between atoms: N_14  and  C_15 
REMARK    7  A    between atoms: C_15  and  C_16 
ROOT
HETATM    1  C   UNL     1       8.133  29.697  58.130  1.00  0.00     0.123 C 
ENDROOT
BRANCH   1   2
HETATM    2  C   UNL     1       7.338  28.409  57.916  1.00  0.00     0.021 C 
BRANCH   2   3
HETATM    3  C   UNL     1       6.106  28.654  57.041  1.00  0.00     0.029 C 
BRANCH   3   4
HETATM    4  C   UNL     1       6.511  29.109  55.639  1.00  0.00     0.235 C 
BRANCH   4   5
HETATM    5  N   UNL     1       6.360  27.979  54.648  1.00  0.00    -0.068 N 
HETATM    6  C   UNL     1       7.723  27.369  54.281  1.00  0.00     0.254 C 
HETATM    7  C   UNL     1       7.558  26.300  53.179  1.00  0.00     0.150 C 
HETATM    8  N   UNL     1       6.576  25.277  53.588  1.00  0.00    -0.378 N 
HETATM    9  C   UNL     1       5.264  25.801  54.001  1.00  0.00     0.150 C 
HETATM   10  C   UNL     1       5.408  26.865  55.109  1.00  0.00     0.254 C 
HETATM   11  H   UNL     1       5.974  28.366  53.778  1.00  0.00     0.280 HD
BRANCH   8  12
HETATM   12  C   UNL     1       7.053  24.060  54.071  1.00  0.00     0.030 A 
HETATM   13  C   UNL     1       7.373  22.973  53.239  1.00  0.00     0.036 A 
HETATM   14  C   UNL     1       7.874  21.760  53.749  1.00  0.00    -0.060 A 
HETATM   15  C   UNL     1       8.245  20.632  52.829  1.00  0.00     0.048 C 
HETATM   16  C   UNL     1       8.086  21.631  55.121  1.00  0.00     0.007 A 
HETATM   17  C   UNL     1       7.794  22.692  55.968  1.00  0.00     0.003 A 
HETATM   18  C   UNL     1       7.290  23.887  55.446  1.00  0.00     0.029 A 
ENDBRANCH   8  12
ENDBRANCH   4   5
ENDBRANCH   3   4
ENDBRANCH   2   3
ENDBRANCH   1   2
BRANCH   1  19
HETATM   19  N   UNL     1       7.765  30.371  59.356  1.00  0.00    -0.357 N 
HETATM   20  C   UNL     1       7.163  31.616  59.334  1.00  0.00     0.254 C 
HETATM   21  O   UNL     1       6.830  32.160  58.285  1.00  0.00    -0.268 OA
HETATM   22  H   UNL     1       7.924  29.892  60.232  1.00  0.00     0.162 HD
BRANCH  20  23
HETATM   23  C   UNL     1       6.898  32.268  60.644  1.00  0.00     0.064 A 
HETATM   24  C   UNL     1       5.754  33.027  60.824  1.00  0.00     0.077 A 
HETATM   25  C   UNL     1       5.460  33.655  62.038  1.00  0.00     0.065 A 
HETATM   26  N   UNL     1       4.716  33.327  59.938  1.00  0.00    -0.330 N 
HETATM   27  N   UNL     1       4.250  34.332  61.897  1.00  0.00    -0.331 N 
HETATM   28  C   UNL     1       6.290  33.571  63.129  1.00  0.00     0.074 A 
HETATM   29  C   UNL     1       3.787  34.140  60.590  1.00  0.00     0.176 A 
HETATM   30  H   UNL     1       3.783  34.891  62.597  1.00  0.00     0.168 HD
HETATM   31  S   UNL     1       2.405  34.760  59.943  1.00  0.00    -0.041 SA
HETATM   32  C   UNL     1       7.454  32.826  62.956  1.00  0.00     0.119 A 
HETATM   33  F   UNL     1       8.314  32.717  63.977  1.00  0.00    -0.206 F 
HETATM   34  C   UNL     1       7.768  32.184  61.741  1.00  0.00     0.061 A 
HETATM   35  H   UNL     1       4.689  33.040  58.966  1.00  0.00     0.168 HD
ENDBRANCH  20  23
ENDBRANCH   1  19
TORSDOF 7
ENDMDL
MODEL 4
REMARK VINA RESULT:      -9.5      3.446      4.904
REMARK  7 active torsions:
REMARK  status: ('A' for Active; 'I' for Inactive)
REMARK    1  A    between atoms: C_4  and  N_5 
REMARK    2  A    between atoms: N_8  and  C_10 
REMARK    3  A    between atoms: C_10  and  C_11 
REMARK    4  A    between atoms: C_11  and  C_12 
REMARK    5  A    between atoms: C_12  and  C_13 
REMARK    6  A    between atoms: C_13  and  N_14 
REMARK       I    between atoms: N_14  and  C_15 
REMARK    7  A    between atoms: C_15  and  C_16 
ROOT
HETATM    1  C   UNL     1       3.870  31.518  58.749  1.00  0.00     0.123 C 
ENDROOT
BRANCH   1   2
HETATM    2  C   UNL     1       4.299  30.643  57.570  1.00  0.00     0.021 C 
BRANCH   2   3
HETATM    3  C   UNL     1       5.695  30.056  57.791  1.00  0.00     0.029 C 
BRANCH   3   4
HETATM    4  C   UNL     1       6.163  29.274  56.564  1.00  0.00     0.235 C 
BRANCH   4   5
HETATM    5  N   UNL     1       6.353  27.814  56.903  1.00  0.00    -0.068 N 
HETATM    6  C   UNL     1       5.380  26.924  56.112  1.00  0.00     0.254 C 
HETATM    7  C   UNL     1       5.508  25.452  56.560  1.00  0.00     0.150 C 
HETATM    8  N   UNL     1       6.906  24.993  56.451  1.00  0.00    -0.378 N 
HETATM    9  C   UNL     1       7.895  25.832  57.146  1.00  0.00     0.150 C 
HETATM   10  C   UNL     1       7.789  27.307  56.703  1.00  0.00     0.254 C 
HETATM   11  H   UNL     1       6.120  27.683  57.895  1.00  0.00     0.280 HD
BRANCH   8  12
HETATM   12  C   UNL     1       7.262  24.219  55.348  1.00  0.00     0.030 A 
HETATM   13  C   UNL     1       7.450  22.827  55.412  1.00  0.00     0.036 A 
HETATM   14  C   UNL     1       7.789  22.064  54.279  1.00  0.00    -0.060 A 
HETATM   15  C   UNL     1       7.943  20.572  54.373  1.00  0.00     0.048 C 
HETATM   16  C   UNL     1       7.922  22.696  53.043  1.00  0.00     0.007 A 
HETATM   17  C   UNL     1       7.727  24.067  52.943  1.00  0.00     0.003 A 
HETATM   18  C   UNL     1       7.398  24.812  54.081  1.00  0.00     0.029 A 
ENDBRANCH   8  12
ENDBRANCH   4   5
ENDBRANCH   3   4
ENDBRANCH   2   3
ENDBRANCH   1   2
BRANCH   1  19
HETATM   19  N   UNL     1       4.936  31.701  59.711  1.00  0.00    -0.357 N 
HETATM   20  C   UNL     1       4.664  32.037  61.024  1.00  0.00     0.254 C 
HETATM   21  O   UNL     1       3.515  32.102  61.455  1.00  0.00    -0.268 OA
HETATM   22  H   UNL     1       5.887  31.539  59.407  1.00  0.00     0.162 HD
BRANCH  20  23
HETATM   23  C   UNL     1       5.824  32.288  61.918  1.00  0.00     0.064 A 
HETATM   24  C   UNL     1       5.633  32.874  63.158  1.00  0.00     0.077 A 
HETATM   25  C   UNL     1       6.693  33.125  64.035  1.00  0.00     0.065 A 
HETATM   26  N   UNL     1       4.463  33.316  63.782  1.00  0.00    -0.330 N 
HETATM   27  N   UNL     1       6.175  33.713  65.188  1.00  0.00    -0.331 N 
HETATM   28  C   UNL     1       7.994  32.818  63.722  1.00  0.00     0.074 A 
HETATM   29  C   UNL     1       4.790  33.844  65.033  1.00  0.00     0.176 A 
HETATM   30  H   UNL     1       6.695  34.023  65.996  1.00  0.00     0.168 HD
HETATM   31  S   UNL     1       3.743  34.500  66.121  1.00  0.00    -0.041 SA
HETATM   32  C   UNL     1       8.204  32.246  62.470  1.00  0.00     0.119 A 
HETATM   33  F   UNL     1       9.452  31.935  62.097  1.00  0.00    -0.206 F 
HETATM   34  C   UNL     1       7.149  31.982  61.572  1.00  0.00     0.061 A 
HETATM   35  H   UNL     1       3.544  33.300  63.355  1.00  0.00     0.168 HD
ENDBRANCH  20  23
ENDBRANCH   1  19
TORSDOF 7
ENDMDL
MODEL 5
REMARK VINA RESULT:      -9.4      2.380      3.552
REMARK  7 active torsions:
REMARK  status: ('A' for Active; 'I' for Inactive)
REMARK    1  A    between atoms: C_4  and  N_5 
REMARK    2  A    between atoms: N_8  and  C_10 
REMARK    3  A    between atoms: C_10  and  C_11 
REMARK    4  A    between atoms: C_11  and  C_12 
REMARK    5  A    between atoms: C_12  and  C_13 
REMARK    6  A    between atoms: C_13  and  N_14 
REMARK       I    between atoms: N_14  and  C_15 
REMARK    7  A    between atoms: C_15  and  C_16 
ROOT
HETATM    1  C   UNL     1       5.878  30.168  56.907  1.00  0.00     0.123 C 
ENDROOT
BRANCH   1   2
HETATM    2  C   UNL     1       4.840  29.045  56.912  1.00  0.00     0.021 C 
BRANCH   2   3
HETATM    3  C   UNL     1       4.564  28.536  55.495  1.00  0.00     0.029 C 
BRANCH   3   4
HETATM    4  C   UNL     1       5.777  28.746  54.590  1.00  0.00     0.235 C 
BRANCH   4   5
HETATM    5  N   UNL     1       5.980  27.554  53.685  1.00  0.00    -0.068 N 
HETATM    6  C   UNL     1       7.437  27.064  53.719  1.00  0.00     0.254 C 
HETATM    7  C   UNL     1       7.648  25.925  52.699  1.00  0.00     0.150 C 
HETATM    8  N   UNL     1       6.683  24.833  52.929  1.00  0.00    -0.378 N 
HETATM    9  C   UNL     1       5.271  25.245  52.958  1.00  0.00     0.150 C 
HETATM   10  C   UNL     1       5.037  26.377  53.979  1.00  0.00     0.254 C 
HETATM   11  H   UNL     1       5.799  27.852  52.718  1.00  0.00     0.280 HD
BRANCH   8  12
HETATM   12  C   UNL     1       7.120  23.698  53.610  1.00  0.00     0.030 A 
HETATM   13  C   UNL     1       7.621  22.556  52.961  1.00  0.00     0.036 A 
HETATM   14  C   UNL     1       8.076  21.429  53.673  1.00  0.00    -0.060 A 
HETATM   15  C   UNL     1       8.645  20.241  52.951  1.00  0.00     0.048 C 
HETATM   16  C   UNL     1       8.056  21.447  55.067  1.00  0.00     0.007 A 
HETATM   17  C   UNL     1       7.580  22.566  55.737  1.00  0.00     0.003 A 
HETATM   18  C   UNL     1       7.125  23.674  55.015  1.00  0.00     0.029 A 
ENDBRANCH   8  12
ENDBRANCH   4   5
ENDBRANCH   3   4
ENDBRANCH   2   3
ENDBRANCH   1   2
BRANCH   1  19
HETATM   19  N   UNL     1       6.357  30.476  58.237  1.00  0.00    -0.357 N 
HETATM   20  C   UNL     1       6.411  31.781  58.693  1.00  0.00     0.254 C 
HETATM   21  O   UNL     1       5.971  32.719  58.034  1.00  0.00    -0.268 OA
HETATM   22  H   UNL     1       6.617  29.708  58.841  1.00  0.00     0.162 HD
BRANCH  20  23
HETATM   23  C   UNL     1       6.997  32.009  60.040  1.00  0.00     0.064 A 
HETATM   24  C   UNL     1       6.213  32.518  61.062  1.00  0.00     0.077 A 
HETATM   25  C   UNL     1       6.718  32.744  62.346  1.00  0.00     0.065 A 
HETATM   26  N   UNL     1       4.867  32.895  61.071  1.00  0.00    -0.330 N 
HETATM   27  N   UNL     1       5.689  33.254  63.136  1.00  0.00    -0.331 N 
HETATM   28  C   UNL     1       8.026  32.488  62.677  1.00  0.00     0.074 A 
HETATM   29  C   UNL     1       4.537  33.359  62.346  1.00  0.00     0.176 A 
HETATM   30  H   UNL     1       5.749  33.530  64.105  1.00  0.00     0.168 HD
HETATM   31  S   UNL     1       3.069  33.927  62.831  1.00  0.00    -0.041 SA
HETATM   32  C   UNL     1       8.830  31.993  61.654  1.00  0.00     0.119 A 
HETATM   33  F   UNL     1      10.120  31.735  61.907  1.00  0.00    -0.206 F 
HETATM   34  C   UNL     1       8.341  31.755  60.354  1.00  0.00     0.061 A 
HETATM   35  H   UNL     1       4.261  32.882  60.258  1.00  0.00     0.168 HD
ENDBRANCH  20  23
ENDBRANCH   1  19
TORSDOF 7
ENDMDL
MODEL 6
REMARK VINA RESULT:      -9.4      2.457      3.350
REMARK  7 active torsions:
REMARK  status: ('A' for Active; 'I' for Inactive)
REMARK    1  A    between atoms: C_4  and  N_5 
REMARK    2  A    between atoms: N_8  and  C_10 
REMARK    3  A    between atoms: C_10  and  C_11 
REMARK    4  A    between atoms: C_11  and  C_12 
REMARK    5  A    between atoms: C_12  and  C_13 
REMARK    6  A    between atoms: C_13  and  N_14 
REMARK       I    between atoms: N_14  and  C_15 
REMARK    7  A    between atoms: C_15  and  C_16 
ROOT
HETATM    1  C   UNL     1       5.306  30.774  56.958  1.00  0.00     0.123 C 
ENDROOT
BRANCH   1   2
HETATM    2  C   UNL     1       5.652  29.552  56.106  1.00  0.00     0.021 C 
BRANCH   2   3
HETATM    3  C   UNL     1       4.450  28.616  55.962  1.00  0.00     0.029 C 
BRANCH   3   4
HETATM    4  C   UNL     1       4.769  27.225  56.509  1.00  0.00     0.235 C 
BRANCH   4   5
HETATM    5  N   UNL     1       6.091  26.731  55.971  1.00  0.00    -0.068 N 
HETATM    6  C   UNL     1       6.666  25.603  56.844  1.00  0.00     0.254 C 
HETATM    7  C   UNL     1       8.070  25.197  56.347  1.00  0.00     0.150 C 
HETATM    8  N   UNL     1       8.033  24.837  54.916  1.00  0.00    -0.378 N 
HETATM    9  C   UNL     1       7.447  25.856  54.032  1.00  0.00     0.150 C 
HETATM   10  C   UNL     1       6.038  26.269  54.507  1.00  0.00     0.254 C 
HETATM   11  H   UNL     1       6.766  27.504  56.020  1.00  0.00     0.280 HD
BRANCH   8  12
HETATM   12  C   UNL     1       8.013  23.485  54.576  1.00  0.00     0.030 A 
HETATM   13  C   UNL     1       8.082  22.451  55.526  1.00  0.00     0.036 A 
HETATM   14  C   UNL     1       8.039  21.093  55.159  1.00  0.00    -0.060 A 
HETATM   15  C   UNL     1       8.073  20.012  56.202  1.00  0.00     0.048 C 
HETATM   16  C   UNL     1       7.901  20.752  53.814  1.00  0.00     0.007 A 
HETATM   17  C   UNL     1       7.816  21.750  52.853  1.00  0.00     0.003 A 
HETATM   18  C   UNL     1       7.868  23.095  53.234  1.00  0.00     0.029 A 
ENDBRANCH   8  12
ENDBRANCH   4   5
ENDBRANCH   3   4
ENDBRANCH   2   3
ENDBRANCH   1   2
BRANCH   1  19
HETATM   19  N   UNL     1       5.903  30.711  58.275  1.00  0.00    -0.357 N 
HETATM   20  C   UNL     1       6.297  31.859  58.937  1.00  0.00     0.254 C 
HETATM   21  O   UNL     1       6.073  32.979  58.487  1.00  0.00    -0.268 OA
HETATM   22  H   UNL     1       5.992  29.805  58.716  1.00  0.00     0.162 HD
BRANCH  20  23
HETATM   23  C   UNL     1       6.978  31.690  60.248  1.00  0.00     0.064 A 
HETATM   24  C   UNL     1       6.439  32.258  61.390  1.00  0.00     0.077 A 
HETATM   25  C   UNL     1       7.042  32.123  62.644  1.00  0.00     0.065 A 
HETATM   26  N   UNL     1       5.286  33.028  61.563  1.00  0.00    -0.330 N 
HETATM   27  N   UNL     1       6.261  32.802  63.579  1.00  0.00    -0.331 N 
HETATM   28  C   UNL     1       8.211  31.428  62.827  1.00  0.00     0.074 A 
HETATM   29  C   UNL     1       5.172  33.375  62.910  1.00  0.00     0.176 A 
HETATM   30  H   UNL     1       6.444  32.897  64.567  1.00  0.00     0.168 HD
HETATM   31  S   UNL     1       3.983  34.290  63.588  1.00  0.00    -0.041 SA
HETATM   32  C   UNL     1       8.775  30.866  61.684  1.00  0.00     0.119 A 
HETATM   33  F   UNL     1       9.924  30.187  61.790  1.00  0.00    -0.206 F 
HETATM   34  C   UNL     1       8.183  30.989  60.410  1.00  0.00     0.061 A 
HETATM   35  H   UNL     1       4.675  33.324  60.810  1.00  0.00     0.168 HD
ENDBRANCH  20  23
ENDBRANCH   1  19
TORSDOF 7
ENDMDL
MODEL 7
REMARK VINA RESULT:      -9.3      3.220      4.952
REMARK  7 active torsions:
REMARK  status: ('A' for Active; 'I' for Inactive)
REMARK    1  A    between atoms: C_4  and  N_5 
REMARK    2  A    between atoms: N_8  and  C_10 
REMARK    3  A    between atoms: C_10  and  C_11 
REMARK    4  A    between atoms: C_11  and  C_12 
REMARK    5  A    between atoms: C_12  and  C_13 
REMARK    6  A    between atoms: C_13  and  N_14 
REMARK       I    between atoms: N_14  and  C_15 
REMARK    7  A    between atoms: C_15  and  C_16 
ROOT
HETATM    1  C   UNL     1       7.605  30.314  58.505  1.00  0.00     0.123 C 
ENDROOT
BRANCH   1   2
HETATM    2  C   UNL     1       9.053  29.929  58.199  1.00  0.00     0.021 C 
BRANCH   2   3
HETATM    3  C   UNL     1       9.123  28.772  57.200  1.00  0.00     0.029 C 
BRANCH   3   4
HETATM    4  C   UNL     1       7.967  28.838  56.203  1.00  0.00     0.235 C 
BRANCH   4   5
HETATM    5  N   UNL     1       7.158  27.563  56.239  1.00  0.00    -0.068 N 
HETATM    6  C   UNL     1       6.746  27.120  54.825  1.00  0.00     0.254 C 
HETATM    7  C   UNL     1       5.821  25.885  54.894  1.00  0.00     0.150 C 
HETATM    8  N   UNL     1       6.459  24.797  55.661  1.00  0.00    -0.378 N 
HETATM    9  C   UNL     1       6.923  25.171  57.006  1.00  0.00     0.150 C 
HETATM   10  C   UNL     1       7.857  26.398  56.957  1.00  0.00     0.254 C 
HETATM   11  H   UNL     1       6.286  27.751  56.747  1.00  0.00     0.280 HD
BRANCH   8  12
HETATM   12  C   UNL     1       7.054  23.753  54.954  1.00  0.00     0.030 A 
HETATM   13  C   UNL     1       7.482  22.559  55.559  1.00  0.00     0.036 A 
HETATM   14  C   UNL     1       8.061  21.510  54.820  1.00  0.00    -0.060 A 
HETATM   15  C   UNL     1       8.470  20.229  55.490  1.00  0.00     0.048 C 
HETATM   16  C   UNL     1       8.197  21.641  53.438  1.00  0.00     0.007 A 
HETATM   17  C   UNL     1       7.770  22.802  52.809  1.00  0.00     0.003 A 
HETATM   18  C   UNL     1       7.204  23.838  53.559  1.00  0.00     0.029 A 
ENDBRANCH   8  12
ENDBRANCH   4   5
ENDBRANCH   3   4
ENDBRANCH   2   3
ENDBRANCH   1   2
BRANCH   1  19
HETATM   19  N   UNL     1       7.485  31.061  59.738  1.00  0.00    -0.357 N 
HETATM   20  C   UNL     1       6.415  31.908  59.961  1.00  0.00     0.254 C 
HETATM   21  O   UNL     1       5.478  31.992  59.172  1.00  0.00    -0.268 OA
HETATM   22  H   UNL     1       8.187  30.919  60.452  1.00  0.00     0.162 HD
BRANCH  20  23
HETATM   23  C   UNL     1       6.421  32.697  61.220  1.00  0.00     0.064 A 
HETATM   24  C   UNL     1       5.564  33.775  61.368  1.00  0.00     0.077 A 
HETATM   25  C   UNL     1       5.531  34.544  62.536  1.00  0.00     0.065 A 
HETATM   26  N   UNL     1       4.621  34.312  60.489  1.00  0.00    -0.330 N 
HETATM   27  N   UNL     1       4.572  35.543  62.373  1.00  0.00    -0.331 N 
HETATM   28  C   UNL     1       6.350  34.290  63.608  1.00  0.00     0.074 A 
HETATM   29  C   UNL     1       4.009  35.410  61.098  1.00  0.00     0.176 A 
HETATM   30  H   UNL     1       4.328  36.263  63.037  1.00  0.00     0.168 HD
HETATM   31  S   UNL     1       2.845  36.371  60.439  1.00  0.00    -0.041 SA
HETATM   32  C   UNL     1       7.230  33.219  63.465  1.00  0.00     0.119 A 
HETATM   33  F   UNL     1       8.067  32.926  64.469  1.00  0.00    -0.206 F 
HETATM   34  C   UNL     1       7.279  32.430  62.298  1.00  0.00     0.061 A 
HETATM   35  H   UNL     1       4.463  33.981  59.544  1.00  0.00     0.168 HD
ENDBRANCH  20  23
ENDBRANCH   1  19
TORSDOF 7
ENDMDL
MODEL 8
REMARK VINA RESULT:      -9.0      4.241      6.056
REMARK  7 active torsions:
REMARK  status: ('A' for Active; 'I' for Inactive)
REMARK    1  A    between atoms: C_4  and  N_5 
REMARK    2  A    between atoms: N_8  and  C_10 
REMARK    3  A    between atoms: C_10  and  C_11 
REMARK    4  A    between atoms: C_11  and  C_12 
REMARK    5  A    between atoms: C_12  and  C_13 
REMARK    6  A    between atoms: C_13  and  N_14 
REMARK       I    between atoms: N_14  and  C_15 
REMARK    7  A    between atoms: C_15  and  C_16 
ROOT
HETATM    1  C   UNL     1       7.444  31.232  60.090  1.00  0.00     0.123 C 
ENDROOT
BRANCH   1   2
HETATM    2  C   UNL     1       7.657  31.039  58.588  1.00  0.00     0.021 C 
BRANCH   2   3
HETATM    3  C   UNL     1       8.097  29.609  58.267  1.00  0.00     0.029 C 
BRANCH   3   4
HETATM    4  C   UNL     1       7.536  29.150  56.922  1.00  0.00     0.235 C 
BRANCH   4   5
HETATM    5  N   UNL     1       7.034  27.728  57.011  1.00  0.00    -0.068 N 
HETATM    6  C   UNL     1       6.188  27.355  55.782  1.00  0.00     0.254 C 
HETATM    7  C   UNL     1       5.586  25.943  55.950  1.00  0.00     0.150 C 
HETATM    8  N   UNL     1       6.647  24.953  56.224  1.00  0.00    -0.378 N 
HETATM    9  C   UNL     1       7.525  25.278  57.358  1.00  0.00     0.150 C 
HETATM   10  C   UNL     1       8.143  26.684  57.204  1.00  0.00     0.254 C 
HETATM   11  H   UNL     1       6.409  27.660  57.823  1.00  0.00     0.280 HD
BRANCH   8  12
HETATM   12  C   UNL     1       7.089  24.152  55.172  1.00  0.00     0.030 A 
HETATM   13  C   UNL     1       7.396  22.788  55.320  1.00  0.00     0.036 A 
HETATM   14  C   UNL     1       7.821  21.994  54.237  1.00  0.00    -0.060 A 
HETATM   15  C   UNL     1       8.103  20.530  54.420  1.00  0.00     0.048 C 
HETATM   16  C   UNL     1       7.920  22.564  52.969  1.00  0.00     0.007 A 
HETATM   17  C   UNL     1       7.609  23.905  52.787  1.00  0.00     0.003 A 
HETATM   18  C   UNL     1       7.196  24.682  53.875  1.00  0.00     0.029 A 
ENDBRANCH   8  12
ENDBRANCH   4   5
ENDBRANCH   3   4
ENDBRANCH   2   3
ENDBRANCH   1   2
BRANCH   1  19
HETATM   19  N   UNL     1       6.198  31.906  60.384  1.00  0.00    -0.357 N 
HETATM   20  C   UNL     1       6.060  32.695  61.511  1.00  0.00     0.254 C 
HETATM   21  O   UNL     1       7.006  32.936  62.256  1.00  0.00    -0.268 OA
HETATM   22  H   UNL     1       5.438  31.815  59.723  1.00  0.00     0.162 HD
BRANCH  20  23
HETATM   23  C   UNL     1       4.718  33.278  61.776  1.00  0.00     0.064 A 
HETATM   24  C   UNL     1       4.357  33.632  63.065  1.00  0.00     0.077 A 
HETATM   25  C   UNL     1       3.108  34.187  63.361  1.00  0.00     0.065 A 
HETATM   26  N   UNL     1       5.065  33.535  64.265  1.00  0.00    -0.330 N 
HETATM   27  N   UNL     1       3.054  34.432  64.732  1.00  0.00    -0.331 N 
HETATM   28  C   UNL     1       2.154  34.409  62.398  1.00  0.00     0.074 A 
HETATM   29  C   UNL     1       4.264  34.019  65.302  1.00  0.00     0.176 A 
HETATM   30  H   UNL     1       2.276  34.816  65.249  1.00  0.00     0.168 HD
HETATM   31  S   UNL     1       4.667  34.088  66.897  1.00  0.00    -0.041 SA
HETATM   32  C   UNL     1       2.499  34.040  61.100  1.00  0.00     0.119 A 
HETATM   33  F   UNL     1       1.608  34.217  60.115  1.00  0.00    -0.206 F 
HETATM   34  C   UNL     1       3.752  33.481  60.779  1.00  0.00     0.061 A 
HETATM   35  H   UNL     1       5.987  33.123  64.356  1.00  0.00     0.168 HD
ENDBRANCH  20  23
ENDBRANCH   1  19
TORSDOF 7
ENDMDL
MODEL 9
REMARK VINA RESULT:      -8.7      3.439      4.980
REMARK  7 active torsions:
REMARK  status: ('A' for Active; 'I' for Inactive)
REMARK    1  A    between atoms: C_4  and  N_5 
REMARK    2  A    between atoms: N_8  and  C_10 
REMARK    3  A    between atoms: C_10  and  C_11 
REMARK    4  A    between atoms: C_11  and  C_12 
REMARK    5  A    between atoms: C_12  and  C_13 
REMARK    6  A    between atoms: C_13  and  N_14 
REMARK       I    between atoms: N_14  and  C_15 
REMARK    7  A    between atoms: C_15  and  C_16 
ROOT
HETATM    1  C   UNL     1       3.993  31.508  56.341  1.00  0.00     0.123 C 
ENDROOT
BRANCH   1   2
HETATM    2  C   UNL     1       3.893  29.989  56.186  1.00  0.00     0.021 C 
BRANCH   2   3
HETATM    3  C   UNL     1       5.266  29.364  55.926  1.00  0.00     0.029 C 
BRANCH   3   4
HETATM    4  C   UNL     1       6.009  29.108  57.235  1.00  0.00     0.235 C 
BRANCH   4   5
HETATM    5  N   UNL     1       6.212  27.627  57.452  1.00  0.00    -0.068 N 
HETATM    6  C   UNL     1       5.238  26.797  56.599  1.00  0.00     0.254 C 
HETATM    7  C   UNL     1       5.379  25.294  56.925  1.00  0.00     0.150 C 
HETATM    8  N   UNL     1       6.780  24.856  56.766  1.00  0.00    -0.378 N 
HETATM    9  C   UNL     1       7.769  25.643  57.519  1.00  0.00     0.150 C 
HETATM   10  C   UNL     1       7.649  27.148  57.199  1.00  0.00     0.254 C 
HETATM   11  H   UNL     1       5.989  27.413  58.432  1.00  0.00     0.280 HD
BRANCH   8  12
HETATM   12  C   UNL     1       7.131  24.177  55.600  1.00  0.00     0.030 A 
HETATM   13  C   UNL     1       7.259  24.807  54.350  1.00  0.00     0.036 A 
HETATM   14  C   UNL     1       7.635  24.103  53.191  1.00  0.00    -0.060 A 
HETATM   15  C   UNL     1       7.804  24.814  51.878  1.00  0.00     0.048 C 
HETATM   16  C   UNL     1       7.914  22.740  53.279  1.00  0.00     0.007 A 
HETATM   17  C   UNL     1       7.810  22.091  54.502  1.00  0.00     0.003 A 
HETATM   18  C   UNL     1       7.428  22.804  55.643  1.00  0.00     0.029 A 
ENDBRANCH   8  12
ENDBRANCH   4   5
ENDBRANCH   3   4
ENDBRANCH   2   3
ENDBRANCH   1   2
BRANCH   1  19
HETATM   19  N   UNL     1       3.752  31.936  57.702  1.00  0.00    -0.357 N 
HETATM   20  C   UNL     1       4.769  32.460  58.478  1.00  0.00     0.254 C 
HETATM   21  O   UNL     1       5.890  32.674  58.023  1.00  0.00    -0.268 OA
HETATM   22  H   UNL     1       2.808  31.877  58.061  1.00  0.00     0.162 HD
BRANCH  20  23
HETATM   23  C   UNL     1       4.447  32.793  59.891  1.00  0.00     0.064 A 
HETATM   24  C   UNL     1       5.324  32.444  60.904  1.00  0.00     0.077 A 
HETATM   25  C   UNL     1       5.066  32.740  62.246  1.00  0.00     0.065 A 
HETATM   26  N   UNL     1       6.552  31.779  60.853  1.00  0.00    -0.330 N 
HETATM   27  N   UNL     1       6.130  32.263  63.010  1.00  0.00    -0.331 N 
HETATM   28  C   UNL     1       3.924  33.386  62.650  1.00  0.00     0.074 A 
HETATM   29  C   UNL     1       7.053  31.656  62.150  1.00  0.00     0.176 A 
HETATM   30  H   UNL     1       6.226  32.314  64.014  1.00  0.00     0.168 HD
HETATM   31  S   UNL     1       8.465  30.930  62.588  1.00  0.00    -0.041 SA
HETATM   32  C   UNL     1       3.024  33.726  61.643  1.00  0.00     0.119 A 
HETATM   33  F   UNL     1       1.883  34.346  61.971  1.00  0.00    -0.206 F 
HETATM   34  C   UNL     1       3.266  33.439  60.284  1.00  0.00     0.061 A 
HETATM   35  H   UNL     1       6.967  31.405  60.007  1.00  0.00     0.168 HD
ENDBRANCH  20  23
ENDBRANCH   1  19
TORSDOF 7
ENDMDL
MODEL 10
REMARK VINA RESULT:      -8.7      4.015      6.297
REMARK  7 active torsions:
REMARK  status: ('A' for Active; 'I' for Inactive)
REMARK    1  A    between atoms: C_4  and  N_5 
REMARK    2  A    between atoms: N_8  and  C_10 
REMARK    3  A    between atoms: C_10  and  C_11 
REMARK    4  A    between atoms: C_11  and  C_12 
REMARK    5  A    between atoms: C_12  and  C_13 
REMARK    6  A    between atoms: C_13  and  N_14 
REMARK       I    between atoms: N_14  and  C_15 
REMARK    7  A    between atoms: C_15  and  C_16 
ROOT
HETATM    1  C   UNL     1       5.253  30.182  55.327  1.00  0.00     0.123 C 
ENDROOT
BRANCH   1   2
HETATM    2  C   UNL     1       4.622  29.444  56.509  1.00  0.00     0.021 C 
BRANCH   2   3
HETATM    3  C   UNL     1       4.453  27.952  56.208  1.00  0.00     0.029 C 
BRANCH   3   4
HETATM    4  C   UNL     1       5.230  27.099  57.209  1.00  0.00     0.235 C 
BRANCH   4   5
HETATM    5  N   UNL     1       6.475  26.530  56.571  1.00  0.00    -0.068 N 
HETATM    6  C   UNL     1       7.199  25.562  57.521  1.00  0.00     0.254 C 
HETATM    7  C   UNL     1       8.530  25.086  56.897  1.00  0.00     0.150 C 
HETATM    8  N   UNL     1       8.299  24.498  55.563  1.00  0.00    -0.378 N 
HETATM    9  C   UNL     1       7.565  25.357  54.621  1.00  0.00     0.150 C 
HETATM   10  C   UNL     1       6.227  25.835  55.224  1.00  0.00     0.254 C 
HETATM   11  H   UNL     1       7.128  27.303  56.397  1.00  0.00     0.280 HD
BRANCH   8  12
HETATM   12  C   UNL     1       8.269  23.109  55.451  1.00  0.00     0.030 A 
HETATM   13  C   UNL     1       8.263  22.436  54.217  1.00  0.00     0.036 A 
HETATM   14  C   UNL     1       8.254  21.031  54.130  1.00  0.00    -0.060 A 
HETATM   15  C   UNL     1       8.290  20.341  52.795  1.00  0.00     0.048 C 
HETATM   16  C   UNL     1       8.274  20.273  55.300  1.00  0.00     0.007 A 
HETATM   17  C   UNL     1       8.295  20.908  56.535  1.00  0.00     0.003 A 
HETATM   18  C   UNL     1       8.297  22.305  56.604  1.00  0.00     0.029 A 
ENDBRANCH   8  12
ENDBRANCH   4   5
ENDBRANCH   3   4
ENDBRANCH   2   3
ENDBRANCH   1   2
BRANCH   1  19
HETATM   19  N   UNL     1       5.365  29.343  54.154  1.00  0.00    -0.357 N 
HETATM   20  C   UNL     1       4.416  29.389  53.149  1.00  0.00     0.254 C 
HETATM   21  O   UNL     1       3.497  30.203  53.159  1.00  0.00    -0.268 OA
HETATM   22  H   UNL     1       6.176  28.746  54.069  1.00  0.00     0.162 HD
BRANCH  20  23
HETATM   23  C   UNL     1       4.568  28.430  52.023  1.00  0.00     0.064 A 
HETATM   24  C   UNL     1       3.851  28.612  50.853  1.00  0.00     0.077 A 
HETATM   25  C   UNL     1       3.965  27.739  49.767  1.00  0.00     0.065 A 
HETATM   26  N   UNL     1       2.932  29.603  50.497  1.00  0.00    -0.330 N 
HETATM   27  N   UNL     1       3.124  28.194  48.752  1.00  0.00    -0.331 N 
HETATM   28  C   UNL     1       4.786  26.639  49.790  1.00  0.00     0.074 A 
HETATM   29  C   UNL     1       2.472  29.347  49.204  1.00  0.00     0.176 A 
HETATM   30  H   UNL     1       2.977  27.766  47.849  1.00  0.00     0.168 HD
HETATM   31  S   UNL     1       1.365  30.235  48.367  1.00  0.00    -0.041 SA
HETATM   32  C   UNL     1       5.499  26.433  50.969  1.00  0.00     0.119 A 
HETATM   33  F   UNL     1       6.307  25.369  51.062  1.00  0.00    -0.206 F 
HETATM   34  C   UNL     1       5.400  27.301  52.075  1.00  0.00     0.061 A 
HETATM   35  H   UNL     1       2.620  30.345  51.113  1.00  0.00     0.168 HD
ENDBRANCH  20  23
ENDBRANCH   1  19
TORSDOF 7
ENDMDL
