MODEL 1
REMARK VINA RESULT:      -9.0      0.000      0.000
REMARK  6 active torsions:
REMARK  status: ('A' for Active; 'I' for Inactive)
REMARK    1  A    between atoms: C_2  and  C_3 
REMARK    2  A    between atoms: C_8  and  C_9 
REMARK    3  A    between atoms: C_9  and  N_10 
REMARK    4  A    between atoms: C_12  and  C_13 
REMARK    5  A    between atoms: C_13  and  N_14 
REMARK       I    between atoms: N_14  and  C_15 
REMARK    6  A    between atoms: C_15  and  C_16 
ROOT
HETATM    1  N   UNL     1       7.044  28.509  56.887  1.00  0.00    -0.061 N 
HETATM    2  H   UNL     1       7.359  29.250  56.253  1.00  0.00     0.280 HD
HETATM    3  C   UNL     1       7.213  27.229  56.056  1.00  0.00     0.206 C 
HETATM    4  C   UNL     1       6.359  27.396  54.786  1.00  0.00     0.035 C 
HETATM    5  C   UNL     1       4.898  27.704  55.093  1.00  0.00     0.004 C 
HETATM    6  C   UNL     1       4.775  28.935  55.980  1.00  0.00     0.028 C 
HETATM    7  C   UNL     1       5.615  28.825  57.245  1.00  0.00     0.236 C 
ENDROOT
BRANCH   1   8
HETATM    8  C   UNL     1       7.968  28.640  58.084  1.00  0.00     0.277 C 
BRANCH   8   9
HETATM    9  C   UNL     1       9.023  29.671  57.933  1.00  0.00     0.012 A 
HETATM   10  C   UNL     1       9.310  30.832  58.727  1.00  0.00     0.071 A 
HETATM   11  N   UNL     1      10.362  31.492  58.223  1.00  0.00    -0.178 NA
HETATM   12  N   UNL     1      10.755  30.790  57.160  1.00  0.00    -0.288 N 
HETATM   13  H   UNL     1      11.554  31.122  56.626  1.00  0.00     0.188 HD
HETATM   14  C   UNL     1       9.996  29.682  56.950  1.00  0.00     0.120 A 
BRANCH  10  15
HETATM   15  C   UNL     1       8.654  31.375  60.002  1.00  0.00    -0.004 C 
HETATM   16  C   UNL     1       8.818  30.392  61.190  1.00  0.00     0.021 C 
HETATM   17  C   UNL     1       7.144  31.578  59.767  1.00  0.00     0.021 C 
HETATM   18  C   UNL     1       9.278  32.710  60.449  1.00  0.00     0.021 C 
ENDBRANCH  10  15
ENDBRANCH   8   9
ENDBRANCH   1   8
BRANCH   3  19
HETATM   19  C   UNL     1       6.874  25.938  56.858  1.00  0.00     0.156 C 
BRANCH  19  20
HETATM   20  N   UNL     1       6.921  24.724  56.065  1.00  0.00    -0.355 N 
HETATM   21  C   UNL     1       7.947  23.813  56.225  1.00  0.00     0.251 C 
HETATM   22  O   UNL     1       8.831  23.970  57.060  1.00  0.00    -0.268 OA
HETATM   23  H   UNL     1       6.282  24.611  55.285  1.00  0.00     0.162 HD
BRANCH  21  24
HETATM   24  C   UNL     1       7.983  22.687  55.258  1.00  0.00     0.032 A 
HETATM   25  C   UNL     1       7.946  22.985  53.890  1.00  0.00     0.017 A 
HETATM   26  C   UNL     1       7.925  21.952  52.953  1.00  0.00     0.001 A 
HETATM   27  C   UNL     1       7.958  20.623  53.379  1.00  0.00     0.000 A 
HETATM   28  C   UNL     1       8.019  20.324  54.741  1.00  0.00     0.001 A 
HETATM   29  C   UNL     1       8.033  21.354  55.684  1.00  0.00     0.017 A 
ENDBRANCH  21  24
ENDBRANCH  19  20
ENDBRANCH   3  19
TORSDOF 6
ENDMDL
MODEL 2
REMARK VINA RESULT:      -8.9      2.395      3.702
REMARK  6 active torsions:
REMARK  status: ('A' for Active; 'I' for Inactive)
REMARK    1  A    between atoms: C_2  and  C_3 
REMARK    2  A    between atoms: C_8  and  C_9 
REMARK    3  A    between atoms: C_9  and  N_10 
REMARK    4  A    between atoms: C_12  and  C_13 
REMARK    5  A    between atoms: C_13  and  N_14 
REMARK       I    between atoms: N_14  and  C_15 
REMARK    6  A    between atoms: C_15  and  C_16 
ROOT
HETATM    1  N   UNL     1       5.182  27.809  54.751  1.00  0.00    -0.061 N 
HETATM    2  H   UNL     1       5.779  28.586  55.053  1.00  0.00     0.280 HD
HETATM    3  C   UNL     1       6.077  27.022  53.783  1.00  0.00     0.206 C 
HETATM    4  C   UNL     1       6.491  27.989  52.660  1.00  0.00     0.035 C 
HETATM    5  C   UNL     1       5.296  28.629  51.962  1.00  0.00     0.004 C 
HETATM    6  C   UNL     1       4.393  29.336  52.964  1.00  0.00     0.028 C 
HETATM    7  C   UNL     1       3.968  28.423  54.105  1.00  0.00     0.236 C 
ENDROOT
BRANCH   1   8
HETATM    8  C   UNL     1       4.834  27.097  56.046  1.00  0.00     0.277 C 
BRANCH   8   9
HETATM    9  C   UNL     1       6.008  26.696  56.859  1.00  0.00     0.012 A 
HETATM   10  C   UNL     1       7.064  27.488  57.424  1.00  0.00     0.071 A 
HETATM   11  N   UNL     1       7.926  26.707  58.089  1.00  0.00    -0.178 NA
HETATM   12  N   UNL     1       7.450  25.466  57.980  1.00  0.00    -0.288 N 
HETATM   13  H   UNL     1       7.963  24.708  58.424  1.00  0.00     0.188 HD
HETATM   14  C   UNL     1       6.295  25.406  57.265  1.00  0.00     0.120 A 
BRANCH  10  15
HETATM   15  C   UNL     1       7.317  29.000  57.406  1.00  0.00    -0.004 C 
HETATM   16  C   UNL     1       5.998  29.800  57.564  1.00  0.00     0.021 C 
HETATM   17  C   UNL     1       7.954  29.408  56.064  1.00  0.00     0.021 C 
HETATM   18  C   UNL     1       8.239  29.444  58.556  1.00  0.00     0.021 C 
ENDBRANCH  10  15
ENDBRANCH   8   9
ENDBRANCH   1   8
BRANCH   3  19
HETATM   19  C   UNL     1       5.401  25.723  53.256  1.00  0.00     0.156 C 
BRANCH  19  20
HETATM   20  N   UNL     1       5.983  24.502  53.783  1.00  0.00    -0.355 N 
HETATM   21  C   UNL     1       7.141  23.979  53.243  1.00  0.00     0.251 C 
HETATM   22  O   UNL     1       7.741  24.535  52.329  1.00  0.00    -0.268 OA
HETATM   23  H   UNL     1       5.460  23.948  54.454  1.00  0.00     0.162 HD
BRANCH  21  24
HETATM   24  C   UNL     1       7.562  22.649  53.752  1.00  0.00     0.032 A 
HETATM   25  C   UNL     1       7.603  22.451  55.137  1.00  0.00     0.017 A 
HETATM   26  C   UNL     1       8.044  21.233  55.654  1.00  0.00     0.001 A 
HETATM   27  C   UNL     1       8.429  20.207  54.789  1.00  0.00     0.000 A 
HETATM   28  C   UNL     1       8.366  20.394  53.408  1.00  0.00     0.001 A 
HETATM   29  C   UNL     1       7.932  21.613  52.885  1.00  0.00     0.017 A 
ENDBRANCH  21  24
ENDBRANCH  19  20
ENDBRANCH   3  19
TORSDOF 6
ENDMDL
MODEL 3
REMARK VINA RESULT:      -8.6      5.143      8.245
REMARK  6 active torsions:
REMARK  status: ('A' for Active; 'I' for Inactive)
REMARK    1  A    between atoms: C_2  and  C_3 
REMARK    2  A    between atoms: C_8  and  C_9 
REMARK    3  A    between atoms: C_9  and  N_10 
REMARK    4  A    between atoms: C_12  and  C_13 
REMARK    5  A    between atoms: C_13  and  N_14 
REMARK       I    between atoms: N_14  and  C_15 
REMARK    6  A    between atoms: C_15  and  C_16 
ROOT
HETATM    1  N   UNL     1       4.696  27.416  51.143  1.00  0.00    -0.061 N 
HETATM    2  H   UNL     1       3.681  27.532  51.232  1.00  0.00     0.280 HD
HETATM    3  C   UNL     1       5.005  26.230  52.067  1.00  0.00     0.206 C 
HETATM    4  C   UNL     1       4.524  26.615  53.477  1.00  0.00     0.035 C 
HETATM    5  C   UNL     1       5.137  27.918  53.976  1.00  0.00     0.004 C 
HETATM    6  C   UNL     1       4.874  29.054  52.996  1.00  0.00     0.028 C 
HETATM    7  C   UNL     1       5.320  28.716  51.581  1.00  0.00     0.236 C 
ENDROOT
BRANCH   1   8
HETATM    8  C   UNL     1       4.901  27.162  49.661  1.00  0.00     0.277 C 
BRANCH   8   9
HETATM    9  C   UNL     1       3.660  26.838  48.917  1.00  0.00     0.012 A 
HETATM   10  C   UNL     1       2.519  27.653  48.609  1.00  0.00     0.071 A 
HETATM   11  N   UNL     1       1.617  26.947  47.913  1.00  0.00    -0.178 NA
HETATM   12  N   UNL     1       2.147  25.733  47.759  1.00  0.00    -0.288 N 
HETATM   13  H   UNL     1       1.616  25.032  47.248  1.00  0.00     0.188 HD
HETATM   14  C   UNL     1       3.376  25.619  48.329  1.00  0.00     0.120 A 
BRANCH  10  15
HETATM   15  C   UNL     1       2.215  29.126  48.910  1.00  0.00    -0.004 C 
HETATM   16  C   UNL     1       1.802  29.331  50.391  1.00  0.00     0.021 C 
HETATM   17  C   UNL     1       1.048  29.610  48.027  1.00  0.00     0.021 C 
HETATM   18  C   UNL     1       3.438  30.028  48.667  1.00  0.00     0.021 C 
ENDBRANCH  10  15
ENDBRANCH   8   9
ENDBRANCH   1   8
BRANCH   3  19
HETATM   19  C   UNL     1       6.502  25.805  52.025  1.00  0.00     0.156 C 
BRANCH  19  20
HETATM   20  N   UNL     1       6.740  24.445  52.475  1.00  0.00    -0.355 N 
HETATM   21  C   UNL     1       7.283  24.196  53.719  1.00  0.00     0.251 C 
HETATM   22  O   UNL     1       7.550  25.098  54.505  1.00  0.00    -0.268 OA
HETATM   23  H   UNL     1       6.647  23.678  51.817  1.00  0.00     0.162 HD
BRANCH  21  24
HETATM   24  C   UNL     1       7.629  22.782  54.015  1.00  0.00     0.032 A 
HETATM   25  C   UNL     1       7.654  22.370  55.353  1.00  0.00     0.017 A 
HETATM   26  C   UNL     1       8.026  21.065  55.673  1.00  0.00     0.001 A 
HETATM   27  C   UNL     1       8.357  20.165  54.658  1.00  0.00     0.000 A 
HETATM   28  C   UNL     1       8.310  20.567  53.322  1.00  0.00     0.001 A 
HETATM   29  C   UNL     1       7.945  21.875  52.996  1.00  0.00     0.017 A 
ENDBRANCH  21  24
ENDBRANCH  19  20
ENDBRANCH   3  19
TORSDOF 6
ENDMDL
MODEL 4
REMARK VINA RESULT:      -8.5      2.321      3.590
REMARK  6 active torsions:
REMARK  status: ('A' for Active; 'I' for Inactive)
REMARK    1  A    between atoms: C_2  and  C_3 
REMARK    2  A    between atoms: C_8  and  C_9 
REMARK    3  A    between atoms: C_9  and  N_10 
REMARK    4  A    between atoms: C_12  and  C_13 
REMARK    5  A    between atoms: C_13  and  N_14 
REMARK       I    between atoms: N_14  and  C_15 
REMARK    6  A    between atoms: C_15  and  C_16 
ROOT
HETATM    1  N   UNL     1       5.204  28.018  54.524  1.00  0.00    -0.061 N 
HETATM    2  H   UNL     1       5.838  28.823  54.478  1.00  0.00     0.280 HD
HETATM    3  C   UNL     1       5.924  26.946  53.694  1.00  0.00     0.206 C 
HETATM    4  C   UNL     1       6.127  27.524  52.283  1.00  0.00     0.035 C 
HETATM    5  C   UNL     1       4.824  27.983  51.639  1.00  0.00     0.004 C 
HETATM    6  C   UNL     1       4.102  28.989  52.526  1.00  0.00     0.028 C 
HETATM    7  C   UNL     1       3.890  28.469  53.940  1.00  0.00     0.236 C 
ENDROOT
BRANCH   1   8
HETATM    8  C   UNL     1       5.093  27.731  56.010  1.00  0.00     0.277 C 
BRANCH   8   9
HETATM    9  C   UNL     1       5.538  28.844  56.884  1.00  0.00     0.012 A 
HETATM   10  C   UNL     1       6.859  29.255  57.269  1.00  0.00     0.071 A 
HETATM   11  N   UNL     1       6.796  30.319  58.081  1.00  0.00    -0.178 NA
HETATM   12  N   UNL     1       5.500  30.602  58.210  1.00  0.00    -0.288 N 
HETATM   13  H   UNL     1       5.230  31.390  58.794  1.00  0.00     0.188 HD
HETATM   14  C   UNL     1       4.704  29.757  57.502  1.00  0.00     0.120 A 
BRANCH  10  15
HETATM   15  C   UNL     1       8.240  28.712  56.885  1.00  0.00    -0.004 C 
HETATM   16  C   UNL     1       8.371  27.202  57.217  1.00  0.00     0.021 C 
HETATM   17  C   UNL     1       9.333  29.461  57.672  1.00  0.00     0.021 C 
HETATM   18  C   UNL     1       8.518  28.854  55.378  1.00  0.00     0.021 C 
ENDBRANCH  10  15
ENDBRANCH   8   9
ENDBRANCH   1   8
BRANCH   3  19
HETATM   19  C   UNL     1       5.178  25.579  53.695  1.00  0.00     0.156 C 
BRANCH  19  20
HETATM   20  N   UNL     1       5.970  24.478  54.211  1.00  0.00    -0.355 N 
HETATM   21  C   UNL     1       6.887  23.828  53.408  1.00  0.00     0.251 C 
HETATM   22  O   UNL     1       7.096  24.173  52.250  1.00  0.00    -0.268 OA
HETATM   23  H   UNL     1       5.748  24.084  55.119  1.00  0.00     0.162 HD
BRANCH  21  24
HETATM   24  C   UNL     1       7.528  22.620  53.987  1.00  0.00     0.032 A 
HETATM   25  C   UNL     1       8.024  21.647  53.110  1.00  0.00     0.017 A 
HETATM   26  C   UNL     1       8.585  20.475  53.616  1.00  0.00     0.001 A 
HETATM   27  C   UNL     1       8.666  20.279  54.995  1.00  0.00     0.000 A 
HETATM   28  C   UNL     1       8.193  21.258  55.872  1.00  0.00     0.001 A 
HETATM   29  C   UNL     1       7.624  22.430  55.371  1.00  0.00     0.017 A 
ENDBRANCH  21  24
ENDBRANCH  19  20
ENDBRANCH   3  19
TORSDOF 6
ENDMDL
MODEL 5
REMARK VINA RESULT:      -8.5      2.620      8.568
REMARK  6 active torsions:
REMARK  status: ('A' for Active; 'I' for Inactive)
REMARK    1  A    between atoms: C_2  and  C_3 
REMARK    2  A    between atoms: C_8  and  C_9 
REMARK    3  A    between atoms: C_9  and  N_10 
REMARK    4  A    between atoms: C_12  and  C_13 
REMARK    5  A    between atoms: C_13  and  N_14 
REMARK       I    between atoms: N_14  and  C_15 
REMARK    6  A    between atoms: C_15  and  C_16 
ROOT
HETATM    1  N   UNL     1       6.208  27.811  55.739  1.00  0.00    -0.061 N 
HETATM    2  H   UNL     1       5.573  27.009  55.819  1.00  0.00     0.280 HD
HETATM    3  C   UNL     1       5.922  28.625  57.008  1.00  0.00     0.206 C 
HETATM    4  C   UNL     1       4.426  28.986  56.988  1.00  0.00     0.035 C 
HETATM    5  C   UNL     1       4.012  29.720  55.718  1.00  0.00     0.004 C 
HETATM    6  C   UNL     1       4.381  28.915  54.479  1.00  0.00     0.028 C 
HETATM    7  C   UNL     1       5.850  28.520  54.459  1.00  0.00     0.236 C 
ENDROOT
BRANCH   1   8
HETATM    8  C   UNL     1       7.584  27.174  55.666  1.00  0.00     0.277 C 
BRANCH   8   9
HETATM    9  C   UNL     1       7.609  25.729  55.999  1.00  0.00     0.012 A 
HETATM   10  C   UNL     1       7.393  24.578  55.168  1.00  0.00     0.071 A 
HETATM   11  N   UNL     1       7.510  23.455  55.890  1.00  0.00    -0.178 NA
HETATM   12  N   UNL     1       7.804  23.849  57.129  1.00  0.00    -0.288 N 
HETATM   13  H   UNL     1       7.939  23.140  57.846  1.00  0.00     0.188 HD
HETATM   14  C   UNL     1       7.890  25.201  57.246  1.00  0.00     0.120 A 
BRANCH  10  15
HETATM   15  C   UNL     1       7.099  24.452  53.668  1.00  0.00    -0.004 C 
HETATM   16  C   UNL     1       5.613  24.759  53.351  1.00  0.00     0.021 C 
HETATM   17  C   UNL     1       7.392  23.014  53.198  1.00  0.00     0.021 C 
HETATM   18  C   UNL     1       7.938  25.435  52.832  1.00  0.00     0.021 C 
ENDBRANCH  10  15
ENDBRANCH   8   9
ENDBRANCH   1   8
BRANCH   3  19
HETATM   19  C   UNL     1       6.850  29.866  57.152  1.00  0.00     0.156 C 
BRANCH  19  20
HETATM   20  N   UNL     1       7.120  30.242  58.528  1.00  0.00    -0.355 N 
HETATM   21  C   UNL     1       6.880  31.527  58.971  1.00  0.00     0.251 C 
HETATM   22  O   UNL     1       6.399  32.387  58.242  1.00  0.00    -0.268 OA
HETATM   23  H   UNL     1       7.626  29.601  59.131  1.00  0.00     0.162 HD
BRANCH  21  24
HETATM   24  C   UNL     1       7.336  31.844  60.349  1.00  0.00     0.032 A 
HETATM   25  C   UNL     1       8.681  31.628  60.669  1.00  0.00     0.017 A 
HETATM   26  C   UNL     1       9.135  31.864  61.966  1.00  0.00     0.001 A 
HETATM   27  C   UNL     1       8.251  32.330  62.941  1.00  0.00     0.000 A 
HETATM   28  C   UNL     1       6.914  32.568  62.618  1.00  0.00     0.001 A 
HETATM   29  C   UNL     1       6.453  32.327  61.322  1.00  0.00     0.017 A 
ENDBRANCH  21  24
ENDBRANCH  19  20
ENDBRANCH   3  19
TORSDOF 6
ENDMDL
MODEL 6
REMARK VINA RESULT:      -8.3      1.706      2.458
REMARK  6 active torsions:
REMARK  status: ('A' for Active; 'I' for Inactive)
REMARK    1  A    between atoms: C_2  and  C_3 
REMARK    2  A    between atoms: C_8  and  C_9 
REMARK    3  A    between atoms: C_9  and  N_10 
REMARK    4  A    between atoms: C_12  and  C_13 
REMARK    5  A    between atoms: C_13  and  N_14 
REMARK       I    between atoms: N_14  and  C_15 
REMARK    6  A    between atoms: C_15  and  C_16 
ROOT
HETATM    1  N   UNL     1       6.125  28.469  55.852  1.00  0.00    -0.061 N 
HETATM    2  H   UNL     1       6.841  29.154  55.589  1.00  0.00     0.280 HD
HETATM    3  C   UNL     1       6.743  27.125  55.440  1.00  0.00     0.206 C 
HETATM    4  C   UNL     1       7.036  27.203  53.931  1.00  0.00     0.035 C 
HETATM    5  C   UNL     1       5.801  27.554  53.108  1.00  0.00     0.004 C 
HETATM    6  C   UNL     1       5.173  28.853  53.594  1.00  0.00     0.028 C 
HETATM    7  C   UNL     1       4.878  28.832  55.087  1.00  0.00     0.236 C 
ENDROOT
BRANCH   1   8
HETATM    8  C   UNL     1       5.953  28.681  57.345  1.00  0.00     0.277 C 
BRANCH   8   9
HETATM    9  C   UNL     1       6.752  29.801  57.900  1.00  0.00     0.012 A 
HETATM   10  C   UNL     1       6.408  31.180  58.100  1.00  0.00     0.071 A 
HETATM   11  N   UNL     1       7.443  31.845  58.632  1.00  0.00    -0.178 NA
HETATM   12  N   UNL     1       8.413  30.943  58.787  1.00  0.00    -0.288 N 
HETATM   13  H   UNL     1       9.299  31.245  59.185  1.00  0.00     0.188 HD
HETATM   14  C   UNL     1       8.045  29.700  58.378  1.00  0.00     0.120 A 
BRANCH  10  15
HETATM   15  C   UNL     1       5.105  31.947  57.843  1.00  0.00    -0.004 C 
HETATM   16  C   UNL     1       3.867  31.145  58.322  1.00  0.00     0.021 C 
HETATM   17  C   UNL     1       4.941  32.206  56.333  1.00  0.00     0.021 C 
HETATM   18  C   UNL     1       5.071  33.292  58.590  1.00  0.00     0.021 C 
ENDBRANCH  10  15
ENDBRANCH   8   9
ENDBRANCH   1   8
BRANCH   3  19
HETATM   19  C   UNL     1       5.857  25.907  55.832  1.00  0.00     0.156 C 
BRANCH  19  20
HETATM   20  N   UNL     1       6.250  24.665  55.192  1.00  0.00    -0.355 N 
HETATM   21  C   UNL     1       7.113  23.787  55.819  1.00  0.00     0.251 C 
HETATM   22  O   UNL     1       7.550  23.998  56.945  1.00  0.00    -0.268 OA
HETATM   23  H   UNL     1       6.010  24.506  54.219  1.00  0.00     0.162 HD
BRANCH  21  24
HETATM   24  C   UNL     1       7.571  22.627  55.014  1.00  0.00     0.032 A 
HETATM   25  C   UNL     1       7.668  22.778  53.625  1.00  0.00     0.017 A 
HETATM   26  C   UNL     1       8.043  21.695  52.831  1.00  0.00     0.001 A 
HETATM   27  C   UNL     1       8.336  20.465  53.421  1.00  0.00     0.000 A 
HETATM   28  C   UNL     1       8.263  20.318  54.807  1.00  0.00     0.001 A 
HETATM   29  C   UNL     1       7.881  21.397  55.607  1.00  0.00     0.017 A 
ENDBRANCH  21  24
ENDBRANCH  19  20
ENDBRANCH   3  19
TORSDOF 6
ENDMDL
MODEL 7
REMARK VINA RESULT:      -8.3      4.553      7.820
REMARK  6 active torsions:
REMARK  status: ('A' for Active; 'I' for Inactive)
REMARK    1  A    between atoms: C_2  and  C_3 
REMARK    2  A    between atoms: C_8  and  C_9 
REMARK    3  A    between atoms: C_9  and  N_10 
REMARK    4  A    between atoms: C_12  and  C_13 
REMARK    5  A    between atoms: C_13  and  N_14 
REMARK       I    between atoms: N_14  and  C_15 
REMARK    6  A    between atoms: C_15  and  C_16 
ROOT
HETATM    1  N   UNL     1       5.332  27.934  52.554  1.00  0.00    -0.061 N 
HETATM    2  H   UNL     1       4.669  28.499  53.096  1.00  0.00     0.280 HD
HETATM    3  C   UNL     1       4.882  26.492  52.828  1.00  0.00     0.206 C 
HETATM    4  C   UNL     1       4.949  26.276  54.350  1.00  0.00     0.035 C 
HETATM    5  C   UNL     1       6.326  26.578  54.930  1.00  0.00     0.004 C 
HETATM    6  C   UNL     1       6.769  27.991  54.574  1.00  0.00     0.028 C 
HETATM    7  C   UNL     1       6.707  28.260  53.077  1.00  0.00     0.236 C 
ENDROOT
BRANCH   1   8
HETATM    8  C   UNL     1       5.139  28.421  51.130  1.00  0.00     0.277 C 
BRANCH   8   9
HETATM    9  C   UNL     1       3.724  28.637  50.742  1.00  0.00     0.012 A 
HETATM   10  C   UNL     1       3.012  28.247  49.558  1.00  0.00     0.071 A 
HETATM   11  N   UNL     1       1.738  28.655  49.625  1.00  0.00    -0.178 NA
HETATM   12  N   UNL     1       1.615  29.268  50.803  1.00  0.00    -0.288 N 
HETATM   13  H   UNL     1       0.710  29.656  51.057  1.00  0.00     0.188 HD
HETATM   14  C   UNL     1       2.771  29.273  51.518  1.00  0.00     0.120 A 
BRANCH  10  15
HETATM   15  C   UNL     1       3.459  27.456  48.322  1.00  0.00    -0.004 C 
HETATM   16  C   UNL     1       4.695  28.105  47.646  1.00  0.00     0.021 C 
HETATM   17  C   UNL     1       2.321  27.422  47.284  1.00  0.00     0.021 C 
HETATM   18  C   UNL     1       3.861  26.013  48.676  1.00  0.00     0.021 C 
ENDBRANCH  10  15
ENDBRANCH   8   9
ENDBRANCH   1   8
BRANCH   3  19
HETATM   19  C   UNL     1       5.702  25.441  52.023  1.00  0.00     0.156 C 
BRANCH  19  20
HETATM   20  N   UNL     1       6.087  24.276  52.799  1.00  0.00    -0.355 N 
HETATM   21  C   UNL     1       7.417  23.937  52.953  1.00  0.00     0.251 C 
HETATM   22  O   UNL     1       8.321  24.616  52.479  1.00  0.00    -0.268 OA
HETATM   23  H   UNL     1       5.375  23.623  53.108  1.00  0.00     0.162 HD
BRANCH  21  24
HETATM   24  C   UNL     1       7.691  22.645  53.632  1.00  0.00     0.032 A 
HETATM   25  C   UNL     1       7.568  22.587  55.026  1.00  0.00     0.017 A 
HETATM   26  C   UNL     1       7.869  21.406  55.703  1.00  0.00     0.001 A 
HETATM   27  C   UNL     1       8.278  20.278  54.991  1.00  0.00     0.000 A 
HETATM   28  C   UNL     1       8.379  20.326  53.599  1.00  0.00     0.001 A 
HETATM   29  C   UNL     1       8.086  21.508  52.916  1.00  0.00     0.017 A 
ENDBRANCH  21  24
ENDBRANCH  19  20
ENDBRANCH   3  19
TORSDOF 6
ENDMDL
MODEL 8
REMARK VINA RESULT:      -8.2      3.301      7.140
REMARK  6 active torsions:
REMARK  status: ('A' for Active; 'I' for Inactive)
REMARK    1  A    between atoms: C_2  and  C_3 
REMARK    2  A    between atoms: C_8  and  C_9 
REMARK    3  A    between atoms: C_9  and  N_10 
REMARK    4  A    between atoms: C_12  and  C_13 
REMARK    5  A    between atoms: C_13  and  N_14 
REMARK       I    between atoms: N_14  and  C_15 
REMARK    6  A    between atoms: C_15  and  C_16 
ROOT
HETATM    1  N   UNL     1       7.572  27.161  56.502  1.00  0.00    -0.061 N 
HETATM    2  H   UNL     1       8.518  26.803  56.673  1.00  0.00     0.280 HD
HETATM    3  C   UNL     1       7.745  28.053  55.264  1.00  0.00     0.206 C 
HETATM    4  C   UNL     1       8.786  29.129  55.621  1.00  0.00     0.035 C 
HETATM    5  C   UNL     1       8.410  29.924  56.866  1.00  0.00     0.004 C 
HETATM    6  C   UNL     1       8.174  29.000  58.053  1.00  0.00     0.028 C 
HETATM    7  C   UNL     1       7.161  27.907  57.745  1.00  0.00     0.236 C 
ENDROOT
BRANCH   1   8
HETATM    8  C   UNL     1       6.743  25.908  56.295  1.00  0.00     0.277 C 
BRANCH   8   9
HETATM    9  C   UNL     1       7.539  24.678  56.060  1.00  0.00     0.012 A 
HETATM   10  C   UNL     1       7.779  23.942  54.851  1.00  0.00     0.071 A 
HETATM   11  N   UNL     1       8.562  22.882  55.101  1.00  0.00    -0.178 NA
HETATM   12  N   UNL     1       8.834  22.931  56.405  1.00  0.00    -0.288 N 
HETATM   13  H   UNL     1       9.425  22.207  56.806  1.00  0.00     0.188 HD
HETATM   14  C   UNL     1       8.257  23.995  57.024  1.00  0.00     0.120 A 
BRANCH  10  15
HETATM   15  C   UNL     1       7.330  24.190  53.407  1.00  0.00    -0.004 C 
HETATM   16  C   UNL     1       7.997  25.458  52.813  1.00  0.00     0.021 C 
HETATM   17  C   UNL     1       5.803  24.400  53.364  1.00  0.00     0.021 C 
HETATM   18  C   UNL     1       7.703  23.022  52.477  1.00  0.00     0.021 C 
ENDBRANCH  10  15
ENDBRANCH   8   9
ENDBRANCH   1   8
BRANCH   3  19
HETATM   19  C   UNL     1       6.399  28.647  54.755  1.00  0.00     0.156 C 
BRANCH  19  20
HETATM   20  N   UNL     1       6.250  28.614  53.312  1.00  0.00    -0.355 N 
HETATM   21  C   UNL     1       5.121  28.075  52.729  1.00  0.00     0.251 C 
HETATM   22  O   UNL     1       4.189  27.640  53.396  1.00  0.00    -0.268 OA
HETATM   23  H   UNL     1       7.041  28.852  52.722  1.00  0.00     0.162 HD
BRANCH  21  24
HETATM   24  C   UNL     1       5.141  27.950  51.249  1.00  0.00     0.032 A 
HETATM   25  C   UNL     1       5.440  29.088  50.490  1.00  0.00     0.017 A 
HETATM   26  C   UNL     1       5.417  29.022  49.097  1.00  0.00     0.001 A 
HETATM   27  C   UNL     1       5.110  27.818  48.461  1.00  0.00     0.000 A 
HETATM   28  C   UNL     1       4.834  26.677  49.215  1.00  0.00     0.001 A 
HETATM   29  C   UNL     1       4.849  26.738  50.610  1.00  0.00     0.017 A 
ENDBRANCH  21  24
ENDBRANCH  19  20
ENDBRANCH   3  19
TORSDOF 6
ENDMDL
MODEL 9
REMARK VINA RESULT:      -8.2      1.516      2.062
REMARK  6 active torsions:
REMARK  status: ('A' for Active; 'I' for Inactive)
REMARK    1  A    between atoms: C_2  and  C_3 
REMARK    2  A    between atoms: C_8  and  C_9 
REMARK    3  A    between atoms: C_9  and  N_10 
REMARK    4  A    between atoms: C_12  and  C_13 
REMARK    5  A    between atoms: C_13  and  N_14 
REMARK       I    between atoms: N_14  and  C_15 
REMARK    6  A    between atoms: C_15  and  C_16 
ROOT
HETATM    1  N   UNL     1       6.626  28.613  56.275  1.00  0.00    -0.061 N 
HETATM    2  H   UNL     1       6.643  29.428  55.653  1.00  0.00     0.280 HD
HETATM    3  C   UNL     1       7.520  27.592  55.556  1.00  0.00     0.206 C 
HETATM    4  C   UNL     1       6.906  27.352  54.165  1.00  0.00     0.035 C 
HETATM    5  C   UNL     1       5.449  26.908  54.231  1.00  0.00     0.004 C 
HETATM    6  C   UNL     1       4.610  27.907  55.016  1.00  0.00     0.028 C 
HETATM    7  C   UNL     1       5.185  28.191  56.396  1.00  0.00     0.236 C 
ENDROOT
BRANCH   1   8
HETATM    8  C   UNL     1       7.170  29.150  57.586  1.00  0.00     0.277 C 
BRANCH   8   9
HETATM    9  C   UNL     1       6.706  30.517  57.928  1.00  0.00     0.012 A 
HETATM   10  C   UNL     1       7.287  31.509  58.788  1.00  0.00     0.071 A 
HETATM   11  N   UNL     1       6.525  32.611  58.807  1.00  0.00    -0.178 NA
HETATM   12  N   UNL     1       5.503  32.360  57.987  1.00  0.00    -0.288 N 
HETATM   13  H   UNL     1       4.797  33.081  57.856  1.00  0.00     0.188 HD
HETATM   14  C   UNL     1       5.571  31.125  57.424  1.00  0.00     0.120 A 
BRANCH  10  15
HETATM   15  C   UNL     1       8.583  31.506  59.608  1.00  0.00    -0.004 C 
HETATM   16  C   UNL     1       8.656  32.726  60.562  1.00  0.00     0.021 C 
HETATM   17  C   UNL     1       9.799  31.576  58.663  1.00  0.00     0.021 C 
HETATM   18  C   UNL     1       8.703  30.251  60.491  1.00  0.00     0.021 C 
ENDBRANCH  10  15
ENDBRANCH   8   9
ENDBRANCH   1   8
BRANCH   3  19
HETATM   19  C   UNL     1       7.720  26.283  56.373  1.00  0.00     0.156 C 
BRANCH  19  20
HETATM   20  N   UNL     1       7.654  25.074  55.572  1.00  0.00    -0.355 N 
HETATM   21  C   UNL     1       7.995  23.849  56.109  1.00  0.00     0.251 C 
HETATM   22  O   UNL     1       8.330  23.724  57.282  1.00  0.00    -0.268 OA
HETATM   23  H   UNL     1       7.499  25.145  54.571  1.00  0.00     0.162 HD
BRANCH  21  24
HETATM   24  C   UNL     1       8.042  22.706  55.162  1.00  0.00     0.032 A 
HETATM   25  C   UNL     1       7.976  22.976  53.790  1.00  0.00     0.017 A 
HETATM   26  C   UNL     1       7.964  21.926  52.873  1.00  0.00     0.001 A 
HETATM   27  C   UNL     1       8.033  20.607  53.322  1.00  0.00     0.000 A 
HETATM   28  C   UNL     1       8.122  20.335  54.688  1.00  0.00     0.001 A 
HETATM   29  C   UNL     1       8.128  21.382  55.612  1.00  0.00     0.017 A 
ENDBRANCH  21  24
ENDBRANCH  19  20
ENDBRANCH   3  19
TORSDOF 6
ENDMDL
MODEL 10
REMARK VINA RESULT:      -8.1      5.533      8.929
REMARK  6 active torsions:
REMARK  status: ('A' for Active; 'I' for Inactive)
REMARK    1  A    between atoms: C_2  and  C_3 
REMARK    2  A    between atoms: C_8  and  C_9 
REMARK    3  A    between atoms: C_9  and  N_10 
REMARK    4  A    between atoms: C_12  and  C_13 
REMARK    5  A    between atoms: C_13  and  N_14 
REMARK       I    between atoms: N_14  and  C_15 
REMARK    6  A    between atoms: C_15  and  C_16 
ROOT
HETATM    1  N   UNL     1       5.788  33.346  62.764  1.00  0.00    -0.061 N 
HETATM    2  H   UNL     1       5.361  32.863  63.562  1.00  0.00     0.280 HD
HETATM    3  C   UNL     1       6.048  32.217  61.757  1.00  0.00     0.206 C 
HETATM    4  C   UNL     1       6.962  31.192  62.451  1.00  0.00     0.035 C 
HETATM    5  C   UNL     1       8.251  31.811  62.980  1.00  0.00     0.004 C 
HETATM    6  C   UNL     1       7.952  32.975  63.916  1.00  0.00     0.028 C 
HETATM    7  C   UNL     1       7.037  34.012  63.280  1.00  0.00     0.236 C 
ENDROOT
BRANCH   1   8
HETATM    8  C   UNL     1       4.737  34.361  62.353  1.00  0.00     0.277 C 
BRANCH   8   9
HETATM    9  C   UNL     1       3.441  34.223  63.062  1.00  0.00     0.012 A 
HETATM   10  C   UNL     1       3.102  34.462  64.437  1.00  0.00     0.071 A 
HETATM   11  N   UNL     1       1.804  34.205  64.647  1.00  0.00    -0.178 NA
HETATM   12  N   UNL     1       1.311  33.832  63.465  1.00  0.00    -0.288 N 
HETATM   13  H   UNL     1       0.325  33.591  63.403  1.00  0.00     0.188 HD
HETATM   14  C   UNL     1       2.247  33.840  62.479  1.00  0.00     0.120 A 
BRANCH  10  15
HETATM   15  C   UNL     1       3.944  34.965  65.615  1.00  0.00    -0.004 C 
HETATM   16  C   UNL     1       4.804  36.192  65.217  1.00  0.00     0.021 C 
HETATM   17  C   UNL     1       4.903  33.853  66.085  1.00  0.00     0.021 C 
HETATM   18  C   UNL     1       3.069  35.409  66.801  1.00  0.00     0.021 C 
ENDBRANCH  10  15
ENDBRANCH   8   9
ENDBRANCH   1   8
BRANCH   3  19
HETATM   19  C   UNL     1       6.622  32.734  60.405  1.00  0.00     0.156 C 
BRANCH  19  20
HETATM   20  N   UNL     1       7.294  31.712  59.624  1.00  0.00    -0.355 N 
HETATM   21  C   UNL     1       8.637  31.821  59.321  1.00  0.00     0.251 C 
HETATM   22  O   UNL     1       9.321  32.755  59.726  1.00  0.00    -0.268 OA
HETATM   23  H   UNL     1       6.746  30.988  59.170  1.00  0.00     0.162 HD
BRANCH  21  24
HETATM   24  C   UNL     1       9.186  30.805  58.388  1.00  0.00     0.032 A 
HETATM   25  C   UNL     1       8.415  29.669  58.115  1.00  0.00     0.017 A 
HETATM   26  C   UNL     1       8.919  28.667  57.286  1.00  0.00     0.001 A 
HETATM   27  C   UNL     1      10.185  28.805  56.716  1.00  0.00     0.000 A 
HETATM   28  C   UNL     1      10.947  29.948  56.968  1.00  0.00     0.001 A 
HETATM   29  C   UNL     1      10.450  30.950  57.803  1.00  0.00     0.017 A 
ENDBRANCH  21  24
ENDBRANCH  19  20
ENDBRANCH   3  19
TORSDOF 6
ENDMDL
