MODEL 1
REMARK VINA RESULT:     -10.6      0.000      0.000
REMARK  6 active torsions:
REMARK  status: ('A' for Active; 'I' for Inactive)
REMARK    1  A    between atoms: C_2  and  C_3 
REMARK    2  A    between atoms: C_3  and  C_4 
REMARK    3  A    between atoms: C_4  and  C_5 
REMARK    4  A    between atoms: C_8  and  N_9 
REMARK       I    between atoms: N_9  and  C_10 
REMARK    5  A    between atoms: C_10  and  C_11 
REMARK    6  A    between atoms: N_16  and  C_17 
ROOT
HETATM    1  C   UNL     1       7.702  29.593  57.878  1.00  0.00     0.098 A 
HETATM    2  C   UNL     1       6.566  30.508  57.507  1.00  0.00     0.205 A 
HETATM    3  O   UNL     1       5.955  30.397  56.449  1.00  0.00    -0.286 OA
HETATM    4  C   UNL     1       6.261  31.513  58.506  1.00  0.00     0.087 A 
HETATM    5  C   UNL     1       6.910  31.546  59.717  1.00  0.00     0.145 A 
HETATM    6  N   UNL     1       6.349  32.569  60.463  1.00  0.00    -0.216 N 
HETATM    7  N   UNL     1       5.494  33.301  59.684  1.00  0.00    -0.170 NA
HETATM    8  C   UNL     1       5.396  32.623  58.530  1.00  0.00     0.069 C 
HETATM    9  C   UNL     1       4.492  33.096  57.454  1.00  0.00     0.073 C 
HETATM   10  N   UNL     1       7.929  30.707  60.021  1.00  0.00    -0.349 N 
HETATM   11  C   UNL     1       8.302  29.767  59.077  1.00  0.00     0.111 A 
HETATM   12  H   UNL     1       8.571  30.853  60.799  1.00  0.00     0.167 HD
ENDROOT
BRANCH   1  13
HETATM   13  C   UNL     1       8.196  28.483  57.007  1.00  0.00     0.261 C 
HETATM   14  N   UNL     1       7.207  27.792  56.341  1.00  0.00    -0.323 N 
HETATM   15  H   UNL     1       6.250  28.128  56.454  1.00  0.00     0.169 HD
HETATM   16  O   UNL     1       9.400  28.237  56.964  1.00  0.00    -0.267 OA
BRANCH  14  17
HETATM   17  C   UNL     1       7.347  26.614  55.575  1.00  0.00     0.035 A 
HETATM   18  C   UNL     1       7.332  25.326  56.112  1.00  0.00     0.030 A 
HETATM   19  C   UNL     1       7.415  24.207  55.278  1.00  0.00     0.009 A 
HETATM   20  C   UNL     1       7.504  24.354  53.889  1.00  0.00    -0.058 A 
HETATM   21  C   UNL     1       7.545  25.645  53.352  1.00  0.00     0.009 A 
HETATM   22  C   UNL     1       7.475  26.763  54.190  1.00  0.00     0.030 A 
BRANCH  20  23
HETATM   23  C   UNL     1       7.520  23.140  52.994  1.00  0.00     0.038 C 
BRANCH  23  24
HETATM   24  C   UNL     1       8.541  22.103  53.474  1.00  0.00     0.004 C 
BRANCH  24  25
HETATM   25  C   UNL     1       7.872  20.775  53.827  1.00  0.00    -0.004 C 
HETATM   26  C   UNL     1       8.013  20.462  55.308  1.00  0.00     0.005 C 
ENDBRANCH  24  25
ENDBRANCH  23  24
ENDBRANCH  20  23
ENDBRANCH  14  17
ENDBRANCH   1  13
BRANCH   6  27
HETATM   27  C   UNL     1       6.514  32.892  61.840  1.00  0.00     0.060 A 
HETATM   28  C   UNL     1       7.711  32.628  62.518  1.00  0.00     0.032 A 
HETATM   29  C   UNL     1       7.837  32.940  63.876  1.00  0.00     0.009 A 
HETATM   30  C   UNL     1       6.772  33.516  64.576  1.00  0.00    -0.062 A 
HETATM   31  C   UNL     1       6.891  33.826  66.039  1.00  0.00     0.048 C 
HETATM   32  C   UNL     1       5.566  33.750  63.906  1.00  0.00     0.009 A 
HETATM   33  C   UNL     1       5.434  33.435  62.550  1.00  0.00     0.032 A 
ENDBRANCH   6  27
TORSDOF 6
ENDMDL
MODEL 2
REMARK VINA RESULT:     -10.4      1.629     10.547
REMARK  6 active torsions:
REMARK  status: ('A' for Active; 'I' for Inactive)
REMARK    1  A    between atoms: C_2  and  C_3 
REMARK    2  A    between atoms: C_3  and  C_4 
REMARK    3  A    between atoms: C_4  and  C_5 
REMARK    4  A    between atoms: C_8  and  N_9 
REMARK       I    between atoms: N_9  and  C_10 
REMARK    5  A    between atoms: C_10  and  C_11 
REMARK    6  A    between atoms: N_16  and  C_17 
ROOT
HETATM    1  C   UNL     1       7.400  29.779  57.748  1.00  0.00     0.098 A 
HETATM    2  C   UNL     1       6.387  30.049  56.669  1.00  0.00     0.205 A 
HETATM    3  O   UNL     1       5.844  31.143  56.538  1.00  0.00    -0.286 OA
HETATM    4  C   UNL     1       6.121  28.916  55.805  1.00  0.00     0.087 A 
HETATM    5  C   UNL     1       6.817  27.737  55.928  1.00  0.00     0.145 A 
HETATM    6  N   UNL     1       6.380  26.889  54.925  1.00  0.00    -0.216 N 
HETATM    7  N   UNL     1       5.296  27.433  54.291  1.00  0.00    -0.170 NA
HETATM    8  C   UNL     1       5.187  28.678  54.780  1.00  0.00     0.069 C 
HETATM    9  C   UNL     1       4.143  29.598  54.268  1.00  0.00     0.073 C 
HETATM   10  N   UNL     1       7.724  27.526  56.912  1.00  0.00    -0.349 N 
HETATM   11  C   UNL     1       7.971  28.555  57.803  1.00  0.00     0.111 A 
HETATM   12  H   UNL     1       8.078  26.605  57.168  1.00  0.00     0.167 HD
ENDROOT
BRANCH   1  13
HETATM   13  C   UNL     1       7.833  30.794  58.757  1.00  0.00     0.261 C 
HETATM   14  N   UNL     1       7.121  30.769  59.939  1.00  0.00    -0.323 N 
HETATM   15  H   UNL     1       6.416  30.039  60.040  1.00  0.00     0.169 HD
HETATM   16  O   UNL     1       8.732  31.582  58.476  1.00  0.00    -0.267 OA
BRANCH  14  17
HETATM   17  C   UNL     1       7.194  31.690  61.006  1.00  0.00     0.035 A 
HETATM   18  C   UNL     1       6.355  32.795  61.144  1.00  0.00     0.030 A 
HETATM   19  C   UNL     1       6.451  33.626  62.265  1.00  0.00     0.009 A 
HETATM   20  C   UNL     1       7.384  33.362  63.275  1.00  0.00    -0.058 A 
HETATM   21  C   UNL     1       8.244  32.269  63.124  1.00  0.00     0.009 A 
HETATM   22  C   UNL     1       8.153  31.446  61.996  1.00  0.00     0.030 A 
BRANCH  20  23
HETATM   23  C   UNL     1       7.431  34.222  64.513  1.00  0.00     0.038 C 
BRANCH  23  24
HETATM   24  C   UNL     1       6.886  33.475  65.735  1.00  0.00     0.004 C 
BRANCH  24  25
HETATM   25  C   UNL     1       5.703  34.211  66.363  1.00  0.00    -0.004 C 
HETATM   26  C   UNL     1       4.418  33.949  65.594  1.00  0.00     0.005 C 
ENDBRANCH  24  25
ENDBRANCH  23  24
ENDBRANCH  20  23
ENDBRANCH  14  17
ENDBRANCH   1  13
BRANCH   6  27
HETATM   27  C   UNL     1       6.912  25.642  54.487  1.00  0.00     0.060 A 
HETATM   28  C   UNL     1       7.504  25.498  53.227  1.00  0.00     0.032 A 
HETATM   29  C   UNL     1       8.001  24.256  52.818  1.00  0.00     0.009 A 
HETATM   30  C   UNL     1       7.913  23.142  53.659  1.00  0.00    -0.062 A 
HETATM   31  C   UNL     1       8.419  21.801  53.216  1.00  0.00     0.048 C 
HETATM   32  C   UNL     1       7.294  23.280  54.906  1.00  0.00     0.009 A 
HETATM   33  C   UNL     1       6.790  24.518  55.316  1.00  0.00     0.032 A 
ENDBRANCH   6  27
TORSDOF 6
ENDMDL
MODEL 3
REMARK VINA RESULT:     -10.2      1.605      2.202
REMARK  6 active torsions:
REMARK  status: ('A' for Active; 'I' for Inactive)
REMARK    1  A    between atoms: C_2  and  C_3 
REMARK    2  A    between atoms: C_3  and  C_4 
REMARK    3  A    between atoms: C_4  and  C_5 
REMARK    4  A    between atoms: C_8  and  N_9 
REMARK       I    between atoms: N_9  and  C_10 
REMARK    5  A    between atoms: C_10  and  C_11 
REMARK    6  A    between atoms: N_16  and  C_17 
ROOT
HETATM    1  C   UNL     1       5.951  28.837  56.219  1.00  0.00     0.098 A 
HETATM    2  C   UNL     1       5.261  30.135  55.894  1.00  0.00     0.205 A 
HETATM    3  O   UNL     1       4.561  30.271  54.895  1.00  0.00    -0.286 OA
HETATM    4  C   UNL     1       5.491  31.189  56.861  1.00  0.00     0.087 A 
HETATM    5  C   UNL     1       6.208  30.968  58.012  1.00  0.00     0.145 A 
HETATM    6  N   UNL     1       6.189  32.142  58.747  1.00  0.00    -0.216 N 
HETATM    7  N   UNL     1       5.640  33.150  58.002  1.00  0.00    -0.170 NA
HETATM    8  C   UNL     1       5.164  32.557  56.897  1.00  0.00     0.069 C 
HETATM    9  C   UNL     1       4.436  33.347  55.874  1.00  0.00     0.073 C 
HETATM   10  N   UNL     1       6.817  29.787  58.276  1.00  0.00    -0.349 N 
HETATM   11  C   UNL     1       6.680  28.763  57.355  1.00  0.00     0.111 A 
HETATM   12  H   UNL     1       7.533  29.666  58.991  1.00  0.00     0.167 HD
ENDROOT
BRANCH   1  13
HETATM   13  C   UNL     1       5.862  27.610  55.369  1.00  0.00     0.261 C 
HETATM   14  N   UNL     1       6.880  26.700  55.565  1.00  0.00    -0.323 N 
HETATM   15  H   UNL     1       7.556  26.913  56.298  1.00  0.00     0.169 HD
HETATM   16  O   UNL     1       4.949  27.504  54.553  1.00  0.00    -0.267 OA
BRANCH  14  17
HETATM   17  C   UNL     1       7.148  25.535  54.814  1.00  0.00     0.035 A 
HETATM   18  C   UNL     1       7.660  25.542  53.517  1.00  0.00     0.030 A 
HETATM   19  C   UNL     1       7.957  24.341  52.864  1.00  0.00     0.009 A 
HETATM   20  C   UNL     1       7.756  23.111  53.500  1.00  0.00    -0.058 A 
HETATM   21  C   UNL     1       7.218  23.103  54.790  1.00  0.00     0.009 A 
HETATM   22  C   UNL     1       6.910  24.305  55.437  1.00  0.00     0.030 A 
BRANCH  20  23
HETATM   23  C   UNL     1       8.146  21.826  52.813  1.00  0.00     0.038 C 
BRANCH  23  24
HETATM   24  C   UNL     1       7.710  20.602  53.624  1.00  0.00     0.004 C 
BRANCH  24  25
HETATM   25  C   UNL     1       8.878  19.991  54.397  1.00  0.00    -0.004 C 
HETATM   26  C   UNL     1       8.697  20.160  55.897  1.00  0.00     0.005 C 
ENDBRANCH  24  25
ENDBRANCH  23  24
ENDBRANCH  20  23
ENDBRANCH  14  17
ENDBRANCH   1  13
BRANCH   6  27
HETATM   27  C   UNL     1       6.601  32.386  60.088  1.00  0.00     0.060 A 
HETATM   28  C   UNL     1       7.917  32.154  60.506  1.00  0.00     0.032 A 
HETATM   29  C   UNL     1       8.287  32.386  61.835  1.00  0.00     0.009 A 
HETATM   30  C   UNL     1       7.351  32.851  62.764  1.00  0.00    -0.062 A 
HETATM   31  C   UNL     1       7.735  33.075  64.197  1.00  0.00     0.048 C 
HETATM   32  C   UNL     1       6.030  33.054  62.353  1.00  0.00     0.009 A 
HETATM   33  C   UNL     1       5.653  32.817  61.027  1.00  0.00     0.032 A 
ENDBRANCH   6  27
TORSDOF 6
ENDMDL
MODEL 4
REMARK VINA RESULT:     -10.0      3.489      4.965
REMARK  6 active torsions:
REMARK  status: ('A' for Active; 'I' for Inactive)
REMARK    1  A    between atoms: C_2  and  C_3 
REMARK    2  A    between atoms: C_3  and  C_4 
REMARK    3  A    between atoms: C_4  and  C_5 
REMARK    4  A    between atoms: C_8  and  N_9 
REMARK       I    between atoms: N_9  and  C_10 
REMARK    5  A    between atoms: C_10  and  C_11 
REMARK    6  A    between atoms: N_16  and  C_17 
ROOT
HETATM    1  C   UNL     1       6.556  28.847  55.918  1.00  0.00     0.098 A 
HETATM    2  C   UNL     1       8.042  29.084  55.902  1.00  0.00     0.205 A 
HETATM    3  O   UNL     1       8.734  28.839  54.919  1.00  0.00    -0.286 OA
HETATM    4  C   UNL     1       8.571  29.629  57.137  1.00  0.00     0.087 A 
HETATM    5  C   UNL     1       7.749  29.974  58.183  1.00  0.00     0.145 A 
HETATM    6  N   UNL     1       8.545  30.521  59.175  1.00  0.00    -0.216 N 
HETATM    7  N   UNL     1       9.866  30.355  58.859  1.00  0.00    -0.170 NA
HETATM    8  C   UNL     1       9.874  29.879  57.605  1.00  0.00     0.069 C 
HETATM    9  C   UNL     1      11.157  29.635  56.901  1.00  0.00     0.073 C 
HETATM   10  N   UNL     1       6.414  29.748  58.165  1.00  0.00    -0.349 N 
HETATM   11  C   UNL     1       5.865  29.173  57.033  1.00  0.00     0.111 A 
HETATM   12  H   UNL     1       5.823  29.777  58.995  1.00  0.00     0.167 HD
ENDROOT
BRANCH   1  13
HETATM   13  C   UNL     1       5.789  28.291  54.761  1.00  0.00     0.261 C 
HETATM   14  N   UNL     1       6.332  28.570  53.525  1.00  0.00    -0.323 N 
HETATM   15  H   UNL     1       7.221  29.070  53.511  1.00  0.00     0.169 HD
HETATM   16  O   UNL     1       4.745  27.677  54.967  1.00  0.00    -0.267 OA
BRANCH  14  17
HETATM   17  C   UNL     1       5.763  28.314  52.258  1.00  0.00     0.035 A 
HETATM   18  C   UNL     1       5.683  27.047  51.679  1.00  0.00     0.030 A 
HETATM   19  C   UNL     1       5.047  26.869  50.446  1.00  0.00     0.009 A 
HETATM   20  C   UNL     1       4.472  27.952  49.773  1.00  0.00    -0.058 A 
HETATM   21  C   UNL     1       4.576  29.226  50.340  1.00  0.00     0.009 A 
HETATM   22  C   UNL     1       5.223  29.405  51.568  1.00  0.00     0.030 A 
BRANCH  20  23
HETATM   23  C   UNL     1       3.727  27.737  48.479  1.00  0.00     0.038 C 
BRANCH  23  24
HETATM   24  C   UNL     1       4.206  26.471  47.761  1.00  0.00     0.004 C 
BRANCH  24  25
HETATM   25  C   UNL     1       3.033  25.599  47.314  1.00  0.00    -0.004 C 
HETATM   26  C   UNL     1       2.975  24.302  48.105  1.00  0.00     0.005 C 
ENDBRANCH  24  25
ENDBRANCH  23  24
ENDBRANCH  20  23
ENDBRANCH  14  17
ENDBRANCH   1  13
BRANCH   6  27
HETATM   27  C   UNL     1       8.176  31.213  60.364  1.00  0.00     0.060 A 
HETATM   28  C   UNL     1       7.314  32.316  60.334  1.00  0.00     0.032 A 
HETATM   29  C   UNL     1       6.983  32.986  61.517  1.00  0.00     0.009 A 
HETATM   30  C   UNL     1       7.509  32.568  62.743  1.00  0.00    -0.062 A 
HETATM   31  C   UNL     1       7.181  33.300  64.011  1.00  0.00     0.048 C 
HETATM   32  C   UNL     1       8.394  31.485  62.769  1.00  0.00     0.009 A 
HETATM   33  C   UNL     1       8.732  30.815  61.588  1.00  0.00     0.032 A 
ENDBRANCH   6  27
TORSDOF 6
ENDMDL
MODEL 5
REMARK VINA RESULT:      -9.7      1.743      3.066
REMARK  6 active torsions:
REMARK  status: ('A' for Active; 'I' for Inactive)
REMARK    1  A    between atoms: C_2  and  C_3 
REMARK    2  A    between atoms: C_3  and  C_4 
REMARK    3  A    between atoms: C_4  and  C_5 
REMARK    4  A    between atoms: C_8  and  N_9 
REMARK       I    between atoms: N_9  and  C_10 
REMARK    5  A    between atoms: C_10  and  C_11 
REMARK    6  A    between atoms: N_16  and  C_17 
ROOT
HETATM    1  C   UNL     1       6.456  28.655  56.650  1.00  0.00     0.098 A 
HETATM    2  C   UNL     1       7.777  29.345  56.863  1.00  0.00     0.205 A 
HETATM    3  O   UNL     1       8.794  29.013  56.261  1.00  0.00    -0.286 OA
HETATM    4  C   UNL     1       7.735  30.427  57.826  1.00  0.00     0.087 A 
HETATM    5  C   UNL     1       6.557  30.826  58.411  1.00  0.00     0.145 A 
HETATM    6  N   UNL     1       6.841  31.913  59.220  1.00  0.00    -0.216 N 
HETATM    7  N   UNL     1       8.195  32.091  59.307  1.00  0.00    -0.170 NA
HETATM    8  C   UNL     1       8.723  31.237  58.416  1.00  0.00     0.069 C 
HETATM    9  C   UNL     1      10.188  31.197  58.189  1.00  0.00     0.073 C 
HETATM   10  N   UNL     1       5.383  30.184  58.197  1.00  0.00    -0.349 N 
HETATM   11  C   UNL     1       5.379  29.104  57.333  1.00  0.00     0.111 A 
HETATM   12  H   UNL     1       4.557  30.306  58.781  1.00  0.00     0.167 HD
ENDROOT
BRANCH   1  13
HETATM   13  C   UNL     1       6.256  27.512  55.708  1.00  0.00     0.261 C 
HETATM   14  N   UNL     1       7.118  26.453  55.899  1.00  0.00    -0.323 N 
HETATM   15  H   UNL     1       7.764  26.517  56.685  1.00  0.00     0.169 HD
HETATM   16  O   UNL     1       5.398  27.592  54.832  1.00  0.00    -0.267 OA
BRANCH  14  17
HETATM   17  C   UNL     1       7.272  25.312  55.082  1.00  0.00     0.035 A 
HETATM   18  C   UNL     1       7.769  25.344  53.779  1.00  0.00     0.030 A 
HETATM   19  C   UNL     1       7.950  24.160  53.057  1.00  0.00     0.009 A 
HETATM   20  C   UNL     1       7.645  22.919  53.628  1.00  0.00    -0.058 A 
HETATM   21  C   UNL     1       7.122  22.888  54.925  1.00  0.00     0.009 A 
HETATM   22  C   UNL     1       6.931  24.075  55.641  1.00  0.00     0.030 A 
BRANCH  20  23
HETATM   23  C   UNL     1       7.911  21.644  52.867  1.00  0.00     0.038 C 
BRANCH  23  24
HETATM   24  C   UNL     1       9.080  20.862  53.475  1.00  0.00     0.004 C 
BRANCH  24  25
HETATM   25  C   UNL     1       8.622  19.965  54.624  1.00  0.00    -0.004 C 
HETATM   26  C   UNL     1       9.302  20.349  55.929  1.00  0.00     0.005 C 
ENDBRANCH  24  25
ENDBRANCH  23  24
ENDBRANCH  20  23
ENDBRANCH  14  17
ENDBRANCH   1  13
BRANCH   6  27
HETATM   27  C   UNL     1       5.958  32.815  59.881  1.00  0.00     0.060 A 
HETATM   28  C   UNL     1       4.948  33.494  59.188  1.00  0.00     0.032 A 
HETATM   29  C   UNL     1       4.108  34.387  59.861  1.00  0.00     0.009 A 
HETATM   30  C   UNL     1       4.265  34.617  61.232  1.00  0.00    -0.062 A 
HETATM   31  C   UNL     1       3.386  35.595  61.954  1.00  0.00     0.048 C 
HETATM   32  C   UNL     1       5.293  33.961  61.917  1.00  0.00     0.009 A 
HETATM   33  C   UNL     1       6.139  33.072  61.247  1.00  0.00     0.032 A 
ENDBRANCH   6  27
TORSDOF 6
ENDMDL
MODEL 6
REMARK VINA RESULT:      -9.6      2.315     10.964
REMARK  6 active torsions:
REMARK  status: ('A' for Active; 'I' for Inactive)
REMARK    1  A    between atoms: C_2  and  C_3 
REMARK    2  A    between atoms: C_3  and  C_4 
REMARK    3  A    between atoms: C_4  and  C_5 
REMARK    4  A    between atoms: C_8  and  N_9 
REMARK       I    between atoms: N_9  and  C_10 
REMARK    5  A    between atoms: C_10  and  C_11 
REMARK    6  A    between atoms: N_16  and  C_17 
ROOT
HETATM    1  C   UNL     1       7.001  31.204  58.892  1.00  0.00     0.098 A 
HETATM    2  C   UNL     1       8.417  30.801  58.578  1.00  0.00     0.205 A 
HETATM    3  O   UNL     1       9.370  31.179  59.252  1.00  0.00    -0.286 OA
HETATM    4  C   UNL     1       8.546  29.932  57.425  1.00  0.00     0.087 A 
HETATM    5  C   UNL     1       7.445  29.459  56.752  1.00  0.00     0.145 A 
HETATM    6  N   UNL     1       7.899  28.611  55.755  1.00  0.00    -0.216 N 
HETATM    7  N   UNL     1       9.263  28.685  55.663  1.00  0.00    -0.170 NA
HETATM    8  C   UNL     1       9.649  29.429  56.711  1.00  0.00     0.069 C 
HETATM    9  C   UNL     1      11.089  29.672  56.970  1.00  0.00     0.073 C 
HETATM   10  N   UNL     1       6.183  29.840  57.061  1.00  0.00    -0.349 N 
HETATM   11  C   UNL     1       6.007  30.719  58.115  1.00  0.00     0.111 A 
HETATM   12  H   UNL     1       5.381  29.695  56.448  1.00  0.00     0.167 HD
ENDROOT
BRANCH   1  13
HETATM   13  C   UNL     1       6.622  32.095  60.032  1.00  0.00     0.261 C 
HETATM   14  N   UNL     1       7.140  31.718  61.253  1.00  0.00    -0.323 N 
HETATM   15  H   UNL     1       7.770  30.915  61.261  1.00  0.00     0.169 HD
HETATM   16  O   UNL     1       5.874  33.048  59.831  1.00  0.00    -0.267 OA
BRANCH  14  17
HETATM   17  C   UNL     1       6.841  32.264  62.520  1.00  0.00     0.035 A 
HETATM   18  C   UNL     1       7.798  32.776  63.396  1.00  0.00     0.030 A 
HETATM   19  C   UNL     1       7.413  33.357  64.608  1.00  0.00     0.009 A 
HETATM   20  C   UNL     1       6.062  33.446  64.963  1.00  0.00    -0.058 A 
HETATM   21  C   UNL     1       5.104  32.909  64.097  1.00  0.00     0.009 A 
HETATM   22  C   UNL     1       5.493  32.318  62.890  1.00  0.00     0.030 A 
BRANCH  20  23
HETATM   23  C   UNL     1       5.653  34.139  66.239  1.00  0.00     0.038 C 
BRANCH  23  24
HETATM   24  C   UNL     1       6.824  34.237  67.223  1.00  0.00     0.004 C 
BRANCH  24  25
HETATM   25  C   UNL     1       6.378  34.790  68.576  1.00  0.00    -0.004 C 
HETATM   26  C   UNL     1       7.566  35.276  69.393  1.00  0.00     0.005 C 
ENDBRANCH  24  25
ENDBRANCH  23  24
ENDBRANCH  20  23
ENDBRANCH  14  17
ENDBRANCH   1  13
BRANCH   6  27
HETATM   27  C   UNL     1       7.174  27.717  54.917  1.00  0.00     0.060 A 
HETATM   28  C   UNL     1       6.588  28.145  53.719  1.00  0.00     0.032 A 
HETATM   29  C   UNL     1       5.866  27.247  52.926  1.00  0.00     0.009 A 
HETATM   30  C   UNL     1       5.717  25.912  53.317  1.00  0.00    -0.062 A 
HETATM   31  C   UNL     1       4.920  24.951  52.485  1.00  0.00     0.048 C 
HETATM   32  C   UNL     1       6.276  25.493  54.529  1.00  0.00     0.009 A 
HETATM   33  C   UNL     1       6.994  26.389  55.328  1.00  0.00     0.032 A 
ENDBRANCH   6  27
TORSDOF 6
ENDMDL
MODEL 7
REMARK VINA RESULT:      -9.4      1.702      2.480
REMARK  6 active torsions:
REMARK  status: ('A' for Active; 'I' for Inactive)
REMARK    1  A    between atoms: C_2  and  C_3 
REMARK    2  A    between atoms: C_3  and  C_4 
REMARK    3  A    between atoms: C_4  and  C_5 
REMARK    4  A    between atoms: C_8  and  N_9 
REMARK       I    between atoms: N_9  and  C_10 
REMARK    5  A    between atoms: C_10  and  C_11 
REMARK    6  A    between atoms: N_16  and  C_17 
ROOT
HETATM    1  C   UNL     1       7.396  30.948  59.458  1.00  0.00     0.098 A 
HETATM    2  C   UNL     1       6.228  31.839  59.128  1.00  0.00     0.205 A 
HETATM    3  O   UNL     1       5.669  31.807  58.036  1.00  0.00    -0.286 OA
HETATM    4  C   UNL     1       5.828  32.719  60.207  1.00  0.00     0.087 A 
HETATM    5  C   UNL     1       6.423  32.660  61.444  1.00  0.00     0.145 A 
HETATM    6  N   UNL     1       5.776  33.571  62.262  1.00  0.00    -0.216 N 
HETATM    7  N   UNL     1       4.916  34.336  61.521  1.00  0.00    -0.170 NA
HETATM    8  C   UNL     1       4.903  33.776  60.302  1.00  0.00     0.069 C 
HETATM    9  C   UNL     1       4.020  34.312  59.237  1.00  0.00     0.073 C 
HETATM   10  N   UNL     1       7.472  31.846  61.710  1.00  0.00    -0.349 N 
HETATM   11  C   UNL     1       7.935  31.027  60.695  1.00  0.00     0.111 A 
HETATM   12  H   UNL     1       8.072  31.943  62.528  1.00  0.00     0.167 HD
ENDROOT
BRANCH   1  13
HETATM   13  C   UNL     1       7.986  29.961  58.503  1.00  0.00     0.261 C 
HETATM   14  N   UNL     1       7.081  29.069  57.967  1.00  0.00    -0.323 N 
HETATM   15  H   UNL     1       6.101  29.195  58.219  1.00  0.00     0.169 HD
HETATM   16  O   UNL     1       9.196  29.974  58.288  1.00  0.00    -0.267 OA
BRANCH  14  17
HETATM   17  C   UNL     1       7.358  27.940  57.166  1.00  0.00     0.035 A 
HETATM   18  C   UNL     1       7.637  26.671  57.672  1.00  0.00     0.030 A 
HETATM   19  C   UNL     1       7.840  25.589  56.809  1.00  0.00     0.009 A 
HETATM   20  C   UNL     1       7.758  25.755  55.422  1.00  0.00    -0.058 A 
HETATM   21  C   UNL     1       7.504  27.032  54.912  1.00  0.00     0.009 A 
HETATM   22  C   UNL     1       7.313  28.115  55.778  1.00  0.00     0.030 A 
BRANCH  20  23
HETATM   23  C   UNL     1       7.907  24.568  54.503  1.00  0.00     0.038 C 
BRANCH  23  24
HETATM   24  C   UNL     1       6.550  23.934  54.181  1.00  0.00     0.004 C 
BRANCH  24  25
HETATM   25  C   UNL     1       6.037  24.367  52.808  1.00  0.00    -0.004 C 
HETATM   26  C   UNL     1       4.831  25.286  52.932  1.00  0.00     0.005 C 
ENDBRANCH  24  25
ENDBRANCH  23  24
ENDBRANCH  20  23
ENDBRANCH  14  17
ENDBRANCH   1  13
BRANCH   6  27
HETATM   27  C   UNL     1       5.865  33.758  63.671  1.00  0.00     0.060 A 
HETATM   28  C   UNL     1       7.097  33.743  64.337  1.00  0.00     0.032 A 
HETATM   29  C   UNL     1       7.151  33.911  65.724  1.00  0.00     0.009 A 
HETATM   30  C   UNL     1       5.980  34.095  66.466  1.00  0.00    -0.062 A 
HETATM   31  C   UNL     1       6.029  34.248  67.958  1.00  0.00     0.048 C 
HETATM   32  C   UNL     1       4.747  34.079  65.804  1.00  0.00     0.009 A 
HETATM   33  C   UNL     1       4.688  33.905  64.417  1.00  0.00     0.032 A 
ENDBRANCH   6  27
TORSDOF 6
ENDMDL
MODEL 8
REMARK VINA RESULT:      -9.3      2.265     10.840
REMARK  6 active torsions:
REMARK  status: ('A' for Active; 'I' for Inactive)
REMARK    1  A    between atoms: C_2  and  C_3 
REMARK    2  A    between atoms: C_3  and  C_4 
REMARK    3  A    between atoms: C_4  and  C_5 
REMARK    4  A    between atoms: C_8  and  N_9 
REMARK       I    between atoms: N_9  and  C_10 
REMARK    5  A    between atoms: C_10  and  C_11 
REMARK    6  A    between atoms: N_16  and  C_17 
ROOT
HETATM    1  C   UNL     1       6.742  30.337  57.748  1.00  0.00     0.098 A 
HETATM    2  C   UNL     1       5.799  30.610  56.607  1.00  0.00     0.205 A 
HETATM    3  O   UNL     1       5.236  31.692  56.468  1.00  0.00    -0.286 OA
HETATM    4  C   UNL     1       5.626  29.494  55.698  1.00  0.00     0.087 A 
HETATM    5  C   UNL     1       6.344  28.331  55.839  1.00  0.00     0.145 A 
HETATM    6  N   UNL     1       6.002  27.500  54.786  1.00  0.00    -0.216 N 
HETATM    7  N   UNL     1       4.949  28.033  54.093  1.00  0.00    -0.170 NA
HETATM    8  C   UNL     1       4.771  29.260  54.605  1.00  0.00     0.069 C 
HETATM    9  C   UNL     1       3.739  30.167  54.045  1.00  0.00     0.073 C 
HETATM   10  N   UNL     1       7.187  28.117  56.877  1.00  0.00    -0.349 N 
HETATM   11  C   UNL     1       7.343  29.128  57.810  1.00  0.00     0.111 A 
HETATM   12  H   UNL     1       7.549  27.199  57.134  1.00  0.00     0.167 HD
ENDROOT
BRANCH   1  13
HETATM   13  C   UNL     1       7.075  31.335  58.810  1.00  0.00     0.261 C 
HETATM   14  N   UNL     1       6.083  31.528  59.748  1.00  0.00    -0.323 N 
HETATM   15  H   UNL     1       5.250  30.944  59.669  1.00  0.00     0.169 HD
HETATM   16  O   UNL     1       8.152  31.927  58.769  1.00  0.00    -0.267 OA
BRANCH  14  17
HETATM   17  C   UNL     1       6.043  32.502  60.769  1.00  0.00     0.035 A 
HETATM   18  C   UNL     1       6.892  32.510  61.875  1.00  0.00     0.030 A 
HETATM   19  C   UNL     1       6.830  33.546  62.813  1.00  0.00     0.009 A 
HETATM   20  C   UNL     1       5.922  34.600  62.656  1.00  0.00    -0.058 A 
HETATM   21  C   UNL     1       5.052  34.579  61.562  1.00  0.00     0.009 A 
HETATM   22  C   UNL     1       5.108  33.535  60.632  1.00  0.00     0.030 A 
BRANCH  20  23
HETATM   23  C   UNL     1       5.912  35.748  63.634  1.00  0.00     0.038 C 
BRANCH  23  24
HETATM   24  C   UNL     1       5.242  36.989  63.035  1.00  0.00     0.004 C 
BRANCH  24  25
HETATM   25  C   UNL     1       6.272  38.013  62.563  1.00  0.00    -0.004 C 
HETATM   26  C   UNL     1       6.438  39.137  63.575  1.00  0.00     0.005 C 
ENDBRANCH  24  25
ENDBRANCH  23  24
ENDBRANCH  20  23
ENDBRANCH  14  17
ENDBRANCH   1  13
BRANCH   6  27
HETATM   27  C   UNL     1       6.598  26.280  54.355  1.00  0.00     0.060 A 
HETATM   28  C   UNL     1       7.408  26.222  53.214  1.00  0.00     0.032 A 
HETATM   29  C   UNL     1       7.964  25.006  52.805  1.00  0.00     0.009 A 
HETATM   30  C   UNL     1       7.720  23.832  53.526  1.00  0.00    -0.062 A 
HETATM   31  C   UNL     1       8.290  22.520  53.077  1.00  0.00     0.048 C 
HETATM   32  C   UNL     1       6.886  23.886  54.648  1.00  0.00     0.009 A 
HETATM   33  C   UNL     1       6.322  25.099  55.057  1.00  0.00     0.032 A 
ENDBRANCH   6  27
TORSDOF 6
ENDMDL
MODEL 9
REMARK VINA RESULT:      -9.3      2.363     10.693
REMARK  6 active torsions:
REMARK  status: ('A' for Active; 'I' for Inactive)
REMARK    1  A    between atoms: C_2  and  C_3 
REMARK    2  A    between atoms: C_3  and  C_4 
REMARK    3  A    between atoms: C_4  and  C_5 
REMARK    4  A    between atoms: C_8  and  N_9 
REMARK       I    between atoms: N_9  and  C_10 
REMARK    5  A    between atoms: C_10  and  C_11 
REMARK    6  A    between atoms: N_16  and  C_17 
ROOT
HETATM    1  C   UNL     1       7.952  28.925  57.050  1.00  0.00     0.098 A 
HETATM    2  C   UNL     1       7.751  27.440  57.185  1.00  0.00     0.205 A 
HETATM    3  O   UNL     1       7.983  26.841  58.231  1.00  0.00    -0.286 OA
HETATM    4  C   UNL     1       7.258  26.794  55.985  1.00  0.00     0.087 A 
HETATM    5  C   UNL     1       6.925  27.515  54.864  1.00  0.00     0.145 A 
HETATM    6  N   UNL     1       6.429  26.624  53.927  1.00  0.00    -0.216 N 
HETATM    7  N   UNL     1       6.617  25.339  54.360  1.00  0.00    -0.170 NA
HETATM    8  C   UNL     1       7.054  25.450  55.623  1.00  0.00     0.069 C 
HETATM    9  C   UNL     1       7.308  24.238  56.440  1.00  0.00     0.073 C 
HETATM   10  N   UNL     1       7.117  28.853  54.774  1.00  0.00    -0.349 N 
HETATM   11  C   UNL     1       7.644  29.511  55.871  1.00  0.00     0.111 A 
HETATM   12  H   UNL     1       7.100  29.370  53.896  1.00  0.00     0.167 HD
ENDROOT
BRANCH   1  13
HETATM   13  C   UNL     1       8.453  29.802  58.152  1.00  0.00     0.261 C 
HETATM   14  N   UNL     1       7.579  29.954  59.208  1.00  0.00    -0.323 N 
HETATM   15  H   UNL     1       6.711  29.420  59.171  1.00  0.00     0.169 HD
HETATM   16  O   UNL     1       9.551  30.344  58.043  1.00  0.00    -0.267 OA
BRANCH  14  17
HETATM   17  C   UNL     1       7.705  30.828  60.309  1.00  0.00     0.035 A 
HETATM   18  C   UNL     1       6.962  31.998  60.467  1.00  0.00     0.030 A 
HETATM   19  C   UNL     1       7.101  32.779  61.619  1.00  0.00     0.009 A 
HETATM   20  C   UNL     1       7.980  32.399  62.640  1.00  0.00    -0.058 A 
HETATM   21  C   UNL     1       8.744  31.241  62.471  1.00  0.00     0.009 A 
HETATM   22  C   UNL     1       8.612  30.467  61.312  1.00  0.00     0.030 A 
BRANCH  20  23
HETATM   23  C   UNL     1       8.069  33.210  63.909  1.00  0.00     0.038 C 
BRANCH  23  24
HETATM   24  C   UNL     1       6.819  34.072  64.113  1.00  0.00     0.004 C 
BRANCH  24  25
HETATM   25  C   UNL     1       5.915  33.503  65.206  1.00  0.00    -0.004 C 
HETATM   26  C   UNL     1       6.121  34.229  66.527  1.00  0.00     0.005 C 
ENDBRANCH  24  25
ENDBRANCH  23  24
ENDBRANCH  20  23
ENDBRANCH  14  17
ENDBRANCH   1  13
BRANCH   6  27
HETATM   27  C   UNL     1       5.765  26.873  52.692  1.00  0.00     0.060 A 
HETATM   28  C   UNL     1       5.976  26.063  51.569  1.00  0.00     0.032 A 
HETATM   29  C   UNL     1       5.323  26.343  50.364  1.00  0.00     0.009 A 
HETATM   30  C   UNL     1       4.453  27.434  50.262  1.00  0.00    -0.062 A 
HETATM   31  C   UNL     1       3.771  27.756  48.965  1.00  0.00     0.048 C 
HETATM   32  C   UNL     1       4.266  28.260  51.376  1.00  0.00     0.009 A 
HETATM   33  C   UNL     1       4.922  27.987  52.581  1.00  0.00     0.032 A 
ENDBRANCH   6  27
TORSDOF 6
ENDMDL
MODEL 10
REMARK VINA RESULT:      -9.2      2.290     10.587
REMARK  6 active torsions:
REMARK  status: ('A' for Active; 'I' for Inactive)
REMARK    1  A    between atoms: C_2  and  C_3 
REMARK    2  A    between atoms: C_3  and  C_4 
REMARK    3  A    between atoms: C_4  and  C_5 
REMARK    4  A    between atoms: C_8  and  N_9 
REMARK       I    between atoms: N_9  and  C_10 
REMARK    5  A    between atoms: C_10  and  C_11 
REMARK    6  A    between atoms: N_16  and  C_17 
ROOT
HETATM    1  C   UNL     1       4.658  29.605  56.901  1.00  0.00     0.098 A 
HETATM    2  C   UNL     1       4.109  29.735  55.506  1.00  0.00     0.205 A 
HETATM    3  O   UNL     1       3.473  30.720  55.141  1.00  0.00    -0.286 OA
HETATM    4  C   UNL     1       4.403  28.608  54.643  1.00  0.00     0.087 A 
HETATM    5  C   UNL     1       5.195  27.567  55.063  1.00  0.00     0.145 A 
HETATM    6  N   UNL     1       5.337  26.696  53.996  1.00  0.00    -0.216 N 
HETATM    7  N   UNL     1       4.503  27.065  52.976  1.00  0.00    -0.170 NA
HETATM    8  C   UNL     1       3.995  28.251  53.345  1.00  0.00     0.069 C 
HETATM    9  C   UNL     1       3.083  28.992  52.440  1.00  0.00     0.073 C 
HETATM   10  N   UNL     1       5.675  27.480  56.327  1.00  0.00    -0.349 N 
HETATM   11  C   UNL     1       5.372  28.500  57.211  1.00  0.00     0.111 A 
HETATM   12  H   UNL     1       6.061  26.626  56.729  1.00  0.00     0.167 HD
ENDROOT
BRANCH   1  13
HETATM   13  C   UNL     1       4.480  30.640  57.966  1.00  0.00     0.261 C 
HETATM   14  N   UNL     1       5.656  31.114  58.509  1.00  0.00    -0.323 N 
HETATM   15  H   UNL     1       6.526  30.767  58.104  1.00  0.00     0.169 HD
HETATM   16  O   UNL     1       3.346  30.967  58.309  1.00  0.00    -0.267 OA
BRANCH  14  17
HETATM   17  C   UNL     1       5.806  31.970  59.621  1.00  0.00     0.035 A 
HETATM   18  C   UNL     1       4.836  32.877  60.046  1.00  0.00     0.030 A 
HETATM   19  C   UNL     1       5.037  33.647  61.196  1.00  0.00     0.009 A 
HETATM   20  C   UNL     1       6.210  33.517  61.949  1.00  0.00    -0.058 A 
HETATM   21  C   UNL     1       7.195  32.628  61.508  1.00  0.00     0.009 A 
HETATM   22  C   UNL     1       6.996  31.867  60.351  1.00  0.00     0.030 A 
BRANCH  20  23
HETATM   23  C   UNL     1       6.385  34.300  63.226  1.00  0.00     0.038 C 
BRANCH  23  24
HETATM   24  C   UNL     1       7.436  33.657  64.137  1.00  0.00     0.004 C 
BRANCH  24  25
HETATM   25  C   UNL     1       6.971  33.614  65.592  1.00  0.00    -0.004 C 
HETATM   26  C   UNL     1       5.562  34.170  65.738  1.00  0.00     0.005 C 
ENDBRANCH  24  25
ENDBRANCH  23  24
ENDBRANCH  20  23
ENDBRANCH  14  17
ENDBRANCH   1  13
BRANCH   6  27
HETATM   27  C   UNL     1       6.209  25.580  53.838  1.00  0.00     0.060 A 
HETATM   28  C   UNL     1       6.943  25.383  52.662  1.00  0.00     0.032 A 
HETATM   29  C   UNL     1       7.778  24.268  52.530  1.00  0.00     0.009 A 
HETATM   30  C   UNL     1       7.890  23.335  53.565  1.00  0.00    -0.062 A 
HETATM   31  C   UNL     1       8.761  22.123  53.419  1.00  0.00     0.048 C 
HETATM   32  C   UNL     1       7.133  23.517  54.728  1.00  0.00     0.009 A 
HETATM   33  C   UNL     1       6.293  24.627  54.862  1.00  0.00     0.032 A 
ENDBRANCH   6  27
TORSDOF 6
ENDMDL
