MODEL 1
REMARK VINA RESULT:      -9.6      0.000      0.000
REMARK  7 active torsions:
REMARK  status: ('A' for Active; 'I' for Inactive)
REMARK    1  A    between atoms: C_3  and  C_4 
REMARK       I    between atoms: C_4  and  N_5 
REMARK    2  A    between atoms: N_5  and  C_6 
REMARK    3  A    between atoms: C_6  and  C_7 
REMARK    4  A    between atoms: C_13  and  N_14 
REMARK    5  A    between atoms: N_14  and  C_15 
REMARK    6  A    between atoms: C_15  and  N_16 
REMARK       I    between atoms: N_16  and  C_17 
REMARK    7  A    between atoms: C_17  and  C_18 
ROOT
HETATM    1  C   UNL     1      10.735  31.158  57.909  1.00  0.00     0.001 A 
HETATM    2  C   UNL     1       9.551  31.611  58.487  1.00  0.00     0.019 A 
HETATM    3  C   UNL     1       8.407  30.792  58.522  1.00  0.00     0.058 A 
HETATM    4  C   UNL     1       8.447  29.502  57.958  1.00  0.00     0.050 A 
HETATM    5  C   UNL     1       9.648  29.068  57.375  1.00  0.00     0.030 A 
HETATM    6  C   UNL     1      10.782  29.885  57.357  1.00  0.00     0.002 A 
ENDROOT
BRANCH   4   7
HETATM    7  N   UNL     1       7.269  28.717  57.851  1.00  0.00    -0.332 N 
HETATM    8  H   UNL     1       6.790  28.521  58.735  1.00  0.00     0.168 HD
BRANCH   7   9
HETATM    9  C   UNL     1       6.661  28.192  56.738  1.00  0.00     0.179 C 
HETATM   10  S   UNL     1       5.366  28.822  55.884  1.00  0.00    -0.040 SA
BRANCH   9  11
HETATM   11  N   UNL     1       7.197  27.013  56.259  1.00  0.00    -0.299 N 
HETATM   12  C   UNL     1       7.650  25.921  56.983  1.00  0.00     0.257 C 
HETATM   13  O   UNL     1       7.896  25.943  58.184  1.00  0.00    -0.267 OA
HETATM   14  H   UNL     1       7.040  26.907  55.266  1.00  0.00     0.171 HD
BRANCH  12  15
HETATM   15  C   UNL     1       7.822  24.660  56.215  1.00  0.00     0.035 A 
HETATM   16  C   UNL     1       8.104  23.440  56.840  1.00  0.00     0.041 A 
HETATM   17  C   UNL     1       8.300  22.299  56.060  1.00  0.00     0.036 A 
HETATM   18 CL   UNL     1       8.663  20.802  56.827  1.00  0.00    -0.084 Cl
HETATM   19  C   UNL     1       8.212  22.359  54.671  1.00  0.00     0.047 A 
HETATM   20  C   UNL     1       7.909  23.572  54.059  1.00  0.00     0.036 A 
HETATM   21 CL   UNL     1       7.798  23.653  52.344  1.00  0.00    -0.084 Cl
HETATM   22  C   UNL     1       7.707  24.721  54.820  1.00  0.00     0.041 A 
ENDBRANCH  12  15
ENDBRANCH   9  11
ENDBRANCH   7   9
ENDBRANCH   4   7
BRANCH   3  23
HETATM   23  C   UNL     1       7.233  31.360  59.247  1.00  0.00     0.254 C 
HETATM   24  N   UNL     1       7.490  31.985  60.446  1.00  0.00    -0.351 N 
HETATM   25  H   UNL     1       8.452  32.168  60.713  1.00  0.00     0.163 HD
HETATM   26  O   UNL     1       6.118  31.328  58.737  1.00  0.00    -0.268 OA
BRANCH  24  27
HETATM   27  C   UNL     1       6.484  32.830  61.045  1.00  0.00     0.187 C 
BRANCH  27  28
HETATM   28  C   UNL     1       6.835  33.132  62.454  1.00  0.00     0.070 A 
HETATM   29  O   UNL     1       6.065  34.044  63.123  1.00  0.00    -0.325 OA
HETATM   30  C   UNL     1       6.563  34.133  64.383  1.00  0.00     0.142 A 
HETATM   31  C   UNL     1       7.636  33.288  64.540  1.00  0.00     0.027 A 
HETATM   32  C   UNL     1       7.812  32.638  63.296  1.00  0.00     0.036 A 
ENDBRANCH  27  28
ENDBRANCH  24  27
ENDBRANCH   3  23
TORSDOF 7
ENDMDL
MODEL 2
REMARK VINA RESULT:      -9.4      0.166      1.682
REMARK  7 active torsions:
REMARK  status: ('A' for Active; 'I' for Inactive)
REMARK    1  A    between atoms: C_3  and  C_4 
REMARK       I    between atoms: C_4  and  N_5 
REMARK    2  A    between atoms: N_5  and  C_6 
REMARK    3  A    between atoms: C_6  and  C_7 
REMARK    4  A    between atoms: C_13  and  N_14 
REMARK    5  A    between atoms: N_14  and  C_15 
REMARK    6  A    between atoms: C_15  and  N_16 
REMARK       I    between atoms: N_16  and  C_17 
REMARK    7  A    between atoms: C_17  and  C_18 
ROOT
HETATM    1  C   UNL     1      10.669  31.100  57.812  1.00  0.00     0.001 A 
HETATM    2  C   UNL     1       9.520  31.594  58.423  1.00  0.00     0.019 A 
HETATM    3  C   UNL     1       8.371  30.791  58.554  1.00  0.00     0.058 A 
HETATM    4  C   UNL     1       8.371  29.474  58.050  1.00  0.00     0.050 A 
HETATM    5  C   UNL     1       9.538  29.000  57.432  1.00  0.00     0.030 A 
HETATM    6  C   UNL     1      10.678  29.802  57.319  1.00  0.00     0.002 A 
ENDROOT
BRANCH   4   7
HETATM    7  N   UNL     1       7.182  28.699  58.038  1.00  0.00    -0.332 N 
HETATM    8  H   UNL     1       6.754  28.538  58.955  1.00  0.00     0.168 HD
BRANCH   7   9
HETATM    9  C   UNL     1       6.506  28.144  56.981  1.00  0.00     0.179 C 
HETATM   10  S   UNL     1       5.083  28.678  56.280  1.00  0.00    -0.040 SA
BRANCH   9  11
HETATM   11  N   UNL     1       7.083  27.023  56.419  1.00  0.00    -0.299 N 
HETATM   12  C   UNL     1       7.602  25.911  57.066  1.00  0.00     0.257 C 
HETATM   13  O   UNL     1       7.876  25.872  58.260  1.00  0.00    -0.267 OA
HETATM   14  H   UNL     1       6.907  26.968  55.425  1.00  0.00     0.171 HD
BRANCH  12  15
HETATM   15  C   UNL     1       7.812  24.707  56.219  1.00  0.00     0.035 A 
HETATM   16  C   UNL     1       7.747  24.759  54.822  1.00  0.00     0.041 A 
HETATM   17  C   UNL     1       7.906  23.584  54.085  1.00  0.00     0.036 A 
HETATM   18 CL   UNL     1       7.811  23.645  52.368  1.00  0.00    -0.084 Cl
HETATM   19  C   UNL     1       8.134  22.366  54.720  1.00  0.00     0.047 A 
HETATM   20  C   UNL     1       8.219  22.328  56.109  1.00  0.00     0.036 A 
HETATM   21 CL   UNL     1       8.500  20.827  56.902  1.00  0.00    -0.084 Cl
HETATM   22  C   UNL     1       8.066  23.489  56.863  1.00  0.00     0.041 A 
ENDBRANCH  12  15
ENDBRANCH   9  11
ENDBRANCH   7   9
ENDBRANCH   4   7
BRANCH   3  23
HETATM   23  C   UNL     1       7.239  31.405  59.306  1.00  0.00     0.254 C 
HETATM   24  N   UNL     1       7.563  32.111  60.443  1.00  0.00    -0.351 N 
HETATM   25  H   UNL     1       8.538  32.311  60.640  1.00  0.00     0.163 HD
HETATM   26  O   UNL     1       6.096  31.339  58.866  1.00  0.00    -0.268 OA
BRANCH  24  27
HETATM   27  C   UNL     1       6.590  32.994  61.042  1.00  0.00     0.187 C 
BRANCH  27  28
HETATM   28  C   UNL     1       6.905  33.214  62.474  1.00  0.00     0.070 A 
HETATM   29  O   UNL     1       6.251  34.225  63.124  1.00  0.00    -0.325 OA
HETATM   30  C   UNL     1       6.686  34.215  64.410  1.00  0.00     0.142 A 
HETATM   31  C   UNL     1       7.604  33.209  64.602  1.00  0.00     0.027 A 
HETATM   32  C   UNL     1       7.745  32.560  63.353  1.00  0.00     0.036 A 
ENDBRANCH  27  28
ENDBRANCH  24  27
ENDBRANCH   3  23
TORSDOF 7
ENDMDL
MODEL 3
REMARK VINA RESULT:      -9.2      1.764      2.510
REMARK  7 active torsions:
REMARK  status: ('A' for Active; 'I' for Inactive)
REMARK    1  A    between atoms: C_3  and  C_4 
REMARK       I    between atoms: C_4  and  N_5 
REMARK    2  A    between atoms: N_5  and  C_6 
REMARK    3  A    between atoms: C_6  and  C_7 
REMARK    4  A    between atoms: C_13  and  N_14 
REMARK    5  A    between atoms: N_14  and  C_15 
REMARK    6  A    between atoms: C_15  and  N_16 
REMARK       I    between atoms: N_16  and  C_17 
REMARK    7  A    between atoms: C_17  and  C_18 
ROOT
HETATM    1  C   UNL     1       4.381  31.795  56.911  1.00  0.00     0.001 A 
HETATM    2  C   UNL     1       5.305  32.070  57.917  1.00  0.00     0.019 A 
HETATM    3  C   UNL     1       6.340  31.163  58.212  1.00  0.00     0.058 A 
HETATM    4  C   UNL     1       6.442  29.954  57.496  1.00  0.00     0.050 A 
HETATM    5  C   UNL     1       5.497  29.694  56.492  1.00  0.00     0.030 A 
HETATM    6  C   UNL     1       4.480  30.608  56.198  1.00  0.00     0.002 A 
ENDROOT
BRANCH   4   7
HETATM    7  N   UNL     1       7.384  28.961  57.873  1.00  0.00    -0.332 N 
HETATM    8  H   UNL     1       7.177  28.469  58.747  1.00  0.00     0.168 HD
BRANCH   7   9
HETATM    9  C   UNL     1       8.525  28.546  57.235  1.00  0.00     0.179 C 
HETATM   10  S   UNL     1       9.936  29.413  56.987  1.00  0.00    -0.040 SA
BRANCH   9  11
HETATM   11  N   UNL     1       8.510  27.250  56.757  1.00  0.00    -0.299 N 
HETATM   12  C   UNL     1       8.032  26.111  57.385  1.00  0.00     0.257 C 
HETATM   13  O   UNL     1       7.791  26.033  58.584  1.00  0.00    -0.267 OA
HETATM   14  H   UNL     1       8.700  27.215  55.764  1.00  0.00     0.171 HD
BRANCH  12  15
HETATM   15  C   UNL     1       7.799  24.935  56.506  1.00  0.00     0.035 A 
HETATM   16  C   UNL     1       8.198  23.643  56.868  1.00  0.00     0.041 A 
HETATM   17  C   UNL     1       7.992  22.588  55.978  1.00  0.00     0.036 A 
HETATM   18 CL   UNL     1       8.497  21.002  56.416  1.00  0.00    -0.084 Cl
HETATM   19  C   UNL     1       7.390  22.802  54.741  1.00  0.00     0.047 A 
HETATM   20  C   UNL     1       6.976  24.087  54.397  1.00  0.00     0.036 A 
HETATM   21 CL   UNL     1       6.232  24.360  52.871  1.00  0.00    -0.084 Cl
HETATM   22  C   UNL     1       7.170  25.153  55.273  1.00  0.00     0.041 A 
ENDBRANCH  12  15
ENDBRANCH   9  11
ENDBRANCH   7   9
ENDBRANCH   4   7
BRANCH   3  23
HETATM   23  C   UNL     1       7.314  31.615  59.247  1.00  0.00     0.254 C 
HETATM   24  N   UNL     1       6.946  31.441  60.561  1.00  0.00    -0.351 N 
HETATM   25  H   UNL     1       6.121  30.891  60.775  1.00  0.00     0.163 HD
HETATM   26  O   UNL     1       8.416  32.041  58.915  1.00  0.00    -0.268 OA
BRANCH  24  27
HETATM   27  C   UNL     1       7.938  31.546  61.605  1.00  0.00     0.187 C 
BRANCH  27  28
HETATM   28  C   UNL     1       7.375  32.248  62.784  1.00  0.00     0.070 A 
HETATM   29  O   UNL     1       6.013  32.325  62.891  1.00  0.00    -0.325 OA
HETATM   30  C   UNL     1       5.743  32.984  64.047  1.00  0.00     0.142 A 
HETATM   31  C   UNL     1       6.909  33.327  64.691  1.00  0.00     0.027 A 
HETATM   32  C   UNL     1       7.963  32.850  63.878  1.00  0.00     0.036 A 
ENDBRANCH  27  28
ENDBRANCH  24  27
ENDBRANCH   3  23
TORSDOF 7
ENDMDL
MODEL 4
REMARK VINA RESULT:      -9.0      4.635      9.863
REMARK  7 active torsions:
REMARK  status: ('A' for Active; 'I' for Inactive)
REMARK    1  A    between atoms: C_3  and  C_4 
REMARK       I    between atoms: C_4  and  N_5 
REMARK    2  A    between atoms: N_5  and  C_6 
REMARK    3  A    between atoms: C_6  and  C_7 
REMARK    4  A    between atoms: C_13  and  N_14 
REMARK    5  A    between atoms: N_14  and  C_15 
REMARK    6  A    between atoms: C_15  and  N_16 
REMARK       I    between atoms: N_16  and  C_17 
REMARK    7  A    between atoms: C_17  and  C_18 
ROOT
HETATM    1  C   UNL     1      10.986  29.871  56.974  1.00  0.00     0.001 A 
HETATM    2  C   UNL     1       9.945  28.946  56.954  1.00  0.00     0.019 A 
HETATM    3  C   UNL     1       8.775  29.161  57.706  1.00  0.00     0.058 A 
HETATM    4  C   UNL     1       8.652  30.318  58.502  1.00  0.00     0.050 A 
HETATM    5  C   UNL     1       9.717  31.233  58.513  1.00  0.00     0.030 A 
HETATM    6  C   UNL     1      10.869  31.015  57.752  1.00  0.00     0.002 A 
ENDROOT
BRANCH   4   7
HETATM    7  N   UNL     1       7.549  30.484  59.380  1.00  0.00    -0.332 N 
HETATM    8  H   UNL     1       7.472  29.787  60.125  1.00  0.00     0.168 HD
BRANCH   7   9
HETATM    9  C   UNL     1       6.576  31.451  59.393  1.00  0.00     0.179 C 
HETATM   10  S   UNL     1       5.626  31.967  58.114  1.00  0.00    -0.040 SA
BRANCH   9  11
HETATM   11  N   UNL     1       6.344  32.056  60.612  1.00  0.00    -0.299 N 
HETATM   12  C   UNL     1       7.273  32.466  61.555  1.00  0.00     0.257 C 
HETATM   13  O   UNL     1       8.445  32.109  61.571  1.00  0.00    -0.267 OA
HETATM   14  H   UNL     1       5.392  32.388  60.691  1.00  0.00     0.171 HD
BRANCH  12  15
HETATM   15  C   UNL     1       6.774  33.412  62.588  1.00  0.00     0.035 A 
HETATM   16  C   UNL     1       7.063  33.251  63.948  1.00  0.00     0.041 A 
HETATM   17  C   UNL     1       6.526  34.147  64.874  1.00  0.00     0.036 A 
HETATM   18 CL   UNL     1       6.869  33.940  66.548  1.00  0.00    -0.084 Cl
HETATM   19  C   UNL     1       5.713  35.200  64.462  1.00  0.00     0.047 A 
HETATM   20  C   UNL     1       5.448  35.366  63.105  1.00  0.00     0.036 A 
HETATM   21 CL   UNL     1       4.446  36.664  62.588  1.00  0.00    -0.084 Cl
HETATM   22  C   UNL     1       5.977  34.484  62.165  1.00  0.00     0.041 A 
ENDBRANCH  12  15
ENDBRANCH   9  11
ENDBRANCH   7   9
ENDBRANCH   4   7
BRANCH   3  23
HETATM   23  C   UNL     1       7.700  28.143  57.528  1.00  0.00     0.254 C 
HETATM   24  N   UNL     1       8.107  26.844  57.321  1.00  0.00    -0.351 N 
HETATM   25  H   UNL     1       9.086  26.606  57.445  1.00  0.00     0.163 HD
HETATM   26  O   UNL     1       6.521  28.460  57.647  1.00  0.00    -0.268 OA
BRANCH  24  27
HETATM   27  C   UNL     1       7.159  25.764  57.461  1.00  0.00     0.187 C 
BRANCH  27  28
HETATM   28  C   UNL     1       7.516  24.643  56.557  1.00  0.00     0.070 A 
HETATM   29  O   UNL     1       8.773  24.111  56.666  1.00  0.00    -0.325 OA
HETATM   30  C   UNL     1       8.853  23.100  55.763  1.00  0.00     0.142 A 
HETATM   31  C   UNL     1       7.667  22.966  55.080  1.00  0.00     0.027 A 
HETATM   32  C   UNL     1       6.802  23.961  55.593  1.00  0.00     0.036 A 
ENDBRANCH  27  28
ENDBRANCH  24  27
ENDBRANCH   3  23
TORSDOF 7
ENDMDL
MODEL 5
REMARK VINA RESULT:      -9.0      1.438      2.362
REMARK  7 active torsions:
REMARK  status: ('A' for Active; 'I' for Inactive)
REMARK    1  A    between atoms: C_3  and  C_4 
REMARK       I    between atoms: C_4  and  N_5 
REMARK    2  A    between atoms: N_5  and  C_6 
REMARK    3  A    between atoms: C_6  and  C_7 
REMARK    4  A    between atoms: C_13  and  N_14 
REMARK    5  A    between atoms: N_14  and  C_15 
REMARK    6  A    between atoms: C_15  and  N_16 
REMARK       I    between atoms: N_16  and  C_17 
REMARK    7  A    between atoms: C_17  and  C_18 
ROOT
HETATM    1  C   UNL     1       9.874  32.017  59.468  1.00  0.00     0.001 A 
HETATM    2  C   UNL     1       8.626  32.276  60.030  1.00  0.00     0.019 A 
HETATM    3  C   UNL     1       7.498  31.520  59.659  1.00  0.00     0.058 A 
HETATM    4  C   UNL     1       7.622  30.495  58.699  1.00  0.00     0.050 A 
HETATM    5  C   UNL     1       8.888  30.255  58.142  1.00  0.00     0.030 A 
HETATM    6  C   UNL     1      10.004  31.005  58.528  1.00  0.00     0.002 A 
ENDROOT
BRANCH   4   7
HETATM    7  N   UNL     1       6.476  29.819  58.203  1.00  0.00    -0.332 N 
HETATM    8  H   UNL     1       5.727  29.667  58.884  1.00  0.00     0.168 HD
BRANCH   7   9
HETATM    9  C   UNL     1       6.211  29.352  56.940  1.00  0.00     0.179 C 
HETATM   10  S   UNL     1       5.338  30.109  55.729  1.00  0.00    -0.040 SA
BRANCH   9  11
HETATM   11  N   UNL     1       6.745  28.117  56.631  1.00  0.00    -0.299 N 
HETATM   12  C   UNL     1       6.091  26.898  56.544  1.00  0.00     0.257 C 
HETATM   13  O   UNL     1       4.973  26.680  56.997  1.00  0.00    -0.267 OA
HETATM   14  H   UNL     1       7.676  28.198  56.245  1.00  0.00     0.171 HD
BRANCH  12  15
HETATM   15  C   UNL     1       6.825  25.817  55.835  1.00  0.00     0.035 A 
HETATM   16  C   UNL     1       7.102  25.879  54.465  1.00  0.00     0.041 A 
HETATM   17  C   UNL     1       7.754  24.810  53.848  1.00  0.00     0.036 A 
HETATM   18 CL   UNL     1       8.081  24.879  52.160  1.00  0.00    -0.084 Cl
HETATM   19  C   UNL     1       8.138  23.688  54.579  1.00  0.00     0.047 A 
HETATM   20  C   UNL     1       7.878  23.644  55.946  1.00  0.00     0.036 A 
HETATM   21 CL   UNL     1       8.349  22.262  56.855  1.00  0.00    -0.084 Cl
HETATM   22  C   UNL     1       7.231  24.702  56.581  1.00  0.00     0.041 A 
ENDBRANCH  12  15
ENDBRANCH   9  11
ENDBRANCH   7   9
ENDBRANCH   4   7
BRANCH   3  23
HETATM   23  C   UNL     1       6.241  31.836  60.397  1.00  0.00     0.254 C 
HETATM   24  N   UNL     1       6.222  31.541  61.741  1.00  0.00    -0.351 N 
HETATM   25  H   UNL     1       7.086  31.269  62.200  1.00  0.00     0.163 HD
HETATM   26  O   UNL     1       5.317  32.407  59.827  1.00  0.00    -0.268 OA
BRANCH  24  27
HETATM   27  C   UNL     1       5.192  32.099  62.584  1.00  0.00     0.187 C 
BRANCH  27  28
HETATM   28  C   UNL     1       5.797  32.792  63.748  1.00  0.00     0.070 A 
HETATM   29  O   UNL     1       4.963  33.193  64.756  1.00  0.00    -0.325 OA
HETATM   30  C   UNL     1       5.741  33.774  65.705  1.00  0.00     0.142 A 
HETATM   31  C   UNL     1       7.064  33.748  65.329  1.00  0.00     0.027 A 
HETATM   32  C   UNL     1       7.101  33.111  64.066  1.00  0.00     0.036 A 
ENDBRANCH  27  28
ENDBRANCH  24  27
ENDBRANCH   3  23
TORSDOF 7
ENDMDL
MODEL 6
REMARK VINA RESULT:      -8.9      4.127      9.636
REMARK  7 active torsions:
REMARK  status: ('A' for Active; 'I' for Inactive)
REMARK    1  A    between atoms: C_3  and  C_4 
REMARK       I    between atoms: C_4  and  N_5 
REMARK    2  A    between atoms: N_5  and  C_6 
REMARK    3  A    between atoms: C_6  and  C_7 
REMARK    4  A    between atoms: C_13  and  N_14 
REMARK    5  A    between atoms: N_14  and  C_15 
REMARK    6  A    between atoms: C_15  and  N_16 
REMARK       I    between atoms: N_16  and  C_17 
REMARK    7  A    between atoms: C_17  and  C_18 
ROOT
HETATM    1  C   UNL     1       4.978  26.275  50.286  1.00  0.00     0.001 A 
HETATM    2  C   UNL     1       5.322  25.620  51.466  1.00  0.00     0.019 A 
HETATM    3  C   UNL     1       5.671  26.349  52.619  1.00  0.00     0.058 A 
HETATM    4  C   UNL     1       5.689  27.758  52.583  1.00  0.00     0.050 A 
HETATM    5  C   UNL     1       5.346  28.396  51.381  1.00  0.00     0.030 A 
HETATM    6  C   UNL     1       4.988  27.662  50.246  1.00  0.00     0.002 A 
ENDROOT
BRANCH   4   7
HETATM    7  N   UNL     1       6.178  28.508  53.684  1.00  0.00    -0.332 N 
HETATM    8  H   UNL     1       7.195  28.502  53.802  1.00  0.00     0.168 HD
BRANCH   7   9
HETATM    9  C   UNL     1       5.495  29.259  54.607  1.00  0.00     0.179 C 
HETATM   10  S   UNL     1       3.847  29.539  54.684  1.00  0.00    -0.040 SA
BRANCH   9  11
HETATM   11  N   UNL     1       6.262  29.835  55.600  1.00  0.00    -0.299 N 
HETATM   12  C   UNL     1       6.525  29.348  56.872  1.00  0.00     0.257 C 
HETATM   13  O   UNL     1       5.891  28.449  57.411  1.00  0.00    -0.267 OA
HETATM   14  H   UNL     1       6.827  30.595  55.245  1.00  0.00     0.171 HD
BRANCH  12  15
HETATM   15  C   UNL     1       7.668  29.978  57.584  1.00  0.00     0.035 A 
HETATM   16  C   UNL     1       7.483  30.901  58.619  1.00  0.00     0.041 A 
HETATM   17  C   UNL     1       8.596  31.493  59.217  1.00  0.00     0.036 A 
HETATM   18 CL   UNL     1       8.369  32.640  60.480  1.00  0.00    -0.084 Cl
HETATM   19  C   UNL     1       9.886  31.171  58.802  1.00  0.00     0.047 A 
HETATM   20  C   UNL     1      10.062  30.235  57.787  1.00  0.00     0.036 A 
HETATM   21 CL   UNL     1      11.652  29.833  57.269  1.00  0.00    -0.084 Cl
HETATM   22  C   UNL     1       8.964  29.632  57.179  1.00  0.00     0.041 A 
ENDBRANCH  12  15
ENDBRANCH   9  11
ENDBRANCH   7   9
ENDBRANCH   4   7
BRANCH   3  23
HETATM   23  C   UNL     1       5.931  25.534  53.840  1.00  0.00     0.254 C 
HETATM   24  N   UNL     1       6.455  24.276  53.645  1.00  0.00    -0.351 N 
HETATM   25  H   UNL     1       6.779  24.014  52.720  1.00  0.00     0.163 HD
HETATM   26  O   UNL     1       5.753  26.015  54.954  1.00  0.00    -0.268 OA
BRANCH  24  27
HETATM   27  C   UNL     1       7.030  23.557  54.757  1.00  0.00     0.187 C 
BRANCH  27  28
HETATM   28  C   UNL     1       7.632  22.284  54.292  1.00  0.00     0.070 A 
HETATM   29  O   UNL     1       7.938  21.340  55.235  1.00  0.00    -0.325 OA
HETATM   30  C   UNL     1       8.449  20.271  54.573  1.00  0.00     0.142 A 
HETATM   31  C   UNL     1       8.472  20.506  53.218  1.00  0.00     0.027 A 
HETATM   32  C   UNL     1       7.942  21.805  53.035  1.00  0.00     0.036 A 
ENDBRANCH  27  28
ENDBRANCH  24  27
ENDBRANCH   3  23
TORSDOF 7
ENDMDL
MODEL 7
REMARK VINA RESULT:      -8.9      4.470      7.378
REMARK  7 active torsions:
REMARK  status: ('A' for Active; 'I' for Inactive)
REMARK    1  A    between atoms: C_3  and  C_4 
REMARK       I    between atoms: C_4  and  N_5 
REMARK    2  A    between atoms: N_5  and  C_6 
REMARK    3  A    between atoms: C_6  and  C_7 
REMARK    4  A    between atoms: C_13  and  N_14 
REMARK    5  A    between atoms: N_14  and  C_15 
REMARK    6  A    between atoms: C_15  and  N_16 
REMARK       I    between atoms: N_16  and  C_17 
REMARK    7  A    between atoms: C_17  and  C_18 
ROOT
HETATM    1  C   UNL     1       9.258  22.716  54.897  1.00  0.00     0.001 A 
HETATM    2  C   UNL     1       8.690  23.663  55.745  1.00  0.00     0.019 A 
HETATM    3  C   UNL     1       7.440  24.239  55.449  1.00  0.00     0.058 A 
HETATM    4  C   UNL     1       6.754  23.868  54.275  1.00  0.00     0.050 A 
HETATM    5  C   UNL     1       7.348  22.916  53.431  1.00  0.00     0.030 A 
HETATM    6  C   UNL     1       8.584  22.341  53.743  1.00  0.00     0.002 A 
ENDROOT
BRANCH   4   7
HETATM    7  N   UNL     1       5.567  24.539  53.882  1.00  0.00    -0.332 N 
HETATM    8  H   UNL     1       4.693  24.089  54.167  1.00  0.00     0.168 HD
BRANCH   7   9
HETATM    9  C   UNL     1       5.411  25.714  53.190  1.00  0.00     0.179 C 
HETATM   10  S   UNL     1       5.709  25.995  51.567  1.00  0.00    -0.040 SA
BRANCH   9  11
HETATM   11  N   UNL     1       4.935  26.784  53.920  1.00  0.00    -0.299 N 
HETATM   12  C   UNL     1       5.634  27.893  54.372  1.00  0.00     0.257 C 
HETATM   13  O   UNL     1       6.857  27.965  54.422  1.00  0.00    -0.267 OA
HETATM   14  H   UNL     1       3.924  26.809  53.934  1.00  0.00     0.171 HD
BRANCH  12  15
HETATM   15  C   UNL     1       4.807  29.052  54.799  1.00  0.00     0.035 A 
HETATM   16  C   UNL     1       4.549  29.326  56.147  1.00  0.00     0.041 A 
HETATM   17  C   UNL     1       3.725  30.402  56.482  1.00  0.00     0.036 A 
HETATM   18 CL   UNL     1       3.395  30.730  58.138  1.00  0.00    -0.084 Cl
HETATM   19  C   UNL     1       3.165  31.209  55.494  1.00  0.00     0.047 A 
HETATM   20  C   UNL     1       3.444  30.942  54.157  1.00  0.00     0.036 A 
HETATM   21 CL   UNL     1       2.756  31.933  52.931  1.00  0.00    -0.084 Cl
HETATM   22  C   UNL     1       4.266  29.874  53.801  1.00  0.00     0.041 A 
ENDBRANCH  12  15
ENDBRANCH   9  11
ENDBRANCH   7   9
ENDBRANCH   4   7
BRANCH   3  23
HETATM   23  C   UNL     1       6.902  25.172  56.480  1.00  0.00     0.254 C 
HETATM   24  N   UNL     1       7.772  26.117  56.974  1.00  0.00    -0.351 N 
HETATM   25  H   UNL     1       8.673  26.243  56.525  1.00  0.00     0.163 HD
HETATM   26  O   UNL     1       5.717  25.129  56.795  1.00  0.00    -0.268 OA
BRANCH  24  27
HETATM   27  C   UNL     1       7.261  27.244  57.719  1.00  0.00     0.187 C 
BRANCH  27  28
HETATM   28  C   UNL     1       8.243  28.356  57.709  1.00  0.00     0.070 A 
HETATM   29  O   UNL     1       8.169  29.282  58.715  1.00  0.00    -0.325 OA
HETATM   30  C   UNL     1       9.169  30.174  58.505  1.00  0.00     0.142 A 
HETATM   31  C   UNL     1       9.892  29.837  57.384  1.00  0.00     0.027 A 
HETATM   32  C   UNL     1       9.296  28.661  56.871  1.00  0.00     0.036 A 
ENDBRANCH  27  28
ENDBRANCH  24  27
ENDBRANCH   3  23
TORSDOF 7
ENDMDL
MODEL 8
REMARK VINA RESULT:      -8.7      4.737      9.659
REMARK  7 active torsions:
REMARK  status: ('A' for Active; 'I' for Inactive)
REMARK    1  A    between atoms: C_3  and  C_4 
REMARK       I    between atoms: C_4  and  N_5 
REMARK    2  A    between atoms: N_5  and  C_6 
REMARK    3  A    between atoms: C_6  and  C_7 
REMARK    4  A    between atoms: C_13  and  N_14 
REMARK    5  A    between atoms: N_14  and  C_15 
REMARK    6  A    between atoms: C_15  and  N_16 
REMARK       I    between atoms: N_16  and  C_17 
REMARK    7  A    between atoms: C_17  and  C_18 
ROOT
HETATM    1  C   UNL     1       7.796  22.557  53.279  1.00  0.00     0.001 A 
HETATM    2  C   UNL     1       7.430  23.828  52.844  1.00  0.00     0.019 A 
HETATM    3  C   UNL     1       7.449  24.925  53.726  1.00  0.00     0.058 A 
HETATM    4  C   UNL     1       7.830  24.740  55.070  1.00  0.00     0.050 A 
HETATM    5  C   UNL     1       8.189  23.449  55.488  1.00  0.00     0.030 A 
HETATM    6  C   UNL     1       8.179  22.370  54.600  1.00  0.00     0.002 A 
ENDROOT
BRANCH   4   7
HETATM    7  N   UNL     1       7.717  25.797  56.011  1.00  0.00    -0.332 N 
HETATM    8  H   UNL     1       8.553  26.379  56.121  1.00  0.00     0.168 HD
BRANCH   7   9
HETATM    9  C   UNL     1       6.649  26.172  56.787  1.00  0.00     0.179 C 
HETATM   10  S   UNL     1       5.175  25.394  56.946  1.00  0.00    -0.040 SA
BRANCH   9  11
HETATM   11  N   UNL     1       6.822  27.317  57.538  1.00  0.00    -0.299 N 
HETATM   12  C   UNL     1       7.903  28.186  57.538  1.00  0.00     0.257 C 
HETATM   13  O   UNL     1       9.001  27.923  57.061  1.00  0.00    -0.267 OA
HETATM   14  H   UNL     1       5.960  27.614  57.973  1.00  0.00     0.171 HD
BRANCH  12  15
HETATM   15  C   UNL     1       7.663  29.518  58.154  1.00  0.00     0.035 A 
HETATM   16  C   UNL     1       8.531  30.065  59.106  1.00  0.00     0.041 A 
HETATM   17  C   UNL     1       8.227  31.299  59.683  1.00  0.00     0.036 A 
HETATM   18 CL   UNL     1       9.286  31.964  60.865  1.00  0.00    -0.084 Cl
HETATM   19  C   UNL     1       7.076  31.994  59.318  1.00  0.00     0.047 A 
HETATM   20  C   UNL     1       6.230  31.453  58.355  1.00  0.00     0.036 A 
HETATM   21 CL   UNL     1       4.807  32.306  57.899  1.00  0.00    -0.084 Cl
HETATM   22  C   UNL     1       6.517  30.224  57.765  1.00  0.00     0.041 A 
ENDBRANCH  12  15
ENDBRANCH   9  11
ENDBRANCH   7   9
ENDBRANCH   4   7
BRANCH   3  23
HETATM   23  C   UNL     1       7.122  26.246  53.116  1.00  0.00     0.254 C 
HETATM   24  N   UNL     1       6.225  26.240  52.072  1.00  0.00    -0.351 N 
HETATM   25  H   UNL     1       5.718  25.387  51.860  1.00  0.00     0.163 HD
HETATM   26  O   UNL     1       7.580  27.278  53.595  1.00  0.00    -0.268 OA
BRANCH  24  27
HETATM   27  C   UNL     1       5.614  27.476  51.643  1.00  0.00     0.187 C 
BRANCH  27  28
HETATM   28  C   UNL     1       5.248  27.400  50.208  1.00  0.00     0.070 A 
HETATM   29  O   UNL     1       5.632  28.434  49.396  1.00  0.00    -0.325 OA
HETATM   30  C   UNL     1       5.208  28.129  48.143  1.00  0.00     0.142 A 
HETATM   31  C   UNL     1       4.564  26.914  48.131  1.00  0.00     0.027 A 
HETATM   32  C   UNL     1       4.592  26.441  49.464  1.00  0.00     0.036 A 
ENDBRANCH  27  28
ENDBRANCH  24  27
ENDBRANCH   3  23
TORSDOF 7
ENDMDL
MODEL 9
REMARK VINA RESULT:      -8.6      4.851      9.611
REMARK  7 active torsions:
REMARK  status: ('A' for Active; 'I' for Inactive)
REMARK    1  A    between atoms: C_3  and  C_4 
REMARK       I    between atoms: C_4  and  N_5 
REMARK    2  A    between atoms: N_5  and  C_6 
REMARK    3  A    between atoms: C_6  and  C_7 
REMARK    4  A    between atoms: C_13  and  N_14 
REMARK    5  A    between atoms: N_14  and  C_15 
REMARK    6  A    between atoms: C_15  and  N_16 
REMARK       I    between atoms: N_16  and  C_17 
REMARK    7  A    between atoms: C_17  and  C_18 
ROOT
HETATM    1  C   UNL     1       7.974  21.455  52.964  1.00  0.00     0.001 A 
HETATM    2  C   UNL     1       7.553  22.757  52.706  1.00  0.00     0.019 A 
HETATM    3  C   UNL     1       7.271  23.645  53.761  1.00  0.00     0.058 A 
HETATM    4  C   UNL     1       7.401  23.216  55.097  1.00  0.00     0.050 A 
HETATM    5  C   UNL     1       7.820  21.897  55.334  1.00  0.00     0.030 A 
HETATM    6  C   UNL     1       8.110  21.028  54.278  1.00  0.00     0.002 A 
ENDROOT
BRANCH   4   7
HETATM    7  N   UNL     1       6.984  24.043  56.173  1.00  0.00    -0.332 N 
HETATM    8  H   UNL     1       5.987  23.995  56.402  1.00  0.00     0.168 HD
BRANCH   7   9
HETATM    9  C   UNL     1       7.717  24.889  56.966  1.00  0.00     0.179 C 
HETATM   10  S   UNL     1       8.995  24.497  57.974  1.00  0.00    -0.040 SA
BRANCH   9  11
HETATM   11  N   UNL     1       7.367  26.223  56.909  1.00  0.00    -0.299 N 
HETATM   12  C   UNL     1       6.096  26.774  56.871  1.00  0.00     0.257 C 
HETATM   13  O   UNL     1       5.078  26.145  56.608  1.00  0.00    -0.267 OA
HETATM   14  H   UNL     1       8.152  26.826  57.117  1.00  0.00     0.171 HD
BRANCH  12  15
HETATM   15  C   UNL     1       6.008  28.224  57.190  1.00  0.00     0.035 A 
HETATM   16  C   UNL     1       4.840  28.965  56.973  1.00  0.00     0.041 A 
HETATM   17  C   UNL     1       4.835  30.333  57.248  1.00  0.00     0.036 A 
HETATM   18 CL   UNL     1       3.405  31.247  56.966  1.00  0.00    -0.084 Cl
HETATM   19  C   UNL     1       5.973  30.967  57.742  1.00  0.00     0.047 A 
HETATM   20  C   UNL     1       7.123  30.218  57.976  1.00  0.00     0.036 A 
HETATM   21 CL   UNL     1       8.532  30.994  58.586  1.00  0.00    -0.084 Cl
HETATM   22  C   UNL     1       7.148  28.851  57.710  1.00  0.00     0.041 A 
ENDBRANCH  12  15
ENDBRANCH   9  11
ENDBRANCH   7   9
ENDBRANCH   4   7
BRANCH   3  23
HETATM   23  C   UNL     1       6.917  25.036  53.354  1.00  0.00     0.254 C 
HETATM   24  N   UNL     1       5.735  25.197  52.667  1.00  0.00    -0.351 N 
HETATM   25  H   UNL     1       5.093  24.414  52.597  1.00  0.00     0.163 HD
HETATM   26  O   UNL     1       7.621  25.979  53.698  1.00  0.00    -0.268 OA
BRANCH  24  27
HETATM   27  C   UNL     1       5.163  26.514  52.520  1.00  0.00     0.187 C 
BRANCH  27  28
HETATM   28  C   UNL     1       5.074  26.882  51.086  1.00  0.00     0.070 A 
HETATM   29  O   UNL     1       4.636  25.927  50.208  1.00  0.00    -0.325 OA
HETATM   30  C   UNL     1       4.619  26.500  48.978  1.00  0.00     0.142 A 
HETATM   31  C   UNL     1       5.032  27.810  49.047  1.00  0.00     0.027 A 
HETATM   32  C   UNL     1       5.323  28.059  50.409  1.00  0.00     0.036 A 
ENDBRANCH  27  28
ENDBRANCH  24  27
ENDBRANCH   3  23
TORSDOF 7
ENDMDL
MODEL 10
REMARK VINA RESULT:      -8.4      4.736      9.559
REMARK  7 active torsions:
REMARK  status: ('A' for Active; 'I' for Inactive)
REMARK    1  A    between atoms: C_3  and  C_4 
REMARK       I    between atoms: C_4  and  N_5 
REMARK    2  A    between atoms: N_5  and  C_6 
REMARK    3  A    between atoms: C_6  and  C_7 
REMARK    4  A    between atoms: C_13  and  N_14 
REMARK    5  A    between atoms: N_14  and  C_15 
REMARK    6  A    between atoms: C_15  and  N_16 
REMARK       I    between atoms: N_16  and  C_17 
REMARK    7  A    between atoms: C_17  and  C_18 
ROOT
HETATM    1  C   UNL     1       8.142  22.471  53.801  1.00  0.00     0.001 A 
HETATM    2  C   UNL     1       7.166  23.251  53.187  1.00  0.00     0.019 A 
HETATM    3  C   UNL     1       6.780  24.488  53.738  1.00  0.00     0.058 A 
HETATM    4  C   UNL     1       7.374  24.942  54.933  1.00  0.00     0.050 A 
HETATM    5  C   UNL     1       8.351  24.136  55.538  1.00  0.00     0.030 A 
HETATM    6  C   UNL     1       8.736  22.915  54.974  1.00  0.00     0.002 A 
ENDROOT
BRANCH   4   7
HETATM    7  N   UNL     1       6.899  26.111  55.584  1.00  0.00    -0.332 N 
HETATM    8  H   UNL     1       6.170  25.956  56.287  1.00  0.00     0.168 HD
BRANCH   7   9
HETATM    9  C   UNL     1       7.281  27.419  55.429  1.00  0.00     0.179 C 
HETATM   10  S   UNL     1       7.860  28.161  54.045  1.00  0.00    -0.040 SA
BRANCH   9  11
HETATM   11  N   UNL     1       7.153  28.220  56.546  1.00  0.00    -0.299 N 
HETATM   12  C   UNL     1       8.159  28.774  57.323  1.00  0.00     0.257 C 
HETATM   13  O   UNL     1       9.331  28.415  57.295  1.00  0.00    -0.267 OA
HETATM   14  H   UNL     1       6.210  28.569  56.652  1.00  0.00     0.171 HD
BRANCH  12  15
HETATM   15  C   UNL     1       7.747  29.884  58.223  1.00  0.00     0.035 A 
HETATM   16  C   UNL     1       6.605  30.655  57.980  1.00  0.00     0.041 A 
HETATM   17  C   UNL     1       6.297  31.713  58.837  1.00  0.00     0.036 A 
HETATM   18 CL   UNL     1       4.901  32.671  58.529  1.00  0.00    -0.084 Cl
HETATM   19  C   UNL     1       7.107  32.006  59.931  1.00  0.00     0.047 A 
HETATM   20  C   UNL     1       8.229  31.220  60.178  1.00  0.00     0.036 A 
HETATM   21 CL   UNL     1       9.234  31.575  61.528  1.00  0.00    -0.084 Cl
HETATM   22  C   UNL     1       8.552  30.158  59.337  1.00  0.00     0.041 A 
ENDBRANCH  12  15
ENDBRANCH   9  11
ENDBRANCH   7   9
ENDBRANCH   4   7
BRANCH   3  23
HETATM   23  C   UNL     1       5.792  25.268  52.938  1.00  0.00     0.254 C 
HETATM   24  N   UNL     1       6.170  25.621  51.663  1.00  0.00    -0.351 N 
HETATM   25  H   UNL     1       7.016  25.222  51.269  1.00  0.00     0.163 HD
HETATM   26  O   UNL     1       4.675  25.498  53.390  1.00  0.00    -0.268 OA
BRANCH  24  27
HETATM   27  C   UNL     1       5.177  26.084  50.722  1.00  0.00     0.187 C 
BRANCH  27  28
HETATM   28  C   UNL     1       5.325  27.541  50.490  1.00  0.00     0.070 A 
HETATM   29  O   UNL     1       5.409  27.977  49.196  1.00  0.00    -0.325 OA
HETATM   30  C   UNL     1       5.515  29.329  49.240  1.00  0.00     0.142 A 
HETATM   31  C   UNL     1       5.493  29.774  50.541  1.00  0.00     0.027 A 
HETATM   32  C   UNL     1       5.368  28.621  51.350  1.00  0.00     0.036 A 
ENDBRANCH  27  28
ENDBRANCH  24  27
ENDBRANCH   3  23
TORSDOF 7
ENDMDL
