MODEL 1
REMARK VINA RESULT:      -9.5      0.000      0.000
REMARK  2 active torsions:
REMARK  status: ('A' for Active; 'I' for Inactive)
REMARK    1  A    between atoms: C_5  and  C_6 
REMARK       I    between atoms: C_6  and  N_7 
REMARK    2  A    between atoms: N_7  and  N_8 
ROOT
HETATM    1  N   UNL     1       7.083  25.634  56.051  1.00  0.00    -0.282 N 
HETATM    2  C   UNL     1       6.910  25.085  54.853  1.00  0.00     0.127 C 
HETATM    3  C   UNL     1       7.377  23.693  54.619  1.00  0.00     0.015 A 
HETATM    4  C   UNL     1       7.575  23.256  53.293  1.00  0.00    -0.042 A 
HETATM    5  C   UNL     1       8.051  21.965  53.030  1.00  0.00     0.008 A 
HETATM    6  C   UNL     1       8.295  21.084  54.080  1.00  0.00     0.001 A 
HETATM    7  C   UNL     1       8.067  21.488  55.392  1.00  0.00     0.001 A 
HETATM    8  C   UNL     1       7.610  22.780  55.661  1.00  0.00     0.016 A 
HETATM    9  C   UNL     1       7.300  24.210  52.159  1.00  0.00     0.069 C 
HETATM   10  C   UNL     1       6.135  25.162  52.496  1.00  0.00     0.028 C 
HETATM   11  C   UNL     1       6.111  26.322  51.495  1.00  0.00     0.038 C 
HETATM   12  C   UNL     1       4.776  24.452  52.492  1.00  0.00     0.038 C 
HETATM   13  N   UNL     1       6.337  25.748  53.850  1.00  0.00    -0.366 N 
HETATM   14  H   UNL     1       6.039  26.696  54.008  1.00  0.00     0.162 HD
HETATM   15  H   UNL     1       7.617  25.090  56.741  1.00  0.00     0.188 HD
ENDROOT
BRANCH   1  16
HETATM   16  N   UNL     1       6.673  26.825  56.483  1.00  0.00    -0.264 N 
HETATM   17  C   UNL     1       7.608  27.535  57.223  1.00  0.00     0.270 C 
HETATM   18  O   UNL     1       8.736  27.079  57.399  1.00  0.00    -0.266 OA
HETATM   19  H   UNL     1       5.757  27.198  56.267  1.00  0.00     0.190 HD
BRANCH  17  20
HETATM   20  C   UNL     1       7.202  28.860  57.756  1.00  0.00     0.033 A 
HETATM   21  C   UNL     1       8.042  29.633  58.566  1.00  0.00     0.017 A 
HETATM   22  C   UNL     1       7.608  30.877  59.034  1.00  0.00     0.007 A 
HETATM   23  C   UNL     1       6.336  31.360  58.701  1.00  0.00    -0.062 A 
HETATM   24  C   UNL     1       5.884  32.715  59.166  1.00  0.00     0.048 C 
HETATM   25  C   UNL     1       5.513  30.594  57.868  1.00  0.00     0.007 A 
HETATM   26  C   UNL     1       5.942  29.351  57.398  1.00  0.00     0.017 A 
ENDBRANCH  17  20
ENDBRANCH   1  16
TORSDOF 2
ENDMDL
MODEL 2
REMARK VINA RESULT:      -9.3      4.424      7.849
REMARK  2 active torsions:
REMARK  status: ('A' for Active; 'I' for Inactive)
REMARK    1  A    between atoms: C_5  and  C_6 
REMARK       I    between atoms: C_6  and  N_7 
REMARK    2  A    between atoms: N_7  and  N_8 
ROOT
HETATM    1  N   UNL     1       5.380  26.545  51.935  1.00  0.00    -0.282 N 
HETATM    2  C   UNL     1       4.838  26.931  50.785  1.00  0.00     0.127 C 
HETATM    3  C   UNL     1       4.604  28.379  50.543  1.00  0.00     0.015 A 
HETATM    4  C   UNL     1       3.683  28.762  49.546  1.00  0.00    -0.042 A 
HETATM    5  C   UNL     1       3.405  30.115  49.313  1.00  0.00     0.008 A 
HETATM    6  C   UNL     1       4.069  31.099  50.040  1.00  0.00     0.001 A 
HETATM    7  C   UNL     1       5.010  30.737  50.999  1.00  0.00     0.001 A 
HETATM    8  C   UNL     1       5.278  29.390  51.249  1.00  0.00     0.016 A 
HETATM    9  C   UNL     1       2.973  27.693  48.755  1.00  0.00     0.069 C 
HETATM   10  C   UNL     1       3.873  26.459  48.548  1.00  0.00     0.028 C 
HETATM   11  C   UNL     1       3.025  25.279  48.060  1.00  0.00     0.038 C 
HETATM   12  C   UNL     1       5.008  26.720  47.551  1.00  0.00     0.038 C 
HETATM   13  N   UNL     1       4.488  26.057  49.842  1.00  0.00    -0.366 N 
HETATM   14  H   UNL     1       4.631  25.077  50.018  1.00  0.00     0.162 HD
HETATM   15  H   UNL     1       5.535  27.271  52.646  1.00  0.00     0.188 HD
ENDROOT
BRANCH   1  16
HETATM   16  N   UNL     1       5.739  25.318  52.311  1.00  0.00    -0.264 N 
HETATM   17  C   UNL     1       6.753  25.268  53.258  1.00  0.00     0.270 C 
HETATM   18  O   UNL     1       7.221  26.305  53.722  1.00  0.00    -0.266 OA
HETATM   19  H   UNL     1       5.289  24.485  51.955  1.00  0.00     0.190 HD
BRANCH  17  20
HETATM   20  C   UNL     1       7.217  23.928  53.699  1.00  0.00     0.033 A 
HETATM   21  C   UNL     1       7.729  22.980  52.807  1.00  0.00     0.017 A 
HETATM   22  C   UNL     1       8.159  21.736  53.282  1.00  0.00     0.007 A 
HETATM   23  C   UNL     1       8.079  21.428  54.646  1.00  0.00    -0.062 A 
HETATM   24  C   UNL     1       8.579  20.110  55.165  1.00  0.00     0.048 C 
HETATM   25  C   UNL     1       7.592  22.392  55.536  1.00  0.00     0.007 A 
HETATM   26  C   UNL     1       7.163  23.635  55.067  1.00  0.00     0.017 A 
ENDBRANCH  17  20
ENDBRANCH   1  16
TORSDOF 2
ENDMDL
MODEL 3
REMARK VINA RESULT:      -9.1      3.938      7.302
REMARK  2 active torsions:
REMARK  status: ('A' for Active; 'I' for Inactive)
REMARK    1  A    between atoms: C_5  and  C_6 
REMARK       I    between atoms: C_6  and  N_7 
REMARK    2  A    between atoms: N_7  and  N_8 
ROOT
HETATM    1  N   UNL     1       6.192  25.932  51.190  1.00  0.00    -0.282 N 
HETATM    2  C   UNL     1       6.308  25.890  52.513  1.00  0.00     0.127 C 
HETATM    3  C   UNL     1       6.887  24.679  53.153  1.00  0.00     0.015 A 
HETATM    4  C   UNL     1       6.642  24.450  54.523  1.00  0.00    -0.042 A 
HETATM    5  C   UNL     1       7.137  23.302  55.155  1.00  0.00     0.008 A 
HETATM    6  C   UNL     1       7.913  22.393  54.441  1.00  0.00     0.001 A 
HETATM    7  C   UNL     1       8.197  22.626  53.099  1.00  0.00     0.001 A 
HETATM    8  C   UNL     1       7.691  23.759  52.459  1.00  0.00     0.016 A 
HETATM    9  C   UNL     1       5.810  25.443  55.294  1.00  0.00     0.069 C 
HETATM   10  C   UNL     1       6.022  26.878  54.772  1.00  0.00     0.028 C 
HETATM   11  C   UNL     1       4.925  27.794  55.325  1.00  0.00     0.038 C 
HETATM   12  C   UNL     1       7.398  27.442  55.147  1.00  0.00     0.038 C 
HETATM   13  N   UNL     1       5.911  26.899  53.288  1.00  0.00    -0.366 N 
HETATM   14  H   UNL     1       5.503  27.708  52.852  1.00  0.00     0.162 HD
HETATM   15  H   UNL     1       6.434  25.077  50.673  1.00  0.00     0.188 HD
ENDROOT
BRANCH   1  16
HETATM   16  N   UNL     1       5.777  26.941  50.427  1.00  0.00    -0.264 N 
HETATM   17  C   UNL     1       4.706  26.645  49.595  1.00  0.00     0.270 C 
HETATM   18  O   UNL     1       4.182  25.533  49.629  1.00  0.00    -0.266 OA
HETATM   19  H   UNL     1       6.191  27.863  50.468  1.00  0.00     0.190 HD
BRANCH  17  20
HETATM   20  C   UNL     1       4.212  27.720  48.698  1.00  0.00     0.033 A 
HETATM   21  C   UNL     1       5.075  28.610  48.046  1.00  0.00     0.017 A 
HETATM   22  C   UNL     1       4.552  29.599  47.207  1.00  0.00     0.007 A 
HETATM   23  C   UNL     1       3.169  29.711  47.013  1.00  0.00    -0.062 A 
HETATM   24  C   UNL     1       2.608  30.744  46.078  1.00  0.00     0.048 C 
HETATM   25  C   UNL     1       2.315  28.800  47.645  1.00  0.00     0.007 A 
HETATM   26  C   UNL     1       2.832  27.810  48.483  1.00  0.00     0.017 A 
ENDBRANCH  17  20
ENDBRANCH   1  16
TORSDOF 2
ENDMDL
MODEL 4
REMARK VINA RESULT:      -9.1      3.643      7.736
REMARK  2 active torsions:
REMARK  status: ('A' for Active; 'I' for Inactive)
REMARK    1  A    between atoms: C_5  and  C_6 
REMARK       I    between atoms: C_6  and  N_7 
REMARK    2  A    between atoms: N_7  and  N_8 
ROOT
HETATM    1  N   UNL     1       5.777  25.819  51.012  1.00  0.00    -0.282 N 
HETATM    2  C   UNL     1       5.290  27.052  51.109  1.00  0.00     0.127 C 
HETATM    3  C   UNL     1       5.146  27.874  49.878  1.00  0.00     0.015 A 
HETATM    4  C   UNL     1       5.031  29.273  50.004  1.00  0.00    -0.042 A 
HETATM    5  C   UNL     1       4.932  30.087  48.869  1.00  0.00     0.008 A 
HETATM    6  C   UNL     1       4.906  29.514  47.600  1.00  0.00     0.001 A 
HETATM    7  C   UNL     1       4.978  28.131  47.461  1.00  0.00     0.001 A 
HETATM    8  C   UNL     1       5.095  27.316  48.589  1.00  0.00     0.016 A 
HETATM    9  C   UNL     1       5.050  29.888  51.380  1.00  0.00     0.069 C 
HETATM   10  C   UNL     1       4.393  28.959  52.420  1.00  0.00     0.028 C 
HETATM   11  C   UNL     1       4.735  29.442  53.833  1.00  0.00     0.038 C 
HETATM   12  C   UNL     1       2.870  28.882  52.259  1.00  0.00     0.038 C 
HETATM   13  N   UNL     1       4.935  27.579  52.279  1.00  0.00    -0.366 N 
HETATM   14  H   UNL     1       5.051  27.027  53.111  1.00  0.00     0.162 HD
HETATM   15  H   UNL     1       6.114  25.521  50.088  1.00  0.00     0.188 HD
ENDROOT
BRANCH   1  16
HETATM   16  N   UNL     1       5.911  24.905  51.971  1.00  0.00    -0.264 N 
HETATM   17  C   UNL     1       7.221  24.635  52.344  1.00  0.00     0.270 C 
HETATM   18  O   UNL     1       8.152  25.254  51.834  1.00  0.00    -0.266 OA
HETATM   19  H   UNL     1       5.119  24.458  52.415  1.00  0.00     0.190 HD
BRANCH  17  20
HETATM   20  C   UNL     1       7.440  23.604  53.390  1.00  0.00     0.033 A 
HETATM   21  C   UNL     1       7.251  23.864  54.752  1.00  0.00     0.017 A 
HETATM   22  C   UNL     1       7.466  22.851  55.692  1.00  0.00     0.007 A 
HETATM   23  C   UNL     1       7.873  21.574  55.283  1.00  0.00    -0.062 A 
HETATM   24  C   UNL     1       8.062  20.472  56.286  1.00  0.00     0.048 C 
HETATM   25  C   UNL     1       8.032  21.314  53.917  1.00  0.00     0.007 A 
HETATM   26  C   UNL     1       7.818  22.321  52.975  1.00  0.00     0.017 A 
ENDBRANCH  17  20
ENDBRANCH   1  16
TORSDOF 2
ENDMDL
MODEL 5
REMARK VINA RESULT:      -8.8      3.486      5.856
REMARK  2 active torsions:
REMARK  status: ('A' for Active; 'I' for Inactive)
REMARK    1  A    between atoms: C_5  and  C_6 
REMARK       I    between atoms: C_6  and  N_7 
REMARK    2  A    between atoms: N_7  and  N_8 
ROOT
HETATM    1  N   UNL     1       7.226  24.629  52.385  1.00  0.00    -0.282 N 
HETATM    2  C   UNL     1       7.423  24.250  53.643  1.00  0.00     0.127 C 
HETATM    3  C   UNL     1       7.751  22.829  53.930  1.00  0.00     0.015 A 
HETATM    4  C   UNL     1       7.560  22.337  55.238  1.00  0.00    -0.042 A 
HETATM    5  C   UNL     1       7.820  20.995  55.541  1.00  0.00     0.008 A 
HETATM    6  C   UNL     1       8.311  20.140  54.558  1.00  0.00     0.001 A 
HETATM    7  C   UNL     1       8.544  20.621  53.273  1.00  0.00     0.001 A 
HETATM    8  C   UNL     1       8.269  21.954  52.960  1.00  0.00     0.016 A 
HETATM    9  C   UNL     1       7.037  23.269  56.301  1.00  0.00     0.069 C 
HETATM   10  C   UNL     1       7.537  24.710  56.080  1.00  0.00     0.028 C 
HETATM   11  C   UNL     1       6.724  25.677  56.948  1.00  0.00     0.038 C 
HETATM   12  C   UNL     1       9.029  24.869  56.394  1.00  0.00     0.038 C 
HETATM   13  N   UNL     1       7.327  25.106  54.660  1.00  0.00    -0.366 N 
HETATM   14  H   UNL     1       7.087  26.062  54.462  1.00  0.00     0.162 HD
HETATM   15  H   UNL     1       7.225  23.891  51.669  1.00  0.00     0.188 HD
ENDROOT
BRANCH   1  16
HETATM   16  N   UNL     1       7.001  25.854  51.915  1.00  0.00    -0.264 N 
HETATM   17  C   UNL     1       5.737  26.053  51.375  1.00  0.00     0.270 C 
HETATM   18  O   UNL     1       4.904  25.149  51.396  1.00  0.00    -0.266 OA
HETATM   19  H   UNL     1       7.688  26.595  51.970  1.00  0.00     0.190 HD
BRANCH  17  20
HETATM   20  C   UNL     1       5.432  27.391  50.809  1.00  0.00     0.033 A 
HETATM   21  C   UNL     1       5.598  28.572  51.541  1.00  0.00     0.017 A 
HETATM   22  C   UNL     1       5.301  29.805  50.952  1.00  0.00     0.007 A 
HETATM   23  C   UNL     1       4.837  29.872  49.632  1.00  0.00    -0.062 A 
HETATM   24  C   UNL     1       4.559  31.198  48.983  1.00  0.00     0.048 C 
HETATM   25  C   UNL     1       4.701  28.689  48.897  1.00  0.00     0.007 A 
HETATM   26  C   UNL     1       4.997  27.455  49.480  1.00  0.00     0.017 A 
ENDBRANCH  17  20
ENDBRANCH   1  16
TORSDOF 2
ENDMDL
MODEL 6
REMARK VINA RESULT:      -8.8      4.615     10.493
REMARK  2 active torsions:
REMARK  status: ('A' for Active; 'I' for Inactive)
REMARK    1  A    between atoms: C_5  and  C_6 
REMARK       I    between atoms: C_6  and  N_7 
REMARK    2  A    between atoms: N_7  and  N_8 
ROOT
HETATM    1  N   UNL     1       6.824  31.674  61.047  1.00  0.00    -0.282 N 
HETATM    2  C   UNL     1       5.969  32.544  61.573  1.00  0.00     0.127 C 
HETATM    3  C   UNL     1       6.181  33.018  62.966  1.00  0.00     0.015 A 
HETATM    4  C   UNL     1       5.098  33.595  63.661  1.00  0.00    -0.042 A 
HETATM    5  C   UNL     1       5.245  34.019  64.988  1.00  0.00     0.008 A 
HETATM    6  C   UNL     1       6.480  33.911  65.622  1.00  0.00     0.001 A 
HETATM    7  C   UNL     1       7.568  33.381  64.936  1.00  0.00     0.001 A 
HETATM    8  C   UNL     1       7.423  32.939  63.619  1.00  0.00     0.016 A 
HETATM    9  C   UNL     1       3.766  33.719  62.967  1.00  0.00     0.069 C 
HETATM   10  C   UNL     1       3.941  33.971  61.456  1.00  0.00     0.028 C 
HETATM   11  C   UNL     1       2.607  33.745  60.737  1.00  0.00     0.038 C 
HETATM   12  C   UNL     1       4.455  35.383  61.152  1.00  0.00     0.038 C 
HETATM   13  N   UNL     1       4.919  33.001  60.891  1.00  0.00    -0.366 N 
HETATM   14  H   UNL     1       4.770  32.664  59.956  1.00  0.00     0.162 HD
HETATM   15  H   UNL     1       7.553  31.300  61.669  1.00  0.00     0.188 HD
ENDROOT
BRANCH   1  16
HETATM   16  N   UNL     1       6.855  31.190  59.806  1.00  0.00    -0.264 N 
HETATM   17  C   UNL     1       7.976  30.430  59.501  1.00  0.00     0.270 C 
HETATM   18  O   UNL     1       8.826  30.205  60.360  1.00  0.00    -0.266 OA
HETATM   19  H   UNL     1       6.107  31.342  59.142  1.00  0.00     0.190 HD
BRANCH  17  20
HETATM   20  C   UNL     1       8.084  29.884  58.124  1.00  0.00     0.033 A 
HETATM   21  C   UNL     1       9.314  29.704  57.482  1.00  0.00     0.017 A 
HETATM   22  C   UNL     1       9.355  29.179  56.187  1.00  0.00     0.007 A 
HETATM   23  C   UNL     1       8.172  28.831  55.522  1.00  0.00    -0.062 A 
HETATM   24  C   UNL     1       8.215  28.226  54.147  1.00  0.00     0.048 C 
HETATM   25  C   UNL     1       6.948  28.987  56.181  1.00  0.00     0.007 A 
HETATM   26  C   UNL     1       6.902  29.510  57.474  1.00  0.00     0.017 A 
ENDBRANCH  17  20
ENDBRANCH   1  16
TORSDOF 2
ENDMDL
MODEL 7
REMARK VINA RESULT:      -8.7      1.650      8.107
REMARK  2 active torsions:
REMARK  status: ('A' for Active; 'I' for Inactive)
REMARK    1  A    between atoms: C_5  and  C_6 
REMARK       I    between atoms: C_6  and  N_7 
REMARK    2  A    between atoms: N_7  and  N_8 
ROOT
HETATM    1  N   UNL     1       8.009  28.543  57.239  1.00  0.00    -0.282 N 
HETATM    2  C   UNL     1       7.137  29.525  57.440  1.00  0.00     0.127 C 
HETATM    3  C   UNL     1       7.470  30.602  58.411  1.00  0.00     0.015 A 
HETATM    4  C   UNL     1       6.426  31.395  58.930  1.00  0.00    -0.042 A 
HETATM    5  C   UNL     1       6.691  32.394  59.875  1.00  0.00     0.008 A 
HETATM    6  C   UNL     1       7.999  32.640  60.282  1.00  0.00     0.001 A 
HETATM    7  C   UNL     1       9.044  31.893  59.748  1.00  0.00     0.001 A 
HETATM    8  C   UNL     1       8.784  30.883  58.819  1.00  0.00     0.016 A 
HETATM    9  C   UNL     1       5.012  31.131  58.479  1.00  0.00     0.069 C 
HETATM   10  C   UNL     1       4.969  30.656  57.014  1.00  0.00     0.028 C 
HETATM   11  C   UNL     1       3.588  30.071  56.701  1.00  0.00     0.038 C 
HETATM   12  C   UNL     1       5.286  31.782  56.022  1.00  0.00     0.038 C 
HETATM   13  N   UNL     1       5.968  29.572  56.804  1.00  0.00    -0.366 N 
HETATM   14  H   UNL     1       5.740  28.832  56.162  1.00  0.00     0.162 HD
HETATM   15  H   UNL     1       8.845  28.530  57.836  1.00  0.00     0.188 HD
ENDROOT
BRANCH   1  16
HETATM   16  N   UNL     1       7.937  27.538  56.367  1.00  0.00    -0.264 N 
HETATM   17  C   UNL     1       7.909  26.271  56.933  1.00  0.00     0.270 C 
HETATM   18  O   UNL     1       7.904  26.137  58.155  1.00  0.00    -0.266 OA
HETATM   19  H   UNL     1       7.880  27.686  55.368  1.00  0.00     0.190 HD
BRANCH  17  20
HETATM   20  C   UNL     1       7.856  25.107  56.014  1.00  0.00     0.033 A 
HETATM   21  C   UNL     1       7.292  25.184  54.735  1.00  0.00     0.017 A 
HETATM   22  C   UNL     1       7.278  24.055  53.910  1.00  0.00     0.007 A 
HETATM   23  C   UNL     1       7.822  22.843  54.351  1.00  0.00    -0.062 A 
HETATM   24  C   UNL     1       7.847  21.640  53.451  1.00  0.00     0.048 C 
HETATM   25  C   UNL     1       8.410  22.780  55.620  1.00  0.00     0.007 A 
HETATM   26  C   UNL     1       8.427  23.905  56.447  1.00  0.00     0.017 A 
ENDBRANCH  17  20
ENDBRANCH   1  16
TORSDOF 2
ENDMDL
MODEL 8
REMARK VINA RESULT:      -8.6      3.919      7.167
REMARK  2 active torsions:
REMARK  status: ('A' for Active; 'I' for Inactive)
REMARK    1  A    between atoms: C_5  and  C_6 
REMARK       I    between atoms: C_6  and  N_7 
REMARK    2  A    between atoms: N_7  and  N_8 
ROOT
HETATM    1  N   UNL     1       5.595  25.974  50.533  1.00  0.00    -0.282 N 
HETATM    2  C   UNL     1       4.863  27.039  50.225  1.00  0.00     0.127 C 
HETATM    3  C   UNL     1       3.964  26.985  49.042  1.00  0.00     0.015 A 
HETATM    4  C   UNL     1       3.512  28.194  48.475  1.00  0.00    -0.042 A 
HETATM    5  C   UNL     1       2.696  28.188  47.336  1.00  0.00     0.008 A 
HETATM    6  C   UNL     1       2.289  26.981  46.776  1.00  0.00     0.001 A 
HETATM    7  C   UNL     1       2.694  25.779  47.349  1.00  0.00     0.001 A 
HETATM    8  C   UNL     1       3.523  25.778  48.473  1.00  0.00     0.016 A 
HETATM    9  C   UNL     1       3.948  29.499  49.090  1.00  0.00     0.069 C 
HETATM   10  C   UNL     1       4.113  29.372  50.618  1.00  0.00     0.028 C 
HETATM   11  C   UNL     1       4.878  30.585  51.157  1.00  0.00     0.038 C 
HETATM   12  C   UNL     1       2.768  29.250  51.345  1.00  0.00     0.038 C 
HETATM   13  N   UNL     1       4.916  28.161  50.942  1.00  0.00    -0.366 N 
HETATM   14  H   UNL     1       5.538  28.199  51.730  1.00  0.00     0.162 HD
HETATM   15  H   UNL     1       5.567  25.182  49.877  1.00  0.00     0.188 HD
ENDROOT
BRANCH   1  16
HETATM   16  N   UNL     1       6.394  25.793  51.583  1.00  0.00    -0.264 N 
HETATM   17  C   UNL     1       5.845  25.046  52.616  1.00  0.00     0.270 C 
HETATM   18  O   UNL     1       4.719  24.565  52.505  1.00  0.00    -0.266 OA
HETATM   19  H   UNL     1       7.340  26.151  51.617  1.00  0.00     0.190 HD
BRANCH  17  20
HETATM   20  C   UNL     1       6.676  24.832  53.828  1.00  0.00     0.033 A 
HETATM   21  C   UNL     1       7.462  23.688  54.007  1.00  0.00     0.017 A 
HETATM   22  C   UNL     1       8.230  23.544  55.167  1.00  0.00     0.007 A 
HETATM   23  C   UNL     1       8.220  24.536  56.156  1.00  0.00    -0.062 A 
HETATM   24  C   UNL     1       9.078  24.405  57.382  1.00  0.00     0.048 C 
HETATM   25  C   UNL     1       7.455  25.690  55.956  1.00  0.00     0.007 A 
HETATM   26  C   UNL     1       6.686  25.839  54.800  1.00  0.00     0.017 A 
ENDBRANCH  17  20
ENDBRANCH   1  16
TORSDOF 2
ENDMDL
MODEL 9
REMARK VINA RESULT:      -8.5      5.073      7.023
REMARK  2 active torsions:
REMARK  status: ('A' for Active; 'I' for Inactive)
REMARK    1  A    between atoms: C_5  and  C_6 
REMARK       I    between atoms: C_6  and  N_7 
REMARK    2  A    between atoms: N_7  and  N_8 
ROOT
HETATM    1  N   UNL     1       7.812  31.230  59.638  1.00  0.00    -0.282 N 
HETATM    2  C   UNL     1       7.417  30.527  58.582  1.00  0.00     0.127 C 
HETATM    3  C   UNL     1       8.433  30.041  57.612  1.00  0.00     0.015 A 
HETATM    4  C   UNL     1       8.015  29.668  56.317  1.00  0.00    -0.042 A 
HETATM    5  C   UNL     1       8.945  29.242  55.361  1.00  0.00     0.008 A 
HETATM    6  C   UNL     1      10.293  29.144  55.695  1.00  0.00     0.001 A 
HETATM    7  C   UNL     1      10.716  29.470  56.980  1.00  0.00     0.001 A 
HETATM    8  C   UNL     1       9.795  29.913  57.933  1.00  0.00     0.016 A 
HETATM    9  C   UNL     1       6.553  29.767  55.964  1.00  0.00     0.069 C 
HETATM   10  C   UNL     1       5.659  29.470  57.184  1.00  0.00     0.028 C 
HETATM   11  C   UNL     1       4.222  29.914  56.891  1.00  0.00     0.038 C 
HETATM   12  C   UNL     1       5.668  27.987  57.571  1.00  0.00     0.038 C 
HETATM   13  N   UNL     1       6.132  30.250  58.360  1.00  0.00    -0.366 N 
HETATM   14  H   UNL     1       5.447  30.596  59.010  1.00  0.00     0.162 HD
HETATM   15  H   UNL     1       8.808  31.480  59.686  1.00  0.00     0.188 HD
ENDROOT
BRANCH   1  16
HETATM   16  N   UNL     1       7.078  31.685  60.652  1.00  0.00    -0.264 N 
HETATM   17  C   UNL     1       7.804  32.122  61.752  1.00  0.00     0.270 C 
HETATM   18  O   UNL     1       9.033  32.115  61.727  1.00  0.00    -0.266 OA
HETATM   19  H   UNL     1       6.068  31.735  60.615  1.00  0.00     0.190 HD
BRANCH  17  20
HETATM   20  C   UNL     1       7.043  32.616  62.927  1.00  0.00     0.033 A 
HETATM   21  C   UNL     1       5.644  32.658  62.952  1.00  0.00     0.017 A 
HETATM   22  C   UNL     1       4.981  33.127  64.091  1.00  0.00     0.007 A 
HETATM   23  C   UNL     1       5.705  33.558  65.210  1.00  0.00    -0.062 A 
HETATM   24  C   UNL     1       4.995  34.021  66.450  1.00  0.00     0.048 C 
HETATM   25  C   UNL     1       7.102  33.486  65.188  1.00  0.00     0.007 A 
HETATM   26  C   UNL     1       7.769  33.018  64.054  1.00  0.00     0.017 A 
ENDBRANCH  17  20
ENDBRANCH   1  16
TORSDOF 2
ENDMDL
MODEL 10
REMARK VINA RESULT:      -8.3      3.682      6.550
REMARK  2 active torsions:
REMARK  status: ('A' for Active; 'I' for Inactive)
REMARK    1  A    between atoms: C_5  and  C_6 
REMARK       I    between atoms: C_6  and  N_7 
REMARK    2  A    between atoms: N_7  and  N_8 
ROOT
HETATM    1  N   UNL     1       5.151  25.784  52.359  1.00  0.00    -0.282 N 
HETATM    2  C   UNL     1       5.714  25.618  53.551  1.00  0.00     0.127 C 
HETATM    3  C   UNL     1       6.594  24.442  53.780  1.00  0.00     0.015 A 
HETATM    4  C   UNL     1       6.855  24.035  55.105  1.00  0.00    -0.042 A 
HETATM    5  C   UNL     1       7.647  22.910  55.364  1.00  0.00     0.008 A 
HETATM    6  C   UNL     1       8.219  22.202  54.310  1.00  0.00     0.001 A 
HETATM    7  C   UNL     1       8.003  22.615  52.999  1.00  0.00     0.001 A 
HETATM    8  C   UNL     1       7.199  23.726  52.734  1.00  0.00     0.016 A 
HETATM    9  C   UNL     1       6.241  24.811  56.243  1.00  0.00     0.069 C 
HETATM   10  C   UNL     1       6.119  26.308  55.900  1.00  0.00     0.028 C 
HETATM   11  C   UNL     1       5.192  26.994  56.909  1.00  0.00     0.038 C 
HETATM   12  C   UNL     1       7.477  27.020  55.887  1.00  0.00     0.038 C 
HETATM   13  N   UNL     1       5.507  26.472  54.553  1.00  0.00    -0.366 N 
HETATM   14  H   UNL     1       4.897  27.256  54.399  1.00  0.00     0.162 HD
HETATM   15  H   UNL     1       5.285  25.033  51.670  1.00  0.00     0.188 HD
ENDROOT
BRANCH   1  16
HETATM   16  N   UNL     1       4.402  26.799  51.931  1.00  0.00    -0.264 N 
HETATM   17  C   UNL     1       4.521  27.087  50.579  1.00  0.00     0.270 C 
HETATM   18  O   UNL     1       5.240  26.398  49.858  1.00  0.00    -0.266 OA
HETATM   19  H   UNL     1       3.772  27.307  52.539  1.00  0.00     0.190 HD
BRANCH  17  20
HETATM   20  C   UNL     1       3.732  28.226  50.044  1.00  0.00     0.033 A 
HETATM   21  C   UNL     1       2.875  28.988  50.847  1.00  0.00     0.017 A 
HETATM   22  C   UNL     1       2.163  30.054  50.289  1.00  0.00     0.007 A 
HETATM   23  C   UNL     1       2.296  30.368  48.931  1.00  0.00    -0.062 A 
HETATM   24  C   UNL     1       1.566  31.540  48.339  1.00  0.00     0.048 C 
HETATM   25  C   UNL     1       3.177  29.619  48.141  1.00  0.00     0.007 A 
HETATM   26  C   UNL     1       3.891  28.554  48.693  1.00  0.00     0.017 A 
ENDBRANCH  17  20
ENDBRANCH   1  16
TORSDOF 2
ENDMDL
