MODEL 1
REMARK VINA RESULT:      -8.7      0.000      0.000
REMARK  9 active torsions:
REMARK  status: ('A' for Active; 'I' for Inactive)
REMARK       I    between atoms: C_2  and  N_3 
REMARK    1  A    between atoms: N_3  and  C_4 
REMARK    2  A    between atoms: C_4  and  C_5 
REMARK    3  A    between atoms: C_5  and  N_6 
REMARK       I    between atoms: N_6  and  C_7 
REMARK    4  A    between atoms: C_7  and  C_8 
REMARK    5  A    between atoms: C_8  and  C_9 
REMARK    6  A    between atoms: C_13  and  C_14 
REMARK    7  A    between atoms: C_14  and  O_15 
REMARK    8  A    between atoms: C_17  and  O_18 
REMARK    9  A    between atoms: C_25  and  C_26 
ROOT
HETATM    1  C   UNL     1       6.458  25.651  54.700  1.00  0.00     0.056 C 
HETATM    2  C   UNL     1       6.012  25.976  56.200  1.00  0.00    -0.030 C 
HETATM    3  C   UNL     1       4.681  25.234  56.518  1.00  0.00     0.016 C 
HETATM    4  C   UNL     1       5.783  27.539  56.449  1.00  0.00     0.012 C 
HETATM    5  C   UNL     1       7.094  28.429  56.605  1.00  0.00     0.008 C 
HETATM    6  C   UNL     1       6.703  29.795  57.244  1.00  0.00     0.020 C 
HETATM    7  C   UNL     1       8.066  27.731  57.607  1.00  0.00     0.128 C 
HETATM    8  C   UNL     1       8.337  26.273  57.260  1.00  0.00     0.033 C 
HETATM    9  C   UNL     1       7.041  25.480  57.248  1.00  0.00     0.013 C 
HETATM   10  C   UNL     1       4.726  28.120  55.470  1.00  0.00     0.054 C 
HETATM   11  C   UNL     1       4.962  27.634  54.088  1.00  0.00     0.010 A 
HETATM   12  C   UNL     1       5.721  26.546  53.725  1.00  0.00     0.054 A 
HETATM   13  N   UNL     1       5.830  26.351  52.360  1.00  0.00    -0.244 NA
HETATM   14  C   UNL     1       5.098  27.236  51.704  1.00  0.00     0.110 A 
HETATM   15  S   UNL     1       4.296  28.383  52.715  1.00  0.00    -0.072 SA
ENDROOT
BRANCH   1  16
HETATM   16  C   UNL     1       6.325  24.179  54.238  1.00  0.00     0.114 C 
BRANCH  16  17
HETATM   17  C   UNL     1       7.630  23.437  54.098  1.00  0.00     0.218 C 
HETATM   18  N   UNL     1       7.568  22.301  53.326  1.00  0.00    -0.359 N 
HETATM   19  H   UNL     1       6.670  21.913  53.069  1.00  0.00     0.162 HD
HETATM   20  O   UNL     1       8.661  23.825  54.638  1.00  0.00    -0.274 OA
BRANCH  18  21
HETATM   21  C   UNL     1       8.750  21.492  53.067  1.00  0.00     0.142 C 
BRANCH  21  22
HETATM   22  C   UNL     1       8.884  20.317  54.042  1.00  0.00     0.142 C 
BRANCH  22  23
HETATM   23  N   UNL     1       9.121  20.748  55.411  1.00  0.00    -0.360 N 
HETATM   24  C   UNL     1       8.114  20.749  56.346  1.00  0.00     0.213 C 
HETATM   25  C   UNL     1       8.541  21.190  57.721  1.00  0.00     0.117 C 
HETATM   26  O   UNL     1       6.961  20.417  56.098  1.00  0.00    -0.274 OA
HETATM   27  H   UNL     1      10.058  21.031  55.667  1.00  0.00     0.162 HD
ENDBRANCH  22  23
ENDBRANCH  21  22
ENDBRANCH  18  21
ENDBRANCH  16  17
ENDBRANCH   1  16
BRANCH   5  28
HETATM   28  C   UNL     1       7.803  28.752  55.260  1.00  0.00     0.176 C 
BRANCH  28  29
HETATM   29  O   UNL     1       8.855  29.702  55.414  1.00  0.00    -0.400 OA
HETATM   30  H   UNL     1       9.128  29.950  54.505  1.00  0.00     0.209 HD
ENDBRANCH  28  29
ENDBRANCH   5  28
BRANCH  14  31
HETATM   31  C   UNL     1       4.991  27.294  50.239  1.00  0.00     0.017 A 
HETATM   32  C   UNL     1       5.399  28.387  49.476  1.00  0.00     0.130 A 
HETATM   33  N   UNL     1       5.308  28.463  48.122  1.00  0.00    -0.272 NA
HETATM   34  C   UNL     1       4.780  27.396  47.489  1.00  0.00     0.116 A 
HETATM   35  C   UNL     1       4.334  26.261  48.144  1.00  0.00     0.020 A 
HETATM   36  C   UNL     1       4.440  26.217  49.533  1.00  0.00     0.017 A 
ENDBRANCH  14  31
BRANCH   7  37
HETATM   37  O   UNL     1       9.328  28.396  57.673  1.00  0.00    -0.395 OA
HETATM   38  H   UNL     1       9.510  28.761  56.787  1.00  0.00     0.210 HD
ENDBRANCH   7  37
TORSDOF 9
ENDMDL
MODEL 2
REMARK VINA RESULT:      -7.7      3.560      7.260
REMARK  9 active torsions:
REMARK  status: ('A' for Active; 'I' for Inactive)
REMARK       I    between atoms: C_2  and  N_3 
REMARK    1  A    between atoms: N_3  and  C_4 
REMARK    2  A    between atoms: C_4  and  C_5 
REMARK    3  A    between atoms: C_5  and  N_6 
REMARK       I    between atoms: N_6  and  C_7 
REMARK    4  A    between atoms: C_7  and  C_8 
REMARK    5  A    between atoms: C_8  and  C_9 
REMARK    6  A    between atoms: C_13  and  C_14 
REMARK    7  A    between atoms: C_14  and  O_15 
REMARK    8  A    between atoms: C_17  and  O_18 
REMARK    9  A    between atoms: C_25  and  C_26 
ROOT
HETATM    1  C   UNL     1       4.559  27.680  50.863  1.00  0.00     0.056 C 
HETATM    2  C   UNL     1       4.576  28.105  49.323  1.00  0.00    -0.030 C 
HETATM    3  C   UNL     1       5.987  28.647  48.949  1.00  0.00     0.016 C 
HETATM    4  C   UNL     1       3.501  29.238  48.985  1.00  0.00     0.012 C 
HETATM    5  C   UNL     1       1.984  28.765  48.877  1.00  0.00     0.008 C 
HETATM    6  C   UNL     1       1.161  29.870  48.149  1.00  0.00     0.020 C 
HETATM    7  C   UNL     1       1.912  27.491  47.979  1.00  0.00     0.128 C 
HETATM    8  C   UNL     1       2.881  26.398  48.412  1.00  0.00     0.033 C 
HETATM    9  C   UNL     1       4.311  26.909  48.373  1.00  0.00     0.013 C 
HETATM   10  C   UNL     1       3.717  30.504  49.860  1.00  0.00     0.054 C 
HETATM   11  C   UNL     1       3.956  30.132  51.277  1.00  0.00     0.010 A 
HETATM   12  C   UNL     1       4.330  28.893  51.743  1.00  0.00     0.054 A 
HETATM   13  N   UNL     1       4.422  28.800  53.119  1.00  0.00    -0.244 NA
HETATM   14  C   UNL     1       4.196  29.976  53.681  1.00  0.00     0.110 A 
HETATM   15  S   UNL     1       3.798  31.231  52.564  1.00  0.00    -0.072 SA
ENDROOT
BRANCH   1  16
HETATM   16  C   UNL     1       5.792  26.902  51.385  1.00  0.00     0.114 C 
BRANCH  16  17
HETATM   17  C   UNL     1       5.482  25.817  52.386  1.00  0.00     0.218 C 
HETATM   18  N   UNL     1       5.974  26.040  53.649  1.00  0.00    -0.359 N 
HETATM   19  H   UNL     1       6.659  26.769  53.804  1.00  0.00     0.162 HD
HETATM   20  O   UNL     1       4.840  24.817  52.083  1.00  0.00    -0.274 OA
BRANCH  18  21
HETATM   21  C   UNL     1       5.731  25.104  54.736  1.00  0.00     0.142 C 
BRANCH  21  22
HETATM   22  C   UNL     1       7.016  24.431  55.232  1.00  0.00     0.142 C 
BRANCH  22  23
HETATM   23  N   UNL     1       7.181  23.083  54.709  1.00  0.00    -0.360 N 
HETATM   24  C   UNL     1       7.788  22.853  53.498  1.00  0.00     0.213 C 
HETATM   25  C   UNL     1       7.907  21.399  53.126  1.00  0.00     0.117 C 
HETATM   26  O   UNL     1       8.205  23.748  52.771  1.00  0.00    -0.274 OA
HETATM   27  H   UNL     1       6.853  22.309  55.272  1.00  0.00     0.162 HD
ENDBRANCH  22  23
ENDBRANCH  21  22
ENDBRANCH  18  21
ENDBRANCH  16  17
ENDBRANCH   1  16
BRANCH   5  28
HETATM   28  C   UNL     1       1.297  28.529  50.251  1.00  0.00     0.176 C 
BRANCH  28  29
HETATM   29  O   UNL     1       0.602  29.684  50.717  1.00  0.00    -0.400 OA
HETATM   30  H   UNL     1      -0.121  29.841  50.072  1.00  0.00     0.209 HD
ENDBRANCH  28  29
ENDBRANCH   5  28
BRANCH  14  31
HETATM   31  C   UNL     1       4.227  30.217  55.131  1.00  0.00     0.017 A 
HETATM   32  C   UNL     1       3.185  30.811  55.839  1.00  0.00     0.130 A 
HETATM   33  N   UNL     1       3.192  31.045  57.178  1.00  0.00    -0.272 NA
HETATM   34  C   UNL     1       4.299  30.672  57.852  1.00  0.00     0.116 A 
HETATM   35  C   UNL     1       5.397  30.081  57.252  1.00  0.00     0.020 A 
HETATM   36  C   UNL     1       5.357  29.857  55.877  1.00  0.00     0.017 A 
ENDBRANCH  14  31
BRANCH   7  37
HETATM   37  O   UNL     1       0.602  26.922  47.969  1.00  0.00    -0.395 OA
HETATM   38  H   UNL     1       0.605  26.199  47.314  1.00  0.00     0.210 HD
ENDBRANCH   7  37
TORSDOF 9
ENDMDL
MODEL 3
REMARK VINA RESULT:      -7.6      3.069      7.621
REMARK  9 active torsions:
REMARK  status: ('A' for Active; 'I' for Inactive)
REMARK       I    between atoms: C_2  and  N_3 
REMARK    1  A    between atoms: N_3  and  C_4 
REMARK    2  A    between atoms: C_4  and  C_5 
REMARK    3  A    between atoms: C_5  and  N_6 
REMARK       I    between atoms: N_6  and  C_7 
REMARK    4  A    between atoms: C_7  and  C_8 
REMARK    5  A    between atoms: C_8  and  C_9 
REMARK    6  A    between atoms: C_13  and  C_14 
REMARK    7  A    between atoms: C_14  and  O_15 
REMARK    8  A    between atoms: C_17  and  O_18 
REMARK    9  A    between atoms: C_25  and  C_26 
ROOT
HETATM    1  C   UNL     1       7.427  26.208  53.868  1.00  0.00     0.056 C 
HETATM    2  C   UNL     1       6.417  24.972  53.789  1.00  0.00    -0.030 C 
HETATM    3  C   UNL     1       4.960  25.500  53.646  1.00  0.00     0.016 C 
HETATM    4  C   UNL     1       6.485  24.038  55.085  1.00  0.00     0.012 C 
HETATM    5  C   UNL     1       7.736  23.059  55.187  1.00  0.00     0.008 C 
HETATM    6  C   UNL     1       7.434  21.962  56.252  1.00  0.00     0.020 C 
HETATM    7  C   UNL     1       7.915  22.320  53.824  1.00  0.00     0.128 C 
HETATM    8  C   UNL     1       7.955  23.266  52.631  1.00  0.00     0.033 C 
HETATM    9  C   UNL     1       6.672  24.075  52.551  1.00  0.00     0.013 C 
HETATM   10  C   UNL     1       6.194  24.845  56.380  1.00  0.00     0.054 C 
HETATM   11  C   UNL     1       6.931  26.133  56.378  1.00  0.00     0.010 A 
HETATM   12  C   UNL     1       7.482  26.755  55.281  1.00  0.00     0.054 A 
HETATM   13  N   UNL     1       8.173  27.917  55.566  1.00  0.00    -0.244 NA
HETATM   14  C   UNL     1       8.079  28.211  56.853  1.00  0.00     0.110 A 
HETATM   15  S   UNL     1       7.199  27.051  57.782  1.00  0.00    -0.072 SA
ENDROOT
BRANCH   1  16
HETATM   16  C   UNL     1       7.176  27.376  52.883  1.00  0.00     0.114 C 
BRANCH  16  17
HETATM   17  C   UNL     1       5.829  28.042  53.017  1.00  0.00     0.218 C 
HETATM   18  N   UNL     1       5.061  28.025  51.876  1.00  0.00    -0.359 N 
HETATM   19  H   UNL     1       5.479  27.772  50.990  1.00  0.00     0.162 HD
HETATM   20  O   UNL     1       5.458  28.556  54.067  1.00  0.00    -0.274 OA
BRANCH  18  21
HETATM   21  C   UNL     1       3.723  28.596  51.852  1.00  0.00     0.142 C 
BRANCH  21  22
HETATM   22  C   UNL     1       3.222  28.859  50.428  1.00  0.00     0.142 C 
BRANCH  22  23
HETATM   23  N   UNL     1       2.908  27.635  49.707  1.00  0.00    -0.360 N 
HETATM   24  C   UNL     1       3.840  27.013  48.910  1.00  0.00     0.213 C 
HETATM   25  C   UNL     1       3.360  25.740  48.267  1.00  0.00     0.117 C 
HETATM   26  O   UNL     1       4.973  27.446  48.733  1.00  0.00    -0.274 OA
HETATM   27  H   UNL     1       1.986  27.237  49.821  1.00  0.00     0.162 HD
ENDBRANCH  22  23
ENDBRANCH  21  22
ENDBRANCH  18  21
ENDBRANCH  16  17
ENDBRANCH   1  16
BRANCH   5  28
HETATM   28  C   UNL     1       9.052  23.759  55.629  1.00  0.00     0.176 C 
BRANCH  28  29
HETATM   29  O   UNL     1       9.204  23.786  57.047  1.00  0.00    -0.400 OA
HETATM   30  H   UNL     1       9.944  23.175  57.249  1.00  0.00     0.209 HD
ENDBRANCH  28  29
ENDBRANCH   5  28
BRANCH  14  31
HETATM   31  C   UNL     1       8.697  29.389  57.477  1.00  0.00     0.017 A 
HETATM   32  C   UNL     1       8.047  30.206  58.402  1.00  0.00     0.130 A 
HETATM   33  N   UNL     1       8.598  31.300  58.990  1.00  0.00    -0.272 NA
HETATM   34  C   UNL     1       9.864  31.604  58.639  1.00  0.00     0.116 A 
HETATM   35  C   UNL     1      10.602  30.872  57.726  1.00  0.00     0.020 A 
HETATM   36  C   UNL     1      10.006  29.756  57.140  1.00  0.00     0.017 A 
ENDBRANCH  14  31
BRANCH   7  37
HETATM   37  O   UNL     1       9.114  21.544  53.795  1.00  0.00    -0.395 OA
HETATM   38  H   UNL     1       9.436  21.543  52.874  1.00  0.00     0.210 HD
ENDBRANCH   7  37
TORSDOF 9
ENDMDL
MODEL 4
REMARK VINA RESULT:      -7.6      3.387      7.693
REMARK  9 active torsions:
REMARK  status: ('A' for Active; 'I' for Inactive)
REMARK       I    between atoms: C_2  and  N_3 
REMARK    1  A    between atoms: N_3  and  C_4 
REMARK    2  A    between atoms: C_4  and  C_5 
REMARK    3  A    between atoms: C_5  and  N_6 
REMARK       I    between atoms: N_6  and  C_7 
REMARK    4  A    between atoms: C_7  and  C_8 
REMARK    5  A    between atoms: C_8  and  C_9 
REMARK    6  A    between atoms: C_13  and  C_14 
REMARK    7  A    between atoms: C_14  and  O_15 
REMARK    8  A    between atoms: C_17  and  O_18 
REMARK    9  A    between atoms: C_25  and  C_26 
ROOT
HETATM    1  C   UNL     1       7.376  26.241  53.877  1.00  0.00     0.056 C 
HETATM    2  C   UNL     1       6.377  24.995  53.803  1.00  0.00    -0.030 C 
HETATM    3  C   UNL     1       4.912  25.510  53.697  1.00  0.00     0.016 C 
HETATM    4  C   UNL     1       6.481  24.048  55.087  1.00  0.00     0.012 C 
HETATM    5  C   UNL     1       7.744  23.080  55.153  1.00  0.00     0.008 C 
HETATM    6  C   UNL     1       7.473  21.968  56.211  1.00  0.00     0.020 C 
HETATM    7  C   UNL     1       7.902  22.358  53.779  1.00  0.00     0.128 C 
HETATM    8  C   UNL     1       7.909  23.318  52.596  1.00  0.00     0.033 C 
HETATM    9  C   UNL     1       6.616  24.115  52.550  1.00  0.00     0.013 C 
HETATM   10  C   UNL     1       6.209  24.836  56.398  1.00  0.00     0.054 C 
HETATM   11  C   UNL     1       6.932  26.132  56.395  1.00  0.00     0.010 A 
HETATM   12  C   UNL     1       7.454  26.771  55.294  1.00  0.00     0.054 A 
HETATM   13  N   UNL     1       8.140  27.937  55.579  1.00  0.00    -0.244 NA
HETATM   14  C   UNL     1       8.069  28.216  56.870  1.00  0.00     0.110 A 
HETATM   15  S   UNL     1       7.220  27.037  57.804  1.00  0.00    -0.072 SA
ENDROOT
BRANCH   1  16
HETATM   16  C   UNL     1       7.094  27.417  52.911  1.00  0.00     0.114 C 
BRANCH  16  17
HETATM   17  C   UNL     1       5.785  28.130  53.143  1.00  0.00     0.218 C 
HETATM   18  N   UNL     1       5.751  28.920  54.268  1.00  0.00    -0.359 N 
HETATM   19  H   UNL     1       6.479  28.838  54.966  1.00  0.00     0.162 HD
HETATM   20  O   UNL     1       4.832  28.005  52.382  1.00  0.00    -0.274 OA
BRANCH  18  21
HETATM   21  C   UNL     1       4.572  29.699  54.614  1.00  0.00     0.142 C 
BRANCH  21  22
HETATM   22  C   UNL     1       3.842  29.148  55.844  1.00  0.00     0.142 C 
BRANCH  22  23
HETATM   23  N   UNL     1       4.254  29.797  57.079  1.00  0.00    -0.360 N 
HETATM   24  C   UNL     1       3.659  30.958  57.511  1.00  0.00     0.213 C 
HETATM   25  C   UNL     1       4.181  31.475  58.825  1.00  0.00     0.117 C 
HETATM   26  O   UNL     1       2.772  31.535  56.890  1.00  0.00    -0.274 OA
HETATM   27  H   UNL     1       4.982  29.360  57.628  1.00  0.00     0.162 HD
ENDBRANCH  22  23
ENDBRANCH  21  22
ENDBRANCH  18  21
ENDBRANCH  16  17
ENDBRANCH   1  16
BRANCH   5  28
HETATM   28  C   UNL     1       9.061  23.788  55.576  1.00  0.00     0.176 C 
BRANCH  28  29
HETATM   29  O   UNL     1       9.242  23.800  56.991  1.00  0.00    -0.400 OA
HETATM   30  H   UNL     1      10.150  24.140  57.143  1.00  0.00     0.209 HD
ENDBRANCH  28  29
ENDBRANCH   5  28
BRANCH  14  31
HETATM   31  C   UNL     1       8.687  29.393  57.496  1.00  0.00     0.017 A 
HETATM   32  C   UNL     1       8.031  30.224  58.402  1.00  0.00     0.130 A 
HETATM   33  N   UNL     1       8.582  31.318  58.991  1.00  0.00    -0.272 NA
HETATM   34  C   UNL     1       9.857  31.607  58.659  1.00  0.00     0.116 A 
HETATM   35  C   UNL     1      10.603  30.859  57.765  1.00  0.00     0.020 A 
HETATM   36  C   UNL     1      10.006  29.744  57.178  1.00  0.00     0.017 A 
ENDBRANCH  14  31
BRANCH   7  37
HETATM   37  O   UNL     1       9.108  21.594  53.716  1.00  0.00    -0.395 OA
HETATM   38  H   UNL     1       9.170  21.224  52.816  1.00  0.00     0.210 HD
ENDBRANCH   7  37
TORSDOF 9
ENDMDL
MODEL 5
REMARK VINA RESULT:      -7.5      5.322      9.053
REMARK  9 active torsions:
REMARK  status: ('A' for Active; 'I' for Inactive)
REMARK       I    between atoms: C_2  and  N_3 
REMARK    1  A    between atoms: N_3  and  C_4 
REMARK    2  A    between atoms: C_4  and  C_5 
REMARK    3  A    between atoms: C_5  and  N_6 
REMARK       I    between atoms: N_6  and  C_7 
REMARK    4  A    between atoms: C_7  and  C_8 
REMARK    5  A    between atoms: C_8  and  C_9 
REMARK    6  A    between atoms: C_13  and  C_14 
REMARK    7  A    between atoms: C_14  and  O_15 
REMARK    8  A    between atoms: C_17  and  O_18 
REMARK    9  A    between atoms: C_25  and  C_26 
ROOT
HETATM    1  C   UNL     1       7.498  29.561  57.531  1.00  0.00     0.056 C 
HETATM    2  C   UNL     1       8.132  28.566  56.453  1.00  0.00    -0.030 C 
HETATM    3  C   UNL     1       9.175  29.333  55.589  1.00  0.00     0.016 C 
HETATM    4  C   UNL     1       7.034  27.942  55.473  1.00  0.00     0.012 C 
HETATM    5  C   UNL     1       6.130  26.777  56.073  1.00  0.00     0.008 C 
HETATM    6  C   UNL     1       5.436  26.021  54.900  1.00  0.00     0.020 C 
HETATM    7  C   UNL     1       7.049  25.739  56.790  1.00  0.00     0.128 C 
HETATM    8  C   UNL     1       7.999  26.376  57.795  1.00  0.00     0.033 C 
HETATM    9  C   UNL     1       8.899  27.390  57.109  1.00  0.00     0.013 C 
HETATM   10  C   UNL     1       6.241  29.051  54.730  1.00  0.00     0.054 C 
HETATM   11  C   UNL     1       5.843  30.133  55.665  1.00  0.00     0.010 A 
HETATM   12  C   UNL     1       6.385  30.378  56.905  1.00  0.00     0.054 A 
HETATM   13  N   UNL     1       5.785  31.411  57.600  1.00  0.00    -0.244 NA
HETATM   14  C   UNL     1       4.853  31.990  56.862  1.00  0.00     0.110 A 
HETATM   15  S   UNL     1       4.621  31.261  55.314  1.00  0.00    -0.072 SA
ENDROOT
BRANCH   1  16
HETATM   16  C   UNL     1       8.477  30.514  58.260  1.00  0.00     0.114 C 
BRANCH  16  17
HETATM   17  C   UNL     1       8.287  30.598  59.754  1.00  0.00     0.218 C 
HETATM   18  N   UNL     1       7.229  31.377  60.158  1.00  0.00    -0.359 N 
HETATM   19  H   UNL     1       6.773  31.993  59.497  1.00  0.00     0.162 HD
HETATM   20  O   UNL     1       9.027  30.014  60.538  1.00  0.00    -0.274 OA
BRANCH  18  21
HETATM   21  C   UNL     1       6.892  31.532  61.565  1.00  0.00     0.142 C 
BRANCH  21  22
HETATM   22  C   UNL     1       6.394  32.943  61.899  1.00  0.00     0.142 C 
BRANCH  22  23
HETATM   23  N   UNL     1       6.879  33.419  63.185  1.00  0.00    -0.360 N 
HETATM   24  C   UNL     1       6.170  33.202  64.343  1.00  0.00     0.213 C 
HETATM   25  C   UNL     1       6.832  33.730  65.587  1.00  0.00     0.117 C 
HETATM   26  O   UNL     1       5.090  32.623  64.375  1.00  0.00    -0.274 OA
HETATM   27  H   UNL     1       7.766  33.903  63.212  1.00  0.00     0.162 HD
ENDBRANCH  22  23
ENDBRANCH  21  22
ENDBRANCH  18  21
ENDBRANCH  16  17
ENDBRANCH   1  16
BRANCH   5  28
HETATM   28  C   UNL     1       4.998  27.276  57.013  1.00  0.00     0.176 C 
BRANCH  28  29
HETATM   29  O   UNL     1       3.794  27.569  56.307  1.00  0.00    -0.400 OA
HETATM   30  H   UNL     1       3.062  27.350  56.923  1.00  0.00     0.209 HD
ENDBRANCH  28  29
ENDBRANCH   5  28
BRANCH  14  31
HETATM   31  C   UNL     1       4.035  33.127  57.307  1.00  0.00     0.017 A 
HETATM   32  C   UNL     1       2.887  33.561  56.647  1.00  0.00     0.130 A 
HETATM   33  N   UNL     1       2.117  34.610  57.040  1.00  0.00    -0.272 NA
HETATM   34  C   UNL     1       2.509  35.268  58.149  1.00  0.00     0.116 A 
HETATM   35  C   UNL     1       3.635  34.931  58.880  1.00  0.00     0.020 A 
HETATM   36  C   UNL     1       4.404  33.851  58.448  1.00  0.00     0.017 A 
ENDBRANCH  14  31
BRANCH   7  37
HETATM   37  O   UNL     1       6.289  24.750  57.487  1.00  0.00    -0.395 OA
HETATM   38  H   UNL     1       6.642  23.878  57.228  1.00  0.00     0.210 HD
ENDBRANCH   7  37
TORSDOF 9
ENDMDL
MODEL 6
REMARK VINA RESULT:      -7.4      7.408     11.229
REMARK  9 active torsions:
REMARK  status: ('A' for Active; 'I' for Inactive)
REMARK       I    between atoms: C_2  and  N_3 
REMARK    1  A    between atoms: N_3  and  C_4 
REMARK    2  A    between atoms: C_4  and  C_5 
REMARK    3  A    between atoms: C_5  and  N_6 
REMARK       I    between atoms: N_6  and  C_7 
REMARK    4  A    between atoms: C_7  and  C_8 
REMARK    5  A    between atoms: C_8  and  C_9 
REMARK    6  A    between atoms: C_13  and  C_14 
REMARK    7  A    between atoms: C_14  and  O_15 
REMARK    8  A    between atoms: C_17  and  O_18 
REMARK    9  A    between atoms: C_25  and  C_26 
ROOT
HETATM    1  C   UNL     1       2.715  30.381  47.600  1.00  0.00     0.056 C 
HETATM    2  C   UNL     1       2.098  29.317  48.621  1.00  0.00    -0.030 C 
HETATM    3  C   UNL     1       1.266  30.061  49.706  1.00  0.00     0.016 C 
HETATM    4  C   UNL     1       3.221  28.452  49.361  1.00  0.00     0.012 C 
HETATM    5  C   UNL     1       3.899  27.294  48.504  1.00  0.00     0.008 C 
HETATM    6  C   UNL     1       4.632  26.314  49.470  1.00  0.00     0.020 C 
HETATM    7  C   UNL     1       2.783  26.467  47.794  1.00  0.00     0.128 C 
HETATM    8  C   UNL     1       1.804  27.333  47.012  1.00  0.00     0.033 C 
HETATM    9  C   UNL     1       1.122  28.329  47.934  1.00  0.00     0.013 C 
HETATM   10  C   UNL     1       4.226  29.359  50.122  1.00  0.00     0.054 C 
HETATM   11  C   UNL     1       4.637  30.513  49.284  1.00  0.00     0.010 A 
HETATM   12  C   UNL     1       3.984  30.983  48.168  1.00  0.00     0.054 A 
HETATM   13  N   UNL     1       4.618  32.034  47.533  1.00  0.00    -0.244 NA
HETATM   14  C   UNL     1       5.695  32.404  48.206  1.00  0.00     0.110 A 
HETATM   15  S   UNL     1       6.020  31.447  49.606  1.00  0.00    -0.072 SA
ENDROOT
BRANCH   1  16
HETATM   16  C   UNL     1       1.778  31.522  47.134  1.00  0.00     0.114 C 
BRANCH  16  17
HETATM   17  C   UNL     1       1.189  31.338  45.757  1.00  0.00     0.218 C 
HETATM   18  N   UNL     1      -0.088  30.829  45.740  1.00  0.00    -0.359 N 
HETATM   19  H   UNL     1      -0.483  30.427  46.580  1.00  0.00     0.162 HD
HETATM   20  O   UNL     1       1.813  31.621  44.740  1.00  0.00    -0.274 OA
BRANCH  18  21
HETATM   21  C   UNL     1      -0.807  30.624  44.492  1.00  0.00     0.142 C 
BRANCH  21  22
HETATM   22  C   UNL     1      -1.232  29.165  44.290  1.00  0.00     0.142 C 
BRANCH  22  23
HETATM   23  N   UNL     1      -0.824  28.635  42.998  1.00  0.00    -0.360 N 
HETATM   24  C   UNL     1      -0.904  27.292  42.718  1.00  0.00     0.213 C 
HETATM   25  C   UNL     1      -0.474  26.920  41.324  1.00  0.00     0.117 C 
HETATM   26  O   UNL     1      -1.294  26.455  43.524  1.00  0.00    -0.274 OA
HETATM   27  H   UNL     1      -0.494  29.285  42.298  1.00  0.00     0.162 HD
ENDBRANCH  22  23
ENDBRANCH  21  22
ENDBRANCH  18  21
ENDBRANCH  16  17
ENDBRANCH   1  16
BRANCH   5  28
HETATM   28  C   UNL     1       4.964  27.798  47.490  1.00  0.00     0.176 C 
BRANCH  28  29
HETATM   29  O   UNL     1       5.852  26.763  47.074  1.00  0.00    -0.400 OA
HETATM   30  H   UNL     1       6.754  27.078  47.299  1.00  0.00     0.209 HD
ENDBRANCH  28  29
ENDBRANCH   5  28
BRANCH  14  31
HETATM   31  C   UNL     1       6.586  33.501  47.799  1.00  0.00     0.017 A 
HETATM   32  C   UNL     1       6.931  34.566  48.629  1.00  0.00     0.130 A 
HETATM   33  N   UNL     1       7.751  35.590  48.273  1.00  0.00    -0.272 NA
HETATM   34  C   UNL     1       8.254  35.558  47.023  1.00  0.00     0.116 A 
HETATM   35  C   UNL     1       7.974  34.556  46.111  1.00  0.00     0.020 A 
HETATM   36  C   UNL     1       7.127  33.521  46.508  1.00  0.00     0.017 A 
ENDBRANCH  14  31
BRANCH   7  37
HETATM   37  O   UNL     1       3.329  25.510  46.883  1.00  0.00    -0.395 OA
HETATM   38  H   UNL     1       3.365  24.654  47.349  1.00  0.00     0.210 HD
ENDBRANCH   7  37
TORSDOF 9
ENDMDL
MODEL 7
REMARK VINA RESULT:      -7.3      3.226      6.282
REMARK  9 active torsions:
REMARK  status: ('A' for Active; 'I' for Inactive)
REMARK       I    between atoms: C_2  and  N_3 
REMARK    1  A    between atoms: N_3  and  C_4 
REMARK    2  A    between atoms: C_4  and  C_5 
REMARK    3  A    between atoms: C_5  and  N_6 
REMARK       I    between atoms: N_6  and  C_7 
REMARK    4  A    between atoms: C_7  and  C_8 
REMARK    5  A    between atoms: C_8  and  C_9 
REMARK    6  A    between atoms: C_13  and  C_14 
REMARK    7  A    between atoms: C_14  and  O_15 
REMARK    8  A    between atoms: C_17  and  O_18 
REMARK    9  A    between atoms: C_25  and  C_26 
ROOT
HETATM    1  C   UNL     1       6.059  28.457  55.097  1.00  0.00     0.056 C 
HETATM    2  C   UNL     1       7.510  27.838  55.350  1.00  0.00    -0.030 C 
HETATM    3  C   UNL     1       8.596  28.877  54.943  1.00  0.00     0.016 C 
HETATM    4  C   UNL     1       7.762  26.500  54.513  1.00  0.00     0.012 C 
HETATM    5  C   UNL     1       7.061  25.179  55.062  1.00  0.00     0.008 C 
HETATM    6  C   UNL     1       7.734  23.939  54.401  1.00  0.00     0.020 C 
HETATM    7  C   UNL     1       7.325  25.065  56.595  1.00  0.00     0.128 C 
HETATM    8  C   UNL     1       6.963  26.331  57.361  1.00  0.00     0.033 C 
HETATM    9  C   UNL     1       7.766  27.513  56.844  1.00  0.00     0.013 C 
HETATM   10  C   UNL     1       7.574  26.739  52.989  1.00  0.00     0.054 C 
HETATM   11  C   UNL     1       6.350  27.537  52.727  1.00  0.00     0.010 A 
HETATM   12  C   UNL     1       5.666  28.304  53.641  1.00  0.00     0.054 A 
HETATM   13  N   UNL     1       4.517  28.895  53.150  1.00  0.00    -0.244 NA
HETATM   14  C   UNL     1       4.378  28.640  51.859  1.00  0.00     0.110 A 
HETATM   15  S   UNL     1       5.604  27.617  51.202  1.00  0.00    -0.072 SA
ENDROOT
BRANCH   1  16
HETATM   16  C   UNL     1       5.845  29.930  55.527  1.00  0.00     0.114 C 
BRANCH  16  17
HETATM   17  C   UNL     1       5.731  30.146  57.015  1.00  0.00     0.218 C 
HETATM   18  N   UNL     1       6.672  30.994  57.549  1.00  0.00    -0.359 N 
HETATM   19  H   UNL     1       7.481  31.260  57.001  1.00  0.00     0.162 HD
HETATM   20  O   UNL     1       4.862  29.601  57.687  1.00  0.00    -0.274 OA
BRANCH  18  21
HETATM   21  C   UNL     1       6.677  31.332  58.964  1.00  0.00     0.142 C 
BRANCH  21  22
HETATM   22  C   UNL     1       8.046  31.112  59.617  1.00  0.00     0.142 C 
BRANCH  22  23
HETATM   23  N   UNL     1       8.970  30.391  58.756  1.00  0.00    -0.360 N 
HETATM   24  C   UNL     1      10.066  31.010  58.204  1.00  0.00     0.213 C 
HETATM   25  C   UNL     1      10.936  30.110  57.368  1.00  0.00     0.117 C 
HETATM   26  O   UNL     1      10.329  32.195  58.374  1.00  0.00    -0.274 OA
HETATM   27  H   UNL     1       8.797  29.409  58.585  1.00  0.00     0.162 HD
ENDBRANCH  22  23
ENDBRANCH  21  22
ENDBRANCH  18  21
ENDBRANCH  16  17
ENDBRANCH   1  16
BRANCH   5  28
HETATM   28  C   UNL     1       5.543  25.089  54.739  1.00  0.00     0.176 C 
BRANCH  28  29
HETATM   29  O   UNL     1       4.728  25.444  55.854  1.00  0.00    -0.400 OA
HETATM   30  H   UNL     1       3.859  25.014  55.698  1.00  0.00     0.209 HD
ENDBRANCH  28  29
ENDBRANCH   5  28
BRANCH  14  31
HETATM   31  C   UNL     1       3.262  29.130  51.037  1.00  0.00     0.017 A 
HETATM   32  C   UNL     1       2.752  28.445  49.936  1.00  0.00     0.130 A 
HETATM   33  N   UNL     1       1.724  28.880  49.161  1.00  0.00    -0.272 NA
HETATM   34  C   UNL     1       1.172  30.064  49.495  1.00  0.00     0.116 A 
HETATM   35  C   UNL     1       1.601  30.834  50.561  1.00  0.00     0.020 A 
HETATM   36  C   UNL     1       2.660  30.359  51.334  1.00  0.00     0.017 A 
ENDBRANCH  14  31
BRANCH   7  37
HETATM   37  O   UNL     1       6.592  23.987  57.181  1.00  0.00    -0.395 OA
HETATM   38  H   UNL     1       7.215  23.248  57.309  1.00  0.00     0.210 HD
ENDBRANCH   7  37
TORSDOF 9
ENDMDL
MODEL 8
REMARK VINA RESULT:      -7.3      6.299     10.173
REMARK  9 active torsions:
REMARK  status: ('A' for Active; 'I' for Inactive)
REMARK       I    between atoms: C_2  and  N_3 
REMARK    1  A    between atoms: N_3  and  C_4 
REMARK    2  A    between atoms: C_4  and  C_5 
REMARK    3  A    between atoms: C_5  and  N_6 
REMARK       I    between atoms: N_6  and  C_7 
REMARK    4  A    between atoms: C_7  and  C_8 
REMARK    5  A    between atoms: C_8  and  C_9 
REMARK    6  A    between atoms: C_13  and  C_14 
REMARK    7  A    between atoms: C_14  and  O_15 
REMARK    8  A    between atoms: C_17  and  O_18 
REMARK    9  A    between atoms: C_25  and  C_26 
ROOT
HETATM    1  C   UNL     1       4.493  34.067  59.800  1.00  0.00     0.056 C 
HETATM    2  C   UNL     1       4.278  35.220  60.886  1.00  0.00    -0.030 C 
HETATM    3  C   UNL     1       5.039  36.502  60.440  1.00  0.00     0.016 C 
HETATM    4  C   UNL     1       4.807  34.805  62.337  1.00  0.00     0.012 C 
HETATM    5  C   UNL     1       3.888  33.801  63.164  1.00  0.00     0.008 C 
HETATM    6  C   UNL     1       4.319  33.840  64.661  1.00  0.00     0.020 C 
HETATM    7  C   UNL     1       2.412  34.304  63.112  1.00  0.00     0.128 C 
HETATM    8  C   UNL     1       1.922  34.578  61.697  1.00  0.00     0.033 C 
HETATM    9  C   UNL     1       2.790  35.632  61.029  1.00  0.00     0.013 C 
HETATM   10  C   UNL     1       6.311  34.418  62.303  1.00  0.00     0.054 C 
HETATM   11  C   UNL     1       6.604  33.536  61.146  1.00  0.00     0.010 A 
HETATM   12  C   UNL     1       5.817  33.366  60.030  1.00  0.00     0.054 A 
HETATM   13  N   UNL     1       6.292  32.432  59.129  1.00  0.00    -0.244 NA
HETATM   14  C   UNL     1       7.463  31.959  59.523  1.00  0.00     0.110 A 
HETATM   15  S   UNL     1       8.007  32.582  61.039  1.00  0.00    -0.072 SA
ENDROOT
BRANCH   1  16
HETATM   16  C   UNL     1       4.393  34.484  58.312  1.00  0.00     0.114 C 
BRANCH  16  17
HETATM   17  C   UNL     1       3.961  33.386  57.373  1.00  0.00     0.218 C 
HETATM   18  N   UNL     1       4.945  32.927  56.530  1.00  0.00    -0.359 N 
HETATM   19  H   UNL     1       5.808  33.447  56.429  1.00  0.00     0.162 HD
HETATM   20  O   UNL     1       2.816  32.947  57.369  1.00  0.00    -0.274 OA
BRANCH  18  21
HETATM   21  C   UNL     1       4.697  31.847  55.588  1.00  0.00     0.142 C 
BRANCH  21  22
HETATM   22  C   UNL     1       5.074  30.474  56.153  1.00  0.00     0.142 C 
BRANCH  22  23
HETATM   23  N   UNL     1       6.237  29.896  55.498  1.00  0.00    -0.360 N 
HETATM   24  C   UNL     1       6.225  28.606  55.023  1.00  0.00     0.213 C 
HETATM   25  C   UNL     1       7.498  28.181  54.342  1.00  0.00     0.117 C 
HETATM   26  O   UNL     1       5.264  27.854  55.136  1.00  0.00    -0.274 OA
HETATM   27  H   UNL     1       7.056  30.477  55.380  1.00  0.00     0.162 HD
ENDBRANCH  22  23
ENDBRANCH  21  22
ENDBRANCH  18  21
ENDBRANCH  16  17
ENDBRANCH   1  16
BRANCH   5  28
HETATM   28  C   UNL     1       3.999  32.320  62.706  1.00  0.00     0.176 C 
BRANCH  28  29
HETATM   29  O   UNL     1       4.862  31.554  63.545  1.00  0.00    -0.400 OA
HETATM   30  H   UNL     1       4.297  30.860  63.947  1.00  0.00     0.209 HD
ENDBRANCH  28  29
ENDBRANCH   5  28
BRANCH  14  31
HETATM   31  C   UNL     1       8.239  30.954  58.781  1.00  0.00     0.017 A 
HETATM   32  C   UNL     1       7.779  29.667  58.509  1.00  0.00     0.130 A 
HETATM   33  N   UNL     1       8.479  28.723  57.827  1.00  0.00    -0.272 NA
HETATM   34  C   UNL     1       9.707  29.073  57.394  1.00  0.00     0.116 A 
HETATM   35  C   UNL     1      10.269  30.318  57.614  1.00  0.00     0.020 A 
HETATM   36  C   UNL     1       9.524  31.263  58.318  1.00  0.00     0.017 A 
ENDBRANCH  14  31
BRANCH   7  37
HETATM   37  O   UNL     1       1.510  33.365  63.701  1.00  0.00    -0.395 OA
HETATM   38  H   UNL     1       1.772  33.258  64.635  1.00  0.00     0.210 HD
ENDBRANCH   7  37
TORSDOF 9
ENDMDL
MODEL 9
REMARK VINA RESULT:      -7.3      3.703      7.514
REMARK  9 active torsions:
REMARK  status: ('A' for Active; 'I' for Inactive)
REMARK       I    between atoms: C_2  and  N_3 
REMARK    1  A    between atoms: N_3  and  C_4 
REMARK    2  A    between atoms: C_4  and  C_5 
REMARK    3  A    between atoms: C_5  and  N_6 
REMARK       I    between atoms: N_6  and  C_7 
REMARK    4  A    between atoms: C_7  and  C_8 
REMARK    5  A    between atoms: C_8  and  C_9 
REMARK    6  A    between atoms: C_13  and  C_14 
REMARK    7  A    between atoms: C_14  and  O_15 
REMARK    8  A    between atoms: C_17  and  O_18 
REMARK    9  A    between atoms: C_25  and  C_26 
ROOT
HETATM    1  C   UNL     1       4.544  27.855  51.011  1.00  0.00     0.056 C 
HETATM    2  C   UNL     1       4.598  28.272  49.469  1.00  0.00    -0.030 C 
HETATM    3  C   UNL     1       6.003  28.853  49.137  1.00  0.00     0.016 C 
HETATM    4  C   UNL     1       3.501  29.373  49.092  1.00  0.00     0.012 C 
HETATM    5  C   UNL     1       2.003  28.856  48.940  1.00  0.00     0.008 C 
HETATM    6  C   UNL     1       1.172  29.934  48.180  1.00  0.00     0.020 C 
HETATM    7  C   UNL     1       1.995  27.577  48.047  1.00  0.00     0.128 C 
HETATM    8  C   UNL     1       2.980  26.514  48.517  1.00  0.00     0.033 C 
HETATM    9  C   UNL     1       4.396  27.065  48.519  1.00  0.00     0.013 C 
HETATM   10  C   UNL     1       3.654  30.649  49.965  1.00  0.00     0.054 C 
HETATM   11  C   UNL     1       3.859  30.291  51.391  1.00  0.00     0.010 A 
HETATM   12  C   UNL     1       4.254  29.066  51.876  1.00  0.00     0.054 A 
HETATM   13  N   UNL     1       4.305  28.982  53.254  1.00  0.00    -0.244 NA
HETATM   14  C   UNL     1       4.028  30.154  53.802  1.00  0.00     0.110 A 
HETATM   15  S   UNL     1       3.630  31.392  52.666  1.00  0.00    -0.072 SA
ENDROOT
BRANCH   1  16
HETATM   16  C   UNL     1       5.782  27.115  51.576  1.00  0.00     0.114 C 
BRANCH  16  17
HETATM   17  C   UNL     1       5.467  25.946  52.475  1.00  0.00     0.218 C 
HETATM   18  N   UNL     1       5.842  26.109  53.787  1.00  0.00    -0.359 N 
HETATM   19  H   UNL     1       6.461  26.867  54.045  1.00  0.00     0.162 HD
HETATM   20  O   UNL     1       4.920  24.931  52.055  1.00  0.00    -0.274 OA
BRANCH  18  21
HETATM   21  C   UNL     1       5.577  25.086  54.787  1.00  0.00     0.142 C 
BRANCH  21  22
HETATM   22  C   UNL     1       6.016  25.510  56.193  1.00  0.00     0.142 C 
BRANCH  22  23
HETATM   23  N   UNL     1       6.889  26.674  56.182  1.00  0.00    -0.360 N 
HETATM   24  C   UNL     1       7.742  26.939  57.227  1.00  0.00     0.213 C 
HETATM   25  C   UNL     1       8.597  28.163  57.037  1.00  0.00     0.117 C 
HETATM   26  O   UNL     1       7.813  26.244  58.234  1.00  0.00    -0.274 OA
HETATM   27  H   UNL     1       6.867  27.279  55.372  1.00  0.00     0.162 HD
ENDBRANCH  22  23
ENDBRANCH  21  22
ENDBRANCH  18  21
ENDBRANCH  16  17
ENDBRANCH   1  16
BRANCH   5  28
HETATM   28  C   UNL     1       1.279  28.608  50.293  1.00  0.00     0.176 C 
BRANCH  28  29
HETATM   29  O   UNL     1       0.558  29.753  50.742  1.00  0.00    -0.400 OA
HETATM   30  H   UNL     1       0.045  30.068  49.966  1.00  0.00     0.209 HD
ENDBRANCH  28  29
ENDBRANCH   5  28
BRANCH  14  31
HETATM   31  C   UNL     1       4.007  30.404  55.251  1.00  0.00     0.017 A 
HETATM   32  C   UNL     1       3.155  31.318  55.867  1.00  0.00     0.130 A 
HETATM   33  N   UNL     1       3.119  31.566  57.202  1.00  0.00    -0.272 NA
HETATM   34  C   UNL     1       3.980  30.869  57.971  1.00  0.00     0.116 A 
HETATM   35  C   UNL     1       4.876  29.942  57.469  1.00  0.00     0.020 A 
HETATM   36  C   UNL     1       4.888  29.714  56.093  1.00  0.00     0.017 A 
ENDBRANCH  14  31
BRANCH   7  37
HETATM   37  O   UNL     1       0.702  26.970  47.999  1.00  0.00    -0.395 OA
HETATM   38  H   UNL     1       0.353  27.102  47.098  1.00  0.00     0.210 HD
ENDBRANCH   7  37
TORSDOF 9
ENDMDL
MODEL 10
REMARK VINA RESULT:      -7.3      3.191      7.381
REMARK  9 active torsions:
REMARK  status: ('A' for Active; 'I' for Inactive)
REMARK       I    between atoms: C_2  and  N_3 
REMARK    1  A    between atoms: N_3  and  C_4 
REMARK    2  A    between atoms: C_4  and  C_5 
REMARK    3  A    between atoms: C_5  and  N_6 
REMARK       I    between atoms: N_6  and  C_7 
REMARK    4  A    between atoms: C_7  and  C_8 
REMARK    5  A    between atoms: C_8  and  C_9 
REMARK    6  A    between atoms: C_13  and  C_14 
REMARK    7  A    between atoms: C_14  and  O_15 
REMARK    8  A    between atoms: C_17  and  O_18 
REMARK    9  A    between atoms: C_25  and  C_26 
ROOT
HETATM    1  C   UNL     1       3.810  29.559  51.861  1.00  0.00     0.056 C 
HETATM    2  C   UNL     1       2.863  30.076  50.683  1.00  0.00    -0.030 C 
HETATM    3  C   UNL     1       1.448  29.445  50.838  1.00  0.00     0.016 C 
HETATM    4  C   UNL     1       3.422  29.697  49.234  1.00  0.00     0.012 C 
HETATM    5  C   UNL     1       4.637  30.573  48.693  1.00  0.00     0.008 C 
HETATM    6  C   UNL     1       4.769  30.358  47.155  1.00  0.00     0.020 C 
HETATM    7  C   UNL     1       4.309  32.083  48.905  1.00  0.00     0.128 C 
HETATM    8  C   UNL     1       3.888  32.409  50.332  1.00  0.00     0.033 C 
HETATM    9  C   UNL     1       2.654  31.612  50.718  1.00  0.00     0.013 C 
HETATM   10  C   UNL     1       3.620  28.164  49.086  1.00  0.00     0.054 C 
HETATM   11  C   UNL     1       4.282  27.598  50.287  1.00  0.00     0.010 A 
HETATM   12  C   UNL     1       4.377  28.195  51.523  1.00  0.00     0.054 A 
HETATM   13  N   UNL     1       5.106  27.478  52.453  1.00  0.00    -0.244 NA
HETATM   14  C   UNL     1       5.491  26.318  51.948  1.00  0.00     0.110 A 
HETATM   15  S   UNL     1       5.039  26.076  50.300  1.00  0.00    -0.072 SA
ENDROOT
BRANCH   1  16
HETATM   16  C   UNL     1       3.193  29.513  53.281  1.00  0.00     0.114 C 
BRANCH  16  17
HETATM   17  C   UNL     1       3.983  30.239  54.341  1.00  0.00     0.218 C 
HETATM   18  N   UNL     1       4.960  29.486  54.949  1.00  0.00    -0.359 N 
HETATM   19  H   UNL     1       4.976  28.482  54.823  1.00  0.00     0.162 HD
HETATM   20  O   UNL     1       3.761  31.409  54.631  1.00  0.00    -0.274 OA
BRANCH  18  21
HETATM   21  C   UNL     1       5.832  30.051  55.967  1.00  0.00     0.142 C 
BRANCH  21  22
HETATM   22  C   UNL     1       5.685  29.349  57.322  1.00  0.00     0.142 C 
BRANCH  22  23
HETATM   23  N   UNL     1       6.066  27.946  57.272  1.00  0.00    -0.360 N 
HETATM   24  C   UNL     1       7.312  27.527  57.673  1.00  0.00     0.213 C 
HETATM   25  C   UNL     1       7.526  26.040  57.589  1.00  0.00     0.117 C 
HETATM   26  O   UNL     1       8.185  28.289  58.072  1.00  0.00    -0.274 OA
HETATM   27  H   UNL     1       5.380  27.276  56.951  1.00  0.00     0.162 HD
ENDBRANCH  22  23
ENDBRANCH  21  22
ENDBRANCH  18  21
ENDBRANCH  16  17
ENDBRANCH   1  16
BRANCH   5  28
HETATM   28  C   UNL     1       6.011  30.198  49.315  1.00  0.00     0.176 C 
BRANCH  28  29
HETATM   29  O   UNL     1       6.403  31.097  50.351  1.00  0.00    -0.400 OA
HETATM   30  H   UNL     1       7.130  31.638  49.975  1.00  0.00     0.209 HD
ENDBRANCH  28  29
ENDBRANCH   5  28
BRANCH  14  31
HETATM   31  C   UNL     1       6.278  25.318  52.685  1.00  0.00     0.017 A 
HETATM   32  C   UNL     1       5.975  24.892  53.977  1.00  0.00     0.130 A 
HETATM   33  N   UNL     1       6.688  23.971  54.677  1.00  0.00    -0.272 NA
HETATM   34  C   UNL     1       7.767  23.445  54.062  1.00  0.00     0.116 A 
HETATM   35  C   UNL     1       8.167  23.798  52.785  1.00  0.00     0.020 A 
HETATM   36  C   UNL     1       7.414  24.748  52.096  1.00  0.00     0.017 A 
ENDBRANCH  14  31
BRANCH   7  37
HETATM   37  O   UNL     1       5.424  32.919  48.587  1.00  0.00    -0.395 OA
HETATM   38  H   UNL     1       5.182  33.436  47.797  1.00  0.00     0.210 HD
ENDBRANCH   7  37
TORSDOF 9
ENDMDL
