MODEL 1
REMARK VINA RESULT:      -8.4      0.000      0.000
REMARK  5 active torsions:
REMARK  status: ('A' for Active; 'I' for Inactive)
REMARK    1  A    between atoms: C_3  and  N_4 
REMARK       I    between atoms: N_4  and  C_5 
REMARK       I    between atoms: C_5  and  N_6 
REMARK    2  A    between atoms: N_6  and  C_7 
REMARK    3  A    between atoms: C_7  and  C_8 
REMARK    4  A    between atoms: C_8  and  O_9 
REMARK    5  A    between atoms: O_9  and  C_10 
ROOT
HETATM    1  N   UNL     1       7.757  28.486  57.915  1.00  0.00    -0.307 N 
HETATM    2  C   UNL     1       7.045  28.258  56.772  1.00  0.00     0.320 C 
HETATM    3  N   UNL     1       6.527  27.001  56.648  1.00  0.00    -0.340 N 
HETATM    4  O   UNL     1       6.798  29.072  55.890  1.00  0.00    -0.247 OA
HETATM    5  H   UNL     1       7.427  27.936  58.692  1.00  0.00     0.170 HD
HETATM    6  H   UNL     1       6.076  26.874  55.747  1.00  0.00     0.164 HD
ENDROOT
BRANCH   3   7
HETATM    7  C   UNL     1       6.853  25.781  57.377  1.00  0.00     0.156 C 
BRANCH   7   8
HETATM    8  C   UNL     1       7.775  24.835  56.582  1.00  0.00     0.142 C 
HETATM    9  C   UNL     1       9.099  24.594  57.306  1.00  0.00     0.042 C 
BRANCH   8  10
HETATM   10  O   UNL     1       7.156  23.551  56.412  1.00  0.00    -0.343 OA
BRANCH  10  11
HETATM   11  C   UNL     1       7.455  22.846  55.275  1.00  0.00     0.091 A 
HETATM   12  C   UNL     1       8.009  21.566  55.431  1.00  0.00     0.067 A 
HETATM   13 CL   UNL     1       8.231  20.871  56.998  1.00  0.00    -0.081 Cl
HETATM   14  C   UNL     1       8.385  20.813  54.316  1.00  0.00     0.026 A 
HETATM   15  C   UNL     1       8.220  21.335  53.034  1.00  0.00     0.002 A 
HETATM   16  C   UNL     1       7.692  22.614  52.871  1.00  0.00     0.003 A 
HETATM   17  C   UNL     1       7.322  23.372  53.987  1.00  0.00     0.038 A 
ENDBRANCH  10  11
ENDBRANCH   8  10
ENDBRANCH   7   8
ENDBRANCH   3   7
BRANCH   1  18
HETATM   18  C   UNL     1       8.506  29.633  58.278  1.00  0.00     0.059 A 
HETATM   19  C   UNL     1       9.734  30.049  57.745  1.00  0.00    -0.032 A 
HETATM   20  C   UNL     1      10.523  29.308  56.706  1.00  0.00     0.050 C 
HETATM   21  C   UNL     1      10.294  31.249  58.227  1.00  0.00     0.028 A 
HETATM   22  C   UNL     1       9.664  31.948  59.244  1.00  0.00     0.117 A 
HETATM   23  N   UNL     1       8.520  31.543  59.819  1.00  0.00    -0.271 NA
HETATM   24  C   UNL     1       7.978  30.406  59.322  1.00  0.00     0.146 A 
ENDBRANCH   1  18
TORSDOF 5
ENDMDL
MODEL 2
REMARK VINA RESULT:      -8.4      1.591      2.037
REMARK  5 active torsions:
REMARK  status: ('A' for Active; 'I' for Inactive)
REMARK    1  A    between atoms: C_3  and  N_4 
REMARK       I    between atoms: N_4  and  C_5 
REMARK       I    between atoms: C_5  and  N_6 
REMARK    2  A    between atoms: N_6  and  C_7 
REMARK    3  A    between atoms: C_7  and  C_8 
REMARK    4  A    between atoms: C_8  and  O_9 
REMARK    5  A    between atoms: O_9  and  C_10 
ROOT
HETATM    1  N   UNL     1       8.250  28.310  56.741  1.00  0.00    -0.307 N 
HETATM    2  C   UNL     1       7.860  27.073  57.170  1.00  0.00     0.320 C 
HETATM    3  N   UNL     1       7.475  26.209  56.185  1.00  0.00    -0.340 N 
HETATM    4  O   UNL     1       7.864  26.665  58.325  1.00  0.00    -0.247 OA
HETATM    5  H   UNL     1       8.662  28.289  55.822  1.00  0.00     0.170 HD
HETATM    6  H   UNL     1       7.126  25.338  56.573  1.00  0.00     0.164 HD
ENDROOT
BRANCH   3   7
HETATM    7  C   UNL     1       7.127  26.474  54.794  1.00  0.00     0.156 C 
BRANCH   7   8
HETATM    8  C   UNL     1       7.203  25.216  53.906  1.00  0.00     0.142 C 
HETATM    9  C   UNL     1       7.363  25.574  52.429  1.00  0.00     0.042 C 
BRANCH   8  10
HETATM   10  O   UNL     1       8.337  24.412  54.264  1.00  0.00    -0.343 OA
BRANCH  10  11
HETATM   11  C   UNL     1       8.174  23.051  54.273  1.00  0.00     0.091 A 
HETATM   12  C   UNL     1       8.277  22.393  55.509  1.00  0.00     0.067 A 
HETATM   13 CL   UNL     1       8.520  23.275  56.975  1.00  0.00    -0.081 Cl
HETATM   14  C   UNL     1       8.172  21.002  55.584  1.00  0.00     0.026 A 
HETATM   15  C   UNL     1       7.973  20.254  54.426  1.00  0.00     0.002 A 
HETATM   16  C   UNL     1       7.892  20.896  53.192  1.00  0.00     0.003 A 
HETATM   17  C   UNL     1       8.004  22.289  53.114  1.00  0.00     0.038 A 
ENDBRANCH  10  11
ENDBRANCH   8  10
ENDBRANCH   7   8
ENDBRANCH   3   7
BRANCH   1  18
HETATM   18  C   UNL     1       8.588  29.449  57.514  1.00  0.00     0.059 A 
HETATM   19  C   UNL     1       9.842  30.070  57.608  1.00  0.00    -0.032 A 
HETATM   20  C   UNL     1      11.095  29.599  56.931  1.00  0.00     0.050 C 
HETATM   21  C   UNL     1       9.953  31.221  58.414  1.00  0.00     0.028 A 
HETATM   22  C   UNL     1       8.859  31.670  59.134  1.00  0.00     0.117 A 
HETATM   23  N   UNL     1       7.662  31.061  59.115  1.00  0.00    -0.271 NA
HETATM   24  C   UNL     1       7.562  29.976  58.311  1.00  0.00     0.146 A 
ENDBRANCH   1  18
TORSDOF 5
ENDMDL
MODEL 3
REMARK VINA RESULT:      -8.4      1.457      1.883
REMARK  5 active torsions:
REMARK  status: ('A' for Active; 'I' for Inactive)
REMARK    1  A    between atoms: C_3  and  N_4 
REMARK       I    between atoms: N_4  and  C_5 
REMARK       I    between atoms: C_5  and  N_6 
REMARK    2  A    between atoms: N_6  and  C_7 
REMARK    3  A    between atoms: C_7  and  C_8 
REMARK    4  A    between atoms: C_8  and  O_9 
REMARK    5  A    between atoms: O_9  and  C_10 
ROOT
HETATM    1  N   UNL     1       7.878  28.592  57.965  1.00  0.00    -0.307 N 
HETATM    2  C   UNL     1       6.930  28.465  56.988  1.00  0.00     0.320 C 
HETATM    3  N   UNL     1       6.496  27.191  56.761  1.00  0.00    -0.340 N 
HETATM    4  O   UNL     1       6.417  29.372  56.345  1.00  0.00    -0.247 OA
HETATM    5  H   UNL     1       7.789  27.894  58.684  1.00  0.00     0.170 HD
HETATM    6  H   UNL     1       5.851  27.154  55.977  1.00  0.00     0.164 HD
ENDROOT
BRANCH   3   7
HETATM    7  C   UNL     1       7.081  25.919  57.167  1.00  0.00     0.156 C 
BRANCH   7   8
HETATM    8  C   UNL     1       6.721  24.761  56.215  1.00  0.00     0.142 C 
HETATM    9  C   UNL     1       5.594  25.145  55.257  1.00  0.00     0.042 C 
BRANCH   8  10
HETATM   10  O   UNL     1       7.851  24.403  55.405  1.00  0.00    -0.343 OA
BRANCH  10  11
HETATM   11  C   UNL     1       7.899  23.126  54.909  1.00  0.00     0.091 A 
HETATM   12  C   UNL     1       7.958  22.973  53.515  1.00  0.00     0.067 A 
HETATM   13 CL   UNL     1       8.049  24.343  52.466  1.00  0.00    -0.081 Cl
HETATM   14  C   UNL     1       7.959  21.699  52.939  1.00  0.00     0.026 A 
HETATM   15  C   UNL     1       7.890  20.568  53.749  1.00  0.00     0.002 A 
HETATM   16  C   UNL     1       7.808  20.711  55.133  1.00  0.00     0.003 A 
HETATM   17  C   UNL     1       7.800  21.985  55.711  1.00  0.00     0.038 A 
ENDBRANCH  10  11
ENDBRANCH   8  10
ENDBRANCH   7   8
ENDBRANCH   3   7
BRANCH   1  18
HETATM   18  C   UNL     1       8.602  29.748  58.349  1.00  0.00     0.059 A 
HETATM   19  C   UNL     1       9.770  30.255  57.760  1.00  0.00    -0.032 A 
HETATM   20  C   UNL     1      10.511  29.619  56.621  1.00  0.00     0.050 C 
HETATM   21  C   UNL     1      10.312  31.446  58.280  1.00  0.00     0.028 A 
HETATM   22  C   UNL     1       9.729  32.049  59.383  1.00  0.00     0.117 A 
HETATM   23  N   UNL     1       8.648  31.556  60.009  1.00  0.00    -0.271 NA
HETATM   24  C   UNL     1       8.119  30.428  59.476  1.00  0.00     0.146 A 
ENDBRANCH   1  18
TORSDOF 5
ENDMDL
MODEL 4
REMARK VINA RESULT:      -8.3      2.950      8.087
REMARK  5 active torsions:
REMARK  status: ('A' for Active; 'I' for Inactive)
REMARK    1  A    between atoms: C_3  and  N_4 
REMARK       I    between atoms: N_4  and  C_5 
REMARK       I    between atoms: C_5  and  N_6 
REMARK    2  A    between atoms: N_6  and  C_7 
REMARK    3  A    between atoms: C_7  and  C_8 
REMARK    4  A    between atoms: C_8  and  O_9 
REMARK    5  A    between atoms: O_9  and  C_10 
ROOT
HETATM    1  N   UNL     1       7.202  24.033  55.917  1.00  0.00    -0.307 N 
HETATM    2  C   UNL     1       8.015  24.664  56.816  1.00  0.00     0.320 C 
HETATM    3  N   UNL     1       7.482  25.773  57.405  1.00  0.00    -0.340 N 
HETATM    4  O   UNL     1       9.135  24.308  57.164  1.00  0.00    -0.247 OA
HETATM    5  H   UNL     1       6.225  24.133  56.142  1.00  0.00     0.170 HD
HETATM    6  H   UNL     1       8.160  26.237  58.003  1.00  0.00     0.164 HD
ENDROOT
BRANCH   3   7
HETATM    7  C   UNL     1       6.319  26.566  57.023  1.00  0.00     0.156 C 
BRANCH   7   8
HETATM    8  C   UNL     1       6.609  28.080  56.989  1.00  0.00     0.142 C 
HETATM    9  C   UNL     1       5.323  28.904  57.027  1.00  0.00     0.042 C 
BRANCH   8  10
HETATM   10  O   UNL     1       7.387  28.472  58.131  1.00  0.00    -0.343 OA
BRANCH  10  11
HETATM   11  C   UNL     1       8.550  29.159  57.902  1.00  0.00     0.091 A 
HETATM   12  C   UNL     1       8.735  30.370  58.589  1.00  0.00     0.067 A 
HETATM   13 CL   UNL     1       7.575  30.933  59.739  1.00  0.00    -0.081 Cl
HETATM   14  C   UNL     1       9.874  31.146  58.366  1.00  0.00     0.026 A 
HETATM   15  C   UNL     1      10.836  30.727  57.448  1.00  0.00     0.002 A 
HETATM   16  C   UNL     1      10.650  29.538  56.746  1.00  0.00     0.003 A 
HETATM   17  C   UNL     1       9.506  28.762  56.963  1.00  0.00     0.038 A 
ENDBRANCH  10  11
ENDBRANCH   8  10
ENDBRANCH   7   8
ENDBRANCH   3   7
BRANCH   1  18
HETATM   18  C   UNL     1       7.503  22.941  55.067  1.00  0.00     0.059 A 
HETATM   19  C   UNL     1       7.682  22.971  53.676  1.00  0.00    -0.032 A 
HETATM   20  C   UNL     1       7.530  24.186  52.810  1.00  0.00     0.050 C 
HETATM   21  C   UNL     1       8.013  21.766  53.023  1.00  0.00     0.028 A 
HETATM   22  C   UNL     1       8.091  20.586  53.745  1.00  0.00     0.117 A 
HETATM   23  N   UNL     1       7.864  20.513  55.067  1.00  0.00    -0.271 NA
HETATM   24  C   UNL     1       7.580  21.684  55.685  1.00  0.00     0.146 A 
ENDBRANCH   1  18
TORSDOF 5
ENDMDL
MODEL 5
REMARK VINA RESULT:      -8.2      2.122      3.344
REMARK  5 active torsions:
REMARK  status: ('A' for Active; 'I' for Inactive)
REMARK    1  A    between atoms: C_3  and  N_4 
REMARK       I    between atoms: N_4  and  C_5 
REMARK       I    between atoms: C_5  and  N_6 
REMARK    2  A    between atoms: N_6  and  C_7 
REMARK    3  A    between atoms: C_7  and  C_8 
REMARK    4  A    between atoms: C_8  and  O_9 
REMARK    5  A    between atoms: O_9  and  C_10 
ROOT
HETATM    1  N   UNL     1       6.366  26.726  55.744  1.00  0.00    -0.307 N 
HETATM    2  C   UNL     1       5.442  25.757  56.016  1.00  0.00     0.320 C 
HETATM    3  N   UNL     1       5.100  24.965  54.958  1.00  0.00    -0.340 N 
HETATM    4  O   UNL     1       4.938  25.513  57.105  1.00  0.00    -0.247 OA
HETATM    5  H   UNL     1       7.007  26.457  55.015  1.00  0.00     0.170 HD
HETATM    6  H   UNL     1       4.357  24.318  55.206  1.00  0.00     0.164 HD
ENDROOT
BRANCH   3   7
HETATM    7  C   UNL     1       5.323  25.165  53.531  1.00  0.00     0.156 C 
BRANCH   7   8
HETATM    8  C   UNL     1       6.557  24.406  53.004  1.00  0.00     0.142 C 
HETATM    9  C   UNL     1       7.366  25.252  52.021  1.00  0.00     0.042 C 
BRANCH   8  10
HETATM   10  O   UNL     1       7.440  24.065  54.083  1.00  0.00    -0.343 OA
BRANCH  10  11
HETATM   11  C   UNL     1       7.761  22.743  54.248  1.00  0.00     0.091 A 
HETATM   12  C   UNL     1       8.119  22.318  55.538  1.00  0.00     0.067 A 
HETATM   13 CL   UNL     1       8.078  23.404  56.882  1.00  0.00    -0.081 Cl
HETATM   14  C   UNL     1       8.507  20.996  55.769  1.00  0.00     0.026 A 
HETATM   15  C   UNL     1       8.550  20.088  54.713  1.00  0.00     0.002 A 
HETATM   16  C   UNL     1       8.218  20.506  53.426  1.00  0.00     0.003 A 
HETATM   17  C   UNL     1       7.837  21.831  53.192  1.00  0.00     0.038 A 
ENDBRANCH  10  11
ENDBRANCH   8  10
ENDBRANCH   7   8
ENDBRANCH   3   7
BRANCH   1  18
HETATM   18  C   UNL     1       6.833  27.765  56.587  1.00  0.00     0.059 A 
HETATM   19  C   UNL     1       6.112  28.878  57.043  1.00  0.00    -0.032 A 
HETATM   20  C   UNL     1       4.697  29.206  56.668  1.00  0.00     0.050 C 
HETATM   21  C   UNL     1       6.761  29.780  57.910  1.00  0.00     0.028 A 
HETATM   22  C   UNL     1       8.094  29.587  58.238  1.00  0.00     0.117 A 
HETATM   23  N   UNL     1       8.830  28.567  57.768  1.00  0.00    -0.271 NA
HETATM   24  C   UNL     1       8.182  27.691  56.963  1.00  0.00     0.146 A 
ENDBRANCH   1  18
TORSDOF 5
ENDMDL
MODEL 6
REMARK VINA RESULT:      -7.8      3.138      4.612
REMARK  5 active torsions:
REMARK  status: ('A' for Active; 'I' for Inactive)
REMARK    1  A    between atoms: C_3  and  N_4 
REMARK       I    between atoms: N_4  and  C_5 
REMARK       I    between atoms: C_5  and  N_6 
REMARK    2  A    between atoms: N_6  and  C_7 
REMARK    3  A    between atoms: C_7  and  C_8 
REMARK    4  A    between atoms: C_8  and  O_9 
REMARK    5  A    between atoms: O_9  and  C_10 
ROOT
HETATM    1  N   UNL     1       7.200  31.437  60.149  1.00  0.00    -0.307 N 
HETATM    2  C   UNL     1       8.103  31.572  59.131  1.00  0.00     0.320 C 
HETATM    3  N   UNL     1       7.916  30.731  58.072  1.00  0.00    -0.340 N 
HETATM    4  O   UNL     1       9.015  32.387  59.067  1.00  0.00    -0.247 OA
HETATM    5  H   UNL     1       6.295  31.135  59.826  1.00  0.00     0.170 HD
HETATM    6  H   UNL     1       8.659  30.828  57.387  1.00  0.00     0.164 HD
ENDROOT
BRANCH   3   7
HETATM    7  C   UNL     1       7.108  29.522  57.972  1.00  0.00     0.156 C 
BRANCH   7   8
HETATM    8  C   UNL     1       7.846  28.363  57.271  1.00  0.00     0.142 C 
HETATM    9  C   UNL     1       9.339  28.652  57.120  1.00  0.00     0.042 C 
BRANCH   8  10
HETATM   10  O   UNL     1       7.733  27.154  58.038  1.00  0.00    -0.343 OA
BRANCH  10  11
HETATM   11  C   UNL     1       7.719  25.967  57.354  1.00  0.00     0.091 A 
HETATM   12  C   UNL     1       6.519  25.592  56.729  1.00  0.00     0.067 A 
HETATM   13 CL   UNL     1       5.135  26.627  56.752  1.00  0.00    -0.081 Cl
HETATM   14  C   UNL     1       6.419  24.371  56.057  1.00  0.00     0.026 A 
HETATM   15  C   UNL     1       7.512  23.508  56.012  1.00  0.00     0.002 A 
HETATM   16  C   UNL     1       8.700  23.862  56.649  1.00  0.00     0.003 A 
HETATM   17  C   UNL     1       8.799  25.081  57.328  1.00  0.00     0.038 A 
ENDBRANCH  10  11
ENDBRANCH   8  10
ENDBRANCH   7   8
ENDBRANCH   3   7
BRANCH   1  18
HETATM   18  C   UNL     1       7.195  32.073  61.416  1.00  0.00     0.059 A 
HETATM   19  C   UNL     1       7.938  31.714  62.549  1.00  0.00    -0.032 A 
HETATM   20  C   UNL     1       8.856  30.531  62.644  1.00  0.00     0.050 C 
HETATM   21  C   UNL     1       7.808  32.507  63.706  1.00  0.00     0.028 A 
HETATM   22  C   UNL     1       6.918  33.569  63.722  1.00  0.00     0.117 A 
HETATM   23  N   UNL     1       6.146  33.900  62.674  1.00  0.00    -0.271 NA
HETATM   24  C   UNL     1       6.306  33.148  61.559  1.00  0.00     0.146 A 
ENDBRANCH   1  18
TORSDOF 5
ENDMDL
MODEL 7
REMARK VINA RESULT:      -7.8      1.966      2.467
REMARK  5 active torsions:
REMARK  status: ('A' for Active; 'I' for Inactive)
REMARK    1  A    between atoms: C_3  and  N_4 
REMARK       I    between atoms: N_4  and  C_5 
REMARK       I    between atoms: C_5  and  N_6 
REMARK    2  A    between atoms: N_6  and  C_7 
REMARK    3  A    between atoms: C_7  and  C_8 
REMARK    4  A    between atoms: C_8  and  O_9 
REMARK    5  A    between atoms: O_9  and  C_10 
ROOT
HETATM    1  N   UNL     1       5.195  28.150  57.193  1.00  0.00    -0.307 N 
HETATM    2  C   UNL     1       4.897  27.641  55.960  1.00  0.00     0.320 C 
HETATM    3  N   UNL     1       4.924  26.280  55.869  1.00  0.00    -0.340 N 
HETATM    4  O   UNL     1       4.573  28.279  54.965  1.00  0.00    -0.247 OA
HETATM    5  H   UNL     1       4.925  27.533  57.941  1.00  0.00     0.170 HD
HETATM    6  H   UNL     1       4.769  25.969  54.915  1.00  0.00     0.164 HD
ENDROOT
BRANCH   3   7
HETATM    7  C   UNL     1       5.504  25.295  56.775  1.00  0.00     0.156 C 
BRANCH   7   8
HETATM    8  C   UNL     1       7.008  25.061  56.525  1.00  0.00     0.142 C 
HETATM    9  C   UNL     1       7.871  25.735  57.590  1.00  0.00     0.042 C 
BRANCH   8  10
HETATM   10  O   UNL     1       7.315  23.659  56.567  1.00  0.00    -0.343 OA
BRANCH  10  11
HETATM   11  C   UNL     1       7.484  23.009  55.373  1.00  0.00     0.091 A 
HETATM   12  C   UNL     1       7.940  21.682  55.415  1.00  0.00     0.067 A 
HETATM   13 CL   UNL     1       8.201  20.872  56.919  1.00  0.00    -0.081 Cl
HETATM   14  C   UNL     1       8.182  20.976  54.234  1.00  0.00     0.026 A 
HETATM   15  C   UNL     1       7.981  21.591  53.000  1.00  0.00     0.002 A 
HETATM   16  C   UNL     1       7.550  22.915  52.949  1.00  0.00     0.003 A 
HETATM   17  C   UNL     1       7.314  23.626  54.130  1.00  0.00     0.038 A 
ENDBRANCH  10  11
ENDBRANCH   8  10
ENDBRANCH   7   8
ENDBRANCH   3   7
BRANCH   1  18
HETATM   18  C   UNL     1       5.362  29.505  57.573  1.00  0.00     0.059 A 
HETATM   19  C   UNL     1       6.550  30.135  57.971  1.00  0.00    -0.032 A 
HETATM   20  C   UNL     1       7.881  29.460  58.119  1.00  0.00     0.050 C 
HETATM   21  C   UNL     1       6.501  31.510  58.277  1.00  0.00     0.028 A 
HETATM   22  C   UNL     1       5.292  32.185  58.241  1.00  0.00     0.117 A 
HETATM   23  N   UNL     1       4.126  31.596  57.926  1.00  0.00    -0.271 NA
HETATM   24  C   UNL     1       4.195  30.283  57.603  1.00  0.00     0.146 A 
ENDBRANCH   1  18
TORSDOF 5
ENDMDL
MODEL 8
REMARK VINA RESULT:      -7.7      2.862      8.120
REMARK  5 active torsions:
REMARK  status: ('A' for Active; 'I' for Inactive)
REMARK    1  A    between atoms: C_3  and  N_4 
REMARK       I    between atoms: N_4  and  C_5 
REMARK       I    between atoms: C_5  and  N_6 
REMARK    2  A    between atoms: N_6  and  C_7 
REMARK    3  A    between atoms: C_7  and  C_8 
REMARK    4  A    between atoms: C_8  and  O_9 
REMARK    5  A    between atoms: O_9  and  C_10 
ROOT
HETATM    1  N   UNL     1       7.745  24.978  55.105  1.00  0.00    -0.307 N 
HETATM    2  C   UNL     1       6.554  25.621  54.917  1.00  0.00     0.320 C 
HETATM    3  N   UNL     1       6.616  26.984  54.955  1.00  0.00    -0.340 N 
HETATM    4  O   UNL     1       5.471  25.100  54.682  1.00  0.00    -0.247 OA
HETATM    5  H   UNL     1       8.530  25.513  54.771  1.00  0.00     0.170 HD
HETATM    6  H   UNL     1       5.691  27.398  54.886  1.00  0.00     0.164 HD
ENDROOT
BRANCH   3   7
HETATM    7  C   UNL     1       7.671  27.857  55.455  1.00  0.00     0.156 C 
BRANCH   7   8
HETATM    8  C   UNL     1       7.229  28.699  56.669  1.00  0.00     0.142 C 
HETATM    9  C   UNL     1       5.897  28.214  57.240  1.00  0.00     0.042 C 
BRANCH   8  10
HETATM   10  O   UNL     1       8.194  28.605  57.728  1.00  0.00    -0.343 OA
BRANCH  10  11
HETATM   11  C   UNL     1       8.632  29.773  58.295  1.00  0.00     0.091 A 
HETATM   12  C   UNL     1       9.856  30.295  57.844  1.00  0.00     0.067 A 
HETATM   13 CL   UNL     1      10.736  29.535  56.565  1.00  0.00    -0.081 Cl
HETATM   14  C   UNL     1      10.387  31.455  58.413  1.00  0.00     0.026 A 
HETATM   15  C   UNL     1       9.707  32.100  59.444  1.00  0.00     0.002 A 
HETATM   16  C   UNL     1       8.504  31.577  59.913  1.00  0.00     0.003 A 
HETATM   17  C   UNL     1       7.974  30.412  59.350  1.00  0.00     0.038 A 
ENDBRANCH  10  11
ENDBRANCH   8  10
ENDBRANCH   7   8
ENDBRANCH   3   7
BRANCH   1  18
HETATM   18  C   UNL     1       7.989  23.588  55.235  1.00  0.00     0.059 A 
HETATM   19  C   UNL     1       8.033  22.633  54.209  1.00  0.00    -0.032 A 
HETATM   20  C   UNL     1       7.772  22.909  52.757  1.00  0.00     0.050 C 
HETATM   21  C   UNL     1       8.327  21.300  54.555  1.00  0.00     0.028 A 
HETATM   22  C   UNL     1       8.501  20.952  55.885  1.00  0.00     0.117 A 
HETATM   23  N   UNL     1       8.402  21.830  56.897  1.00  0.00    -0.271 NA
HETATM   24  C   UNL     1       8.152  23.113  56.544  1.00  0.00     0.146 A 
ENDBRANCH   1  18
TORSDOF 5
ENDMDL
MODEL 9
REMARK VINA RESULT:      -7.6      3.387      7.724
REMARK  5 active torsions:
REMARK  status: ('A' for Active; 'I' for Inactive)
REMARK    1  A    between atoms: C_3  and  N_4 
REMARK       I    between atoms: N_4  and  C_5 
REMARK       I    between atoms: C_5  and  N_6 
REMARK    2  A    between atoms: N_6  and  C_7 
REMARK    3  A    between atoms: C_7  and  C_8 
REMARK    4  A    between atoms: C_8  and  O_9 
REMARK    5  A    between atoms: O_9  and  C_10 
ROOT
HETATM    1  N   UNL     1       7.163  23.298  55.787  1.00  0.00    -0.307 N 
HETATM    2  C   UNL     1       7.844  24.016  56.729  1.00  0.00     0.320 C 
HETATM    3  N   UNL     1       7.109  24.959  57.386  1.00  0.00    -0.340 N 
HETATM    4  O   UNL     1       9.014  23.864  57.059  1.00  0.00    -0.247 OA
HETATM    5  H   UNL     1       6.188  23.191  56.012  1.00  0.00     0.170 HD
HETATM    6  H   UNL     1       7.688  25.507  58.016  1.00  0.00     0.164 HD
ENDROOT
BRANCH   3   7
HETATM    7  C   UNL     1       5.811  25.533  57.050  1.00  0.00     0.156 C 
BRANCH   7   8
HETATM    8  C   UNL     1       5.882  27.044  56.748  1.00  0.00     0.142 C 
HETATM    9  C   UNL     1       7.031  27.718  57.497  1.00  0.00     0.042 C 
BRANCH   8  10
HETATM   10  O   UNL     1       6.109  27.270  55.349  1.00  0.00    -0.343 OA
BRANCH  10  11
HETATM   11  C   UNL     1       5.221  28.072  54.682  1.00  0.00     0.091 A 
HETATM   12  C   UNL     1       4.525  27.510  53.599  1.00  0.00     0.067 A 
HETATM   13 CL   UNL     1       4.723  25.847  53.174  1.00  0.00    -0.081 Cl
HETATM   14  C   UNL     1       3.642  28.285  52.843  1.00  0.00     0.026 A 
HETATM   15  C   UNL     1       3.451  29.630  53.155  1.00  0.00     0.002 A 
HETATM   16  C   UNL     1       4.154  30.201  54.214  1.00  0.00     0.003 A 
HETATM   17  C   UNL     1       5.045  29.429  54.967  1.00  0.00     0.038 A 
ENDBRANCH  10  11
ENDBRANCH   8  10
ENDBRANCH   7   8
ENDBRANCH   3   7
BRANCH   1  18
HETATM   18  C   UNL     1       7.666  22.343  54.869  1.00  0.00     0.059 A 
HETATM   19  C   UNL     1       7.939  22.536  53.507  1.00  0.00    -0.032 A 
HETATM   20  C   UNL     1       7.693  23.804  52.745  1.00  0.00     0.050 C 
HETATM   21  C   UNL     1       8.472  21.454  52.777  1.00  0.00     0.028 A 
HETATM   22  C   UNL     1       8.652  20.225  53.392  1.00  0.00     0.117 A 
HETATM   23  N   UNL     1       8.341  19.991  54.678  1.00  0.00    -0.271 NA
HETATM   24  C   UNL     1       7.862  21.049  55.374  1.00  0.00     0.146 A 
ENDBRANCH   1  18
TORSDOF 5
ENDMDL
MODEL 10
REMARK VINA RESULT:      -7.6      5.542      8.606
REMARK  5 active torsions:
REMARK  status: ('A' for Active; 'I' for Inactive)
REMARK    1  A    between atoms: C_3  and  N_4 
REMARK       I    between atoms: N_4  and  C_5 
REMARK       I    between atoms: C_5  and  N_6 
REMARK    2  A    between atoms: N_6  and  C_7 
REMARK    3  A    between atoms: C_7  and  C_8 
REMARK    4  A    between atoms: C_8  and  O_9 
REMARK    5  A    between atoms: O_9  and  C_10 
ROOT
HETATM    1  N   UNL     1       5.757  33.036  63.426  1.00  0.00    -0.307 N 
HETATM    2  C   UNL     1       5.425  31.823  62.892  1.00  0.00     0.320 C 
HETATM    3  N   UNL     1       6.071  31.500  61.734  1.00  0.00    -0.340 N 
HETATM    4  O   UNL     1       4.650  31.002  63.368  1.00  0.00    -0.247 OA
HETATM    5  H   UNL     1       6.707  33.301  63.222  1.00  0.00     0.170 HD
HETATM    6  H   UNL     1       5.726  30.625  61.349  1.00  0.00     0.164 HD
ENDROOT
BRANCH   3   7
HETATM    7  C   UNL     1       6.826  32.347  60.818  1.00  0.00     0.156 C 
BRANCH   7   8
HETATM    8  C   UNL     1       8.209  31.764  60.463  1.00  0.00     0.142 C 
HETATM    9  C   UNL     1       9.035  31.462  61.713  1.00  0.00     0.042 C 
BRANCH   8  10
HETATM   10  O   UNL     1       8.068  30.526  59.749  1.00  0.00    -0.343 OA
BRANCH  10  11
HETATM   11  C   UNL     1       8.883  30.320  58.667  1.00  0.00     0.091 A 
HETATM   12  C   UNL     1       8.519  29.308  57.764  1.00  0.00     0.067 A 
HETATM   13 CL   UNL     1       7.056  28.411  57.967  1.00  0.00    -0.081 Cl
HETATM   14  C   UNL     1       9.330  29.010  56.666  1.00  0.00     0.026 A 
HETATM   15  C   UNL     1      10.517  29.713  56.465  1.00  0.00     0.002 A 
HETATM   16  C   UNL     1      10.897  30.703  57.368  1.00  0.00     0.003 A 
HETATM   17  C   UNL     1      10.090  30.998  58.472  1.00  0.00     0.038 A 
ENDBRANCH  10  11
ENDBRANCH   8  10
ENDBRANCH   7   8
ENDBRANCH   3   7
BRANCH   1  18
HETATM   18  C   UNL     1       5.185  33.698  64.540  1.00  0.00     0.059 A 
HETATM   19  C   UNL     1       3.910  34.277  64.622  1.00  0.00    -0.032 A 
HETATM   20  C   UNL     1       2.918  34.348  63.498  1.00  0.00     0.050 C 
HETATM   21  C   UNL     1       3.523  34.860  65.845  1.00  0.00     0.028 A 
HETATM   22  C   UNL     1       4.415  34.905  66.904  1.00  0.00     0.117 A 
HETATM   23  N   UNL     1       5.664  34.417  66.838  1.00  0.00    -0.271 NA
HETATM   24  C   UNL     1       6.009  33.831  65.667  1.00  0.00     0.146 A 
ENDBRANCH   1  18
TORSDOF 5
ENDMDL
