MODEL 1
REMARK VINA RESULT:      -8.1      0.000      0.000
REMARK  7 active torsions:
REMARK  status: ('A' for Active; 'I' for Inactive)
REMARK    1  A    between atoms: C_2  and  C_3 
REMARK    2  A    between atoms: C_3  and  N_4 
REMARK    3  A    between atoms: N_4  and  C_5 
REMARK    4  A    between atoms: C_7  and  N_8 
REMARK    5  A    between atoms: N_8  and  C_9 
REMARK    6  A    between atoms: C_9  and  C_10 
REMARK    7  A    between atoms: C_11  and  O_12 
ROOT
HETATM    1  C   UNL     1       7.457  27.747  57.638  1.00  0.00     0.134 A 
HETATM    2  N   UNL     1       7.828  26.468  57.848  1.00  0.00    -0.052 NA
HETATM    3  C   UNL     1       7.255  25.514  57.101  1.00  0.00     0.702 A 
HETATM    4  N   UNL     1       6.342  25.774  56.170  1.00  0.00    -0.189 N 
HETATM    5  H   UNL     1       5.996  25.004  55.616  1.00  0.00     0.184 HD
HETATM    6  C   UNL     1       5.961  27.031  55.902  1.00  0.00     0.062 A 
HETATM    7  C   UNL     1       6.525  28.090  56.637  1.00  0.00     0.032 A 
HETATM    8  C   UNL     1       5.041  27.283  54.873  1.00  0.00     0.031 A 
HETATM    9  C   UNL     1       4.681  28.593  54.558  1.00  0.00     0.002 A 
HETATM   10  C   UNL     1       5.236  29.655  55.266  1.00  0.00     0.001 A 
HETATM   11  C   UNL     1       6.147  29.410  56.295  1.00  0.00     0.017 A 
ENDROOT
BRANCH   3  12
HETATM   12  N   UNL     1       7.760  24.243  57.240  1.00  0.00    -0.220 N 
HETATM   13  H   UNL     1       6.981  23.594  57.341  1.00  0.00     0.178 HD
BRANCH  12  14
HETATM   14  C   UNL     1       8.854  23.726  56.433  1.00  0.00     0.179 C 
BRANCH  14  15
HETATM   15  C   UNL     1       8.445  22.741  55.358  1.00  0.00    -0.007 A 
HETATM   16  C   UNL     1       8.083  23.230  54.082  1.00  0.00     0.076 A 
HETATM   17  C   UNL     1       7.807  22.338  53.040  1.00  0.00     0.037 A 
HETATM   18  C   UNL     1       7.905  20.963  53.245  1.00  0.00     0.003 A 
HETATM   19  C   UNL     1       8.276  20.469  54.491  1.00  0.00     0.001 A 
HETATM   20  C   UNL     1       8.551  21.350  55.538  1.00  0.00     0.011 A 
BRANCH  16  21
HETATM   21  O   UNL     1       8.019  24.596  53.961  1.00  0.00    -0.355 OA
HETATM   22  C   UNL     1       7.942  25.120  52.635  1.00  0.00     0.210 C 
ENDBRANCH  16  21
ENDBRANCH  14  15
ENDBRANCH  12  14
ENDBRANCH   3  12
BRANCH   1  23
HETATM   23  N   UNL     1       8.080  28.763  58.372  1.00  0.00    -0.276 NA
HETATM   24  H   UNL     1       8.223  28.485  59.342  1.00  0.00     0.129 HD
BRANCH  23  25
HETATM   25  C   UNL     1       9.286  29.357  57.799  1.00  0.00     0.093 C 
BRANCH  25  26
HETATM   26  C   UNL     1       9.463  30.785  58.321  1.00  0.00     0.010 C 
HETATM   27  C   UNL     1       8.184  31.353  58.921  1.00  0.00     0.006 C 
ENDBRANCH  25  26
ENDBRANCH  23  25
ENDBRANCH   1  23
TORSDOF 7
ENDMDL
MODEL 2
REMARK VINA RESULT:      -8.0      1.861      6.842
REMARK  7 active torsions:
REMARK  status: ('A' for Active; 'I' for Inactive)
REMARK    1  A    between atoms: C_2  and  C_3 
REMARK    2  A    between atoms: C_3  and  N_4 
REMARK    3  A    between atoms: N_4  and  C_5 
REMARK    4  A    between atoms: C_7  and  N_8 
REMARK    5  A    between atoms: N_8  and  C_9 
REMARK    6  A    between atoms: C_9  and  C_10 
REMARK    7  A    between atoms: C_11  and  O_12 
ROOT
HETATM    1  C   UNL     1       7.943  24.045  53.776  1.00  0.00     0.134 A 
HETATM    2  N   UNL     1       7.979  24.935  54.787  1.00  0.00    -0.052 NA
HETATM    3  C   UNL     1       8.156  24.470  56.031  1.00  0.00     0.702 A 
HETATM    4  N   UNL     1       8.296  23.178  56.308  1.00  0.00    -0.189 N 
HETATM    5  H   UNL     1       8.476  22.914  57.266  1.00  0.00     0.184 HD
HETATM    6  C   UNL     1       8.298  22.255  55.336  1.00  0.00     0.062 A 
HETATM    7  C   UNL     1       8.127  22.665  54.001  1.00  0.00     0.032 A 
HETATM    8  C   UNL     1       8.508  20.904  55.649  1.00  0.00     0.031 A 
HETATM    9  C   UNL     1       8.561  19.947  54.635  1.00  0.00     0.002 A 
HETATM   10  C   UNL     1       8.405  20.334  53.308  1.00  0.00     0.001 A 
HETATM   11  C   UNL     1       8.189  21.677  52.990  1.00  0.00     0.017 A 
ENDROOT
BRANCH   3  12
HETATM   12  N   UNL     1       8.332  25.413  57.017  1.00  0.00    -0.220 N 
HETATM   13  H   UNL     1       8.972  26.127  56.673  1.00  0.00     0.178 HD
BRANCH  12  14
HETATM   14  C   UNL     1       7.239  25.942  57.818  1.00  0.00     0.179 C 
BRANCH  14  15
HETATM   15  C   UNL     1       6.535  27.144  57.224  1.00  0.00    -0.007 A 
HETATM   16  C   UNL     1       7.209  28.386  57.190  1.00  0.00     0.076 A 
HETATM   17  C   UNL     1       6.625  29.485  56.550  1.00  0.00     0.037 A 
HETATM   18  C   UNL     1       5.386  29.360  55.925  1.00  0.00     0.003 A 
HETATM   19  C   UNL     1       4.720  28.140  55.937  1.00  0.00     0.001 A 
HETATM   20  C   UNL     1       5.291  27.038  56.575  1.00  0.00     0.011 A 
BRANCH  16  21
HETATM   21  O   UNL     1       8.428  28.422  57.821  1.00  0.00    -0.355 OA
HETATM   22  C   UNL     1       9.495  29.060  57.119  1.00  0.00     0.210 C 
ENDBRANCH  16  21
ENDBRANCH  14  15
ENDBRANCH  12  14
ENDBRANCH   3  12
BRANCH   1  23
HETATM   23  N   UNL     1       7.810  24.514  52.463  1.00  0.00    -0.276 NA
HETATM   24  H   UNL     1       7.604  23.753  51.818  1.00  0.00     0.129 HD
BRANCH  23  25
HETATM   25  C   UNL     1       6.925  25.658  52.249  1.00  0.00     0.093 C 
BRANCH  25  26
HETATM   26  C   UNL     1       5.502  25.170  51.969  1.00  0.00     0.010 C 
HETATM   27  C   UNL     1       4.628  25.162  53.216  1.00  0.00     0.006 C 
ENDBRANCH  25  26
ENDBRANCH  23  25
ENDBRANCH   1  23
TORSDOF 7
ENDMDL
MODEL 3
REMARK VINA RESULT:      -7.8      2.229      7.111
REMARK  7 active torsions:
REMARK  status: ('A' for Active; 'I' for Inactive)
REMARK    1  A    between atoms: C_2  and  C_3 
REMARK    2  A    between atoms: C_3  and  N_4 
REMARK    3  A    between atoms: N_4  and  C_5 
REMARK    4  A    between atoms: C_7  and  N_8 
REMARK    5  A    between atoms: N_8  and  C_9 
REMARK    6  A    between atoms: C_9  and  C_10 
REMARK    7  A    between atoms: C_11  and  O_12 
ROOT
HETATM    1  C   UNL     1       7.466  25.554  54.479  1.00  0.00     0.134 A 
HETATM    2  N   UNL     1       7.451  26.403  55.525  1.00  0.00    -0.052 NA
HETATM    3  C   UNL     1       7.619  25.894  56.754  1.00  0.00     0.702 A 
HETATM    4  N   UNL     1       7.797  24.597  56.981  1.00  0.00    -0.189 N 
HETATM    5  H   UNL     1       7.966  24.300  57.932  1.00  0.00     0.184 HD
HETATM    6  C   UNL     1       7.849  23.715  55.974  1.00  0.00     0.062 A 
HETATM    7  C   UNL     1       7.691  24.173  54.652  1.00  0.00     0.032 A 
HETATM    8  C   UNL     1       8.098  22.359  56.237  1.00  0.00     0.031 A 
HETATM    9  C   UNL     1       8.203  21.447  55.186  1.00  0.00     0.002 A 
HETATM   10  C   UNL     1       8.061  21.882  53.873  1.00  0.00     0.001 A 
HETATM   11  C   UNL     1       7.807  23.229  53.604  1.00  0.00     0.017 A 
ENDROOT
BRANCH   3  12
HETATM   12  N   UNL     1       7.744  26.801  57.780  1.00  0.00    -0.220 N 
HETATM   13  H   UNL     1       8.632  26.639  58.250  1.00  0.00     0.178 HD
BRANCH  12  14
HETATM   14  C   UNL     1       7.398  28.208  57.646  1.00  0.00     0.179 C 
BRANCH  14  15
HETATM   15  C   UNL     1       8.579  29.154  57.598  1.00  0.00    -0.007 A 
HETATM   16  C   UNL     1       8.576  30.296  58.430  1.00  0.00     0.076 A 
HETATM   17  C   UNL     1       9.700  31.129  58.486  1.00  0.00     0.037 A 
HETATM   18  C   UNL     1      10.837  30.828  57.739  1.00  0.00     0.003 A 
HETATM   19  C   UNL     1      10.859  29.698  56.928  1.00  0.00     0.001 A 
HETATM   20  C   UNL     1       9.743  28.863  56.863  1.00  0.00     0.011 A 
BRANCH  16  21
HETATM   21  O   UNL     1       7.421  30.517  59.140  1.00  0.00    -0.355 OA
HETATM   22  C   UNL     1       6.706  31.716  58.846  1.00  0.00     0.210 C 
ENDBRANCH  16  21
ENDBRANCH  14  15
ENDBRANCH  12  14
ENDBRANCH   3  12
BRANCH   1  23
HETATM   23  N   UNL     1       7.343  26.071  53.183  1.00  0.00    -0.276 NA
HETATM   24  H   UNL     1       7.568  25.368  52.482  1.00  0.00     0.129 HD
BRANCH  23  25
HETATM   25  C   UNL     1       6.105  26.778  52.861  1.00  0.00     0.093 C 
BRANCH  25  26
HETATM   26  C   UNL     1       4.903  25.865  53.114  1.00  0.00     0.010 C 
HETATM   27  C   UNL     1       4.765  24.771  52.063  1.00  0.00     0.006 C 
ENDBRANCH  25  26
ENDBRANCH  23  25
ENDBRANCH   1  23
TORSDOF 7
ENDMDL
MODEL 4
REMARK VINA RESULT:      -7.7      1.484      3.019
REMARK  7 active torsions:
REMARK  status: ('A' for Active; 'I' for Inactive)
REMARK    1  A    between atoms: C_2  and  C_3 
REMARK    2  A    between atoms: C_3  and  N_4 
REMARK    3  A    between atoms: N_4  and  C_5 
REMARK    4  A    between atoms: C_7  and  N_8 
REMARK    5  A    between atoms: N_8  and  C_9 
REMARK    6  A    between atoms: C_9  and  C_10 
REMARK    7  A    between atoms: C_11  and  O_12 
ROOT
HETATM    1  C   UNL     1       5.767  28.312  57.315  1.00  0.00     0.134 A 
HETATM    2  N   UNL     1       5.645  27.047  56.868  1.00  0.00    -0.052 NA
HETATM    3  C   UNL     1       6.762  26.387  56.529  1.00  0.00     0.702 A 
HETATM    4  N   UNL     1       7.974  26.925  56.615  1.00  0.00    -0.189 N 
HETATM    5  H   UNL     1       8.769  26.343  56.388  1.00  0.00     0.184 HD
HETATM    6  C   UNL     1       8.152  28.168  57.082  1.00  0.00     0.062 A 
HETATM    7  C   UNL     1       7.029  28.923  57.467  1.00  0.00     0.032 A 
HETATM    8  C   UNL     1       9.448  28.690  57.219  1.00  0.00     0.031 A 
HETATM    9  C   UNL     1       9.639  29.965  57.752  1.00  0.00     0.002 A 
HETATM   10  C   UNL     1       8.541  30.722  58.149  1.00  0.00     0.001 A 
HETATM   11  C   UNL     1       7.249  30.212  58.010  1.00  0.00     0.017 A 
ENDROOT
BRANCH   3  12
HETATM   12  N   UNL     1       6.614  25.056  56.216  1.00  0.00    -0.220 N 
HETATM   13  H   UNL     1       6.097  24.984  55.341  1.00  0.00     0.178 HD
BRANCH  12  14
HETATM   14  C   UNL     1       7.688  24.083  56.344  1.00  0.00     0.179 C 
BRANCH  14  15
HETATM   15  C   UNL     1       7.690  22.992  55.294  1.00  0.00    -0.007 A 
HETATM   16  C   UNL     1       7.813  23.352  53.933  1.00  0.00     0.076 A 
HETATM   17  C   UNL     1       7.928  22.361  52.951  1.00  0.00     0.037 A 
HETATM   18  C   UNL     1       7.942  21.014  53.309  1.00  0.00     0.003 A 
HETATM   19  C   UNL     1       7.838  20.647  54.646  1.00  0.00     0.001 A 
HETATM   20  C   UNL     1       7.720  21.627  55.632  1.00  0.00     0.011 A 
BRANCH  16  21
HETATM   21  O   UNL     1       7.800  24.699  53.666  1.00  0.00    -0.355 OA
HETATM   22  C   UNL     1       7.998  25.086  52.307  1.00  0.00     0.210 C 
ENDBRANCH  16  21
ENDBRANCH  14  15
ENDBRANCH  12  14
ENDBRANCH   3  12
BRANCH   1  23
HETATM   23  N   UNL     1       4.618  29.001  57.722  1.00  0.00    -0.276 NA
HETATM   24  H   UNL     1       4.802  29.573  58.545  1.00  0.00     0.129 HD
BRANCH  23  25
HETATM   25  C   UNL     1       3.889  29.748  56.698  1.00  0.00     0.093 C 
BRANCH  25  26
HETATM   26  C   UNL     1       3.558  31.151  57.212  1.00  0.00     0.010 C 
HETATM   27  C   UNL     1       4.438  32.227  56.589  1.00  0.00     0.006 C 
ENDBRANCH  25  26
ENDBRANCH  23  25
ENDBRANCH   1  23
TORSDOF 7
ENDMDL
MODEL 5
REMARK VINA RESULT:      -7.6      3.313      6.735
REMARK  7 active torsions:
REMARK  status: ('A' for Active; 'I' for Inactive)
REMARK    1  A    between atoms: C_2  and  C_3 
REMARK    2  A    between atoms: C_3  and  N_4 
REMARK    3  A    between atoms: N_4  and  C_5 
REMARK    4  A    between atoms: C_7  and  N_8 
REMARK    5  A    between atoms: N_8  and  C_9 
REMARK    6  A    between atoms: C_9  and  C_10 
REMARK    7  A    between atoms: C_11  and  O_12 
ROOT
HETATM    1  C   UNL     1       6.896  24.160  54.912  1.00  0.00     0.134 A 
HETATM    2  N   UNL     1       6.675  25.027  53.904  1.00  0.00    -0.052 NA
HETATM    3  C   UNL     1       7.003  24.648  52.661  1.00  0.00     0.702 A 
HETATM    4  N   UNL     1       7.535  23.463  52.383  1.00  0.00    -0.189 N 
HETATM    5  H   UNL     1       7.707  23.234  51.414  1.00  0.00     0.184 HD
HETATM    6  C   UNL     1       7.748  22.553  53.344  1.00  0.00     0.062 A 
HETATM    7  C   UNL     1       7.420  22.872  54.675  1.00  0.00     0.032 A 
HETATM    8  C   UNL     1       8.254  21.286  53.015  1.00  0.00     0.031 A 
HETATM    9  C   UNL     1       8.429  20.320  54.006  1.00  0.00     0.002 A 
HETATM   10  C   UNL     1       8.100  20.613  55.326  1.00  0.00     0.001 A 
HETATM   11  C   UNL     1       7.602  21.874  55.661  1.00  0.00     0.017 A 
ENDROOT
BRANCH   3  12
HETATM   12  N   UNL     1       6.631  25.497  51.645  1.00  0.00    -0.220 N 
HETATM   13  H   UNL     1       7.268  25.364  50.862  1.00  0.00     0.178 HD
BRANCH  12  14
HETATM   14  C   UNL     1       5.248  25.706  51.246  1.00  0.00     0.179 C 
BRANCH  14  15
HETATM   15  C   UNL     1       5.039  26.782  50.202  1.00  0.00    -0.007 A 
HETATM   16  C   UNL     1       5.393  28.114  50.511  1.00  0.00     0.076 A 
HETATM   17  C   UNL     1       5.312  29.109  49.530  1.00  0.00     0.037 A 
HETATM   18  C   UNL     1       4.902  28.791  48.236  1.00  0.00     0.003 A 
HETATM   19  C   UNL     1       4.566  27.480  47.915  1.00  0.00     0.001 A 
HETATM   20  C   UNL     1       4.640  26.481  48.887  1.00  0.00     0.011 A 
BRANCH  16  21
HETATM   21  O   UNL     1       5.795  28.342  51.804  1.00  0.00    -0.355 OA
HETATM   22  C   UNL     1       4.931  29.139  52.614  1.00  0.00     0.210 C 
ENDBRANCH  16  21
ENDBRANCH  14  15
ENDBRANCH  12  14
ENDBRANCH   3  12
BRANCH   1  23
HETATM   23  N   UNL     1       6.514  24.517  56.210  1.00  0.00    -0.276 NA
HETATM   24  H   UNL     1       6.941  23.904  56.903  1.00  0.00     0.129 HD
BRANCH  23  25
HETATM   25  C   UNL     1       6.643  25.924  56.582  1.00  0.00     0.093 C 
BRANCH  25  26
HETATM   26  C   UNL     1       8.029  26.181  57.178  1.00  0.00     0.010 C 
HETATM   27  C   UNL     1       8.432  27.649  57.116  1.00  0.00     0.006 C 
ENDBRANCH  25  26
ENDBRANCH  23  25
ENDBRANCH   1  23
TORSDOF 7
ENDMDL
MODEL 6
REMARK VINA RESULT:      -7.6      2.269      7.039
REMARK  7 active torsions:
REMARK  status: ('A' for Active; 'I' for Inactive)
REMARK    1  A    between atoms: C_2  and  C_3 
REMARK    2  A    between atoms: C_3  and  N_4 
REMARK    3  A    between atoms: N_4  and  C_5 
REMARK    4  A    between atoms: C_7  and  N_8 
REMARK    5  A    between atoms: N_8  and  C_9 
REMARK    6  A    between atoms: C_9  and  C_10 
REMARK    7  A    between atoms: C_11  and  O_12 
ROOT
HETATM    1  C   UNL     1       7.170  24.301  55.413  1.00  0.00     0.134 A 
HETATM    2  N   UNL     1       7.565  25.006  56.491  1.00  0.00    -0.052 NA
HETATM    3  C   UNL     1       7.267  26.313  56.535  1.00  0.00     0.702 A 
HETATM    4  N   UNL     1       6.605  26.937  55.566  1.00  0.00    -0.189 N 
HETATM    5  H   UNL     1       6.376  27.911  55.699  1.00  0.00     0.184 HD
HETATM    6  C   UNL     1       6.164  26.275  54.487  1.00  0.00     0.062 A 
HETATM    7  C   UNL     1       6.428  24.898  54.372  1.00  0.00     0.032 A 
HETATM    8  C   UNL     1       5.414  26.945  53.509  1.00  0.00     0.031 A 
HETATM    9  C   UNL     1       4.911  26.248  52.410  1.00  0.00     0.002 A 
HETATM   10  C   UNL     1       5.153  24.884  52.283  1.00  0.00     0.001 A 
HETATM   11  C   UNL     1       5.903  24.212  53.251  1.00  0.00     0.017 A 
ENDROOT
BRANCH   3  12
HETATM   12  N   UNL     1       7.556  26.966  57.710  1.00  0.00    -0.220 N 
HETATM   13  H   UNL     1       8.454  26.631  58.055  1.00  0.00     0.178 HD
BRANCH  12  14
HETATM   14  C   UNL     1       7.352  28.394  57.899  1.00  0.00     0.179 C 
BRANCH  14  15
HETATM   15  C   UNL     1       8.589  29.247  57.714  1.00  0.00    -0.007 A 
HETATM   16  C   UNL     1       8.739  30.414  58.496  1.00  0.00     0.076 A 
HETATM   17  C   UNL     1       9.920  31.161  58.425  1.00  0.00     0.037 A 
HETATM   18  C   UNL     1      10.965  30.750  57.599  1.00  0.00     0.003 A 
HETATM   19  C   UNL     1      10.836  29.594  56.836  1.00  0.00     0.001 A 
HETATM   20  C   UNL     1       9.661  28.844  56.898  1.00  0.00     0.011 A 
BRANCH  16  21
HETATM   21  O   UNL     1       7.668  30.745  59.290  1.00  0.00    -0.355 OA
HETATM   22  C   UNL     1       7.956  31.087  60.646  1.00  0.00     0.210 C 
ENDBRANCH  16  21
ENDBRANCH  14  15
ENDBRANCH  12  14
ENDBRANCH   3  12
BRANCH   1  23
HETATM   23  N   UNL     1       7.426  22.925  55.370  1.00  0.00    -0.276 NA
HETATM   24  H   UNL     1       6.640  22.415  54.973  1.00  0.00     0.129 HD
BRANCH  23  25
HETATM   25  C   UNL     1       8.696  22.500  54.784  1.00  0.00     0.093 C 
BRANCH  25  26
HETATM   26  C   UNL     1       8.633  21.015  54.423  1.00  0.00     0.010 C 
HETATM   27  C   UNL     1       8.040  20.772  53.041  1.00  0.00     0.006 C 
ENDBRANCH  25  26
ENDBRANCH  23  25
ENDBRANCH   1  23
TORSDOF 7
ENDMDL
MODEL 7
REMARK VINA RESULT:      -7.5      2.218      4.370
REMARK  7 active torsions:
REMARK  status: ('A' for Active; 'I' for Inactive)
REMARK    1  A    between atoms: C_2  and  C_3 
REMARK    2  A    between atoms: C_3  and  N_4 
REMARK    3  A    between atoms: N_4  and  C_5 
REMARK    4  A    between atoms: C_7  and  N_8 
REMARK    5  A    between atoms: N_8  and  C_9 
REMARK    6  A    between atoms: C_9  and  C_10 
REMARK    7  A    between atoms: C_11  and  O_12 
ROOT
HETATM    1  C   UNL     1       4.340  27.392  53.497  1.00  0.00     0.134 A 
HETATM    2  N   UNL     1       4.848  26.264  52.963  1.00  0.00    -0.052 NA
HETATM    3  C   UNL     1       5.783  25.602  53.659  1.00  0.00     0.702 A 
HETATM    4  N   UNL     1       6.227  26.009  54.843  1.00  0.00    -0.189 N 
HETATM    5  H   UNL     1       6.897  25.426  55.326  1.00  0.00     0.184 HD
HETATM    6  C   UNL     1       5.734  27.108  55.431  1.00  0.00     0.062 A 
HETATM    7  C   UNL     1       4.741  27.853  54.768  1.00  0.00     0.032 A 
HETATM    8  C   UNL     1       6.176  27.482  56.709  1.00  0.00     0.031 A 
HETATM    9  C   UNL     1       5.628  28.596  57.345  1.00  0.00     0.002 A 
HETATM   10  C   UNL     1       4.638  29.339  56.710  1.00  0.00     0.001 A 
HETATM   11  C   UNL     1       4.197  28.976  55.436  1.00  0.00     0.017 A 
ENDROOT
BRANCH   3  12
HETATM   12  N   UNL     1       6.172  24.383  53.154  1.00  0.00    -0.220 N 
HETATM   13  H   UNL     1       5.556  24.142  52.380  1.00  0.00     0.178 HD
BRANCH  12  14
HETATM   14  C   UNL     1       7.563  24.020  52.933  1.00  0.00     0.179 C 
BRANCH  14  15
HETATM   15  C   UNL     1       8.008  22.746  53.622  1.00  0.00    -0.007 A 
HETATM   16  C   UNL     1       8.336  22.788  54.995  1.00  0.00     0.076 A 
HETATM   17  C   UNL     1       8.645  21.608  55.681  1.00  0.00     0.037 A 
HETATM   18  C   UNL     1       8.611  20.381  55.021  1.00  0.00     0.003 A 
HETATM   19  C   UNL     1       8.274  20.324  53.673  1.00  0.00     0.001 A 
HETATM   20  C   UNL     1       7.968  21.495  52.979  1.00  0.00     0.011 A 
BRANCH  16  21
HETATM   21  O   UNL     1       8.336  24.034  55.573  1.00  0.00    -0.355 OA
HETATM   22  C   UNL     1       8.429  24.082  56.996  1.00  0.00     0.210 C 
ENDBRANCH  16  21
ENDBRANCH  14  15
ENDBRANCH  12  14
ENDBRANCH   3  12
BRANCH   1  23
HETATM   23  N   UNL     1       3.326  28.071  52.810  1.00  0.00    -0.276 NA
HETATM   24  H   UNL     1       2.857  28.745  53.414  1.00  0.00     0.129 HD
BRANCH  23  25
HETATM   25  C   UNL     1       3.672  28.656  51.516  1.00  0.00     0.093 C 
BRANCH  25  26
HETATM   26  C   UNL     1       4.839  29.632  51.680  1.00  0.00     0.010 C 
HETATM   27  C   UNL     1       5.562  29.908  50.368  1.00  0.00     0.006 C 
ENDBRANCH  25  26
ENDBRANCH  23  25
ENDBRANCH   1  23
TORSDOF 7
ENDMDL
MODEL 8
REMARK VINA RESULT:      -7.5      3.729      7.187
REMARK  7 active torsions:
REMARK  status: ('A' for Active; 'I' for Inactive)
REMARK    1  A    between atoms: C_2  and  C_3 
REMARK    2  A    between atoms: C_3  and  N_4 
REMARK    3  A    between atoms: N_4  and  C_5 
REMARK    4  A    between atoms: C_7  and  N_8 
REMARK    5  A    between atoms: N_8  and  C_9 
REMARK    6  A    between atoms: C_9  and  C_10 
REMARK    7  A    between atoms: C_11  and  O_12 
ROOT
HETATM    1  C   UNL     1       6.750  24.006  54.227  1.00  0.00     0.134 A 
HETATM    2  N   UNL     1       6.010  24.224  53.123  1.00  0.00    -0.052 NA
HETATM    3  C   UNL     1       5.216  25.304  53.097  1.00  0.00     0.702 A 
HETATM    4  N   UNL     1       5.128  26.162  54.108  1.00  0.00    -0.189 N 
HETATM    5  H   UNL     1       4.545  26.978  53.990  1.00  0.00     0.184 HD
HETATM    6  C   UNL     1       5.865  26.008  55.216  1.00  0.00     0.062 A 
HETATM    7  C   UNL     1       6.732  24.903  55.316  1.00  0.00     0.032 A 
HETATM    8  C   UNL     1       5.799  26.961  56.244  1.00  0.00     0.031 A 
HETATM    9  C   UNL     1       6.603  26.830  57.377  1.00  0.00     0.002 A 
HETATM   10  C   UNL     1       7.474  25.751  57.489  1.00  0.00     0.001 A 
HETATM   11  C   UNL     1       7.540  24.795  56.473  1.00  0.00     0.017 A 
ENDROOT
BRANCH   3  12
HETATM   12  N   UNL     1       4.587  25.572  51.904  1.00  0.00    -0.220 N 
HETATM   13  H   UNL     1       3.729  26.085  52.097  1.00  0.00     0.178 HD
BRANCH  12  14
HETATM   14  C   UNL     1       5.291  26.033  50.718  1.00  0.00     0.179 C 
BRANCH  14  15
HETATM   15  C   UNL     1       4.431  26.763  49.707  1.00  0.00    -0.007 A 
HETATM   16  C   UNL     1       3.939  28.048  50.028  1.00  0.00     0.076 A 
HETATM   17  C   UNL     1       3.234  28.789  49.072  1.00  0.00     0.037 A 
HETATM   18  C   UNL     1       3.029  28.276  47.793  1.00  0.00     0.003 A 
HETATM   19  C   UNL     1       3.523  27.019  47.460  1.00  0.00     0.001 A 
HETATM   20  C   UNL     1       4.225  26.271  48.406  1.00  0.00     0.011 A 
BRANCH  16  21
HETATM   21  O   UNL     1       4.191  28.485  51.305  1.00  0.00    -0.355 OA
HETATM   22  C   UNL     1       3.062  28.883  52.082  1.00  0.00     0.210 C 
ENDBRANCH  16  21
ENDBRANCH  14  15
ENDBRANCH  12  14
ENDBRANCH   3  12
BRANCH   1  23
HETATM   23  N   UNL     1       7.624  22.913  54.254  1.00  0.00    -0.276 NA
HETATM   24  H   UNL     1       7.382  22.265  55.002  1.00  0.00     0.129 HD
BRANCH  23  25
HETATM   25  C   UNL     1       7.860  22.216  52.992  1.00  0.00     0.093 C 
BRANCH  25  26
HETATM   26  C   UNL     1       7.914  20.705  53.232  1.00  0.00     0.010 C 
HETATM   27  C   UNL     1       8.129  20.352  54.698  1.00  0.00     0.006 C 
ENDBRANCH  25  26
ENDBRANCH  23  25
ENDBRANCH   1  23
TORSDOF 7
ENDMDL
MODEL 9
REMARK VINA RESULT:      -7.3      1.864      3.670
REMARK  7 active torsions:
REMARK  status: ('A' for Active; 'I' for Inactive)
REMARK    1  A    between atoms: C_2  and  C_3 
REMARK    2  A    between atoms: C_3  and  N_4 
REMARK    3  A    between atoms: N_4  and  C_5 
REMARK    4  A    between atoms: C_7  and  N_8 
REMARK    5  A    between atoms: N_8  and  C_9 
REMARK    6  A    between atoms: C_9  and  C_10 
REMARK    7  A    between atoms: C_11  and  O_12 
ROOT
HETATM    1  C   UNL     1       5.613  28.904  57.440  1.00  0.00     0.134 A 
HETATM    2  N   UNL     1       5.378  27.745  56.795  1.00  0.00    -0.052 NA
HETATM    3  C   UNL     1       6.428  27.069  56.307  1.00  0.00     0.702 A 
HETATM    4  N   UNL     1       7.682  27.492  56.431  1.00  0.00    -0.189 N 
HETATM    5  H   UNL     1       8.420  26.900  56.079  1.00  0.00     0.184 HD
HETATM    6  C   UNL     1       7.972  28.623  57.089  1.00  0.00     0.062 A 
HETATM    7  C   UNL     1       6.924  29.385  57.639  1.00  0.00     0.032 A 
HETATM    8  C   UNL     1       9.309  29.016  57.258  1.00  0.00     0.031 A 
HETATM    9  C   UNL     1       9.617  30.165  57.986  1.00  0.00     0.002 A 
HETATM   10  C   UNL     1       8.595  30.925  58.547  1.00  0.00     0.001 A 
HETATM   11  C   UNL     1       7.263  30.544  58.378  1.00  0.00     0.017 A 
ENDROOT
BRANCH   3  12
HETATM   12  N   UNL     1       6.165  25.825  55.784  1.00  0.00    -0.220 N 
HETATM   13  H   UNL     1       6.047  25.915  54.776  1.00  0.00     0.178 HD
BRANCH  12  14
HETATM   14  C   UNL     1       6.880  24.623  56.186  1.00  0.00     0.179 C 
BRANCH  14  15
HETATM   15  C   UNL     1       7.391  23.771  55.044  1.00  0.00    -0.007 A 
HETATM   16  C   UNL     1       8.028  22.544  55.336  1.00  0.00     0.076 A 
HETATM   17  C   UNL     1       8.412  21.687  54.299  1.00  0.00     0.037 A 
HETATM   18  C   UNL     1       8.152  22.025  52.972  1.00  0.00     0.003 A 
HETATM   19  C   UNL     1       7.511  23.222  52.672  1.00  0.00     0.001 A 
HETATM   20  C   UNL     1       7.127  24.086  53.698  1.00  0.00     0.011 A 
BRANCH  16  21
HETATM   21  O   UNL     1       8.239  22.281  56.668  1.00  0.00    -0.355 OA
HETATM   22  C   UNL     1       8.386  20.910  57.035  1.00  0.00     0.210 C 
ENDBRANCH  16  21
ENDBRANCH  14  15
ENDBRANCH  12  14
ENDBRANCH   3  12
BRANCH   1  23
HETATM   23  N   UNL     1       4.536  29.599  58.002  1.00  0.00    -0.276 NA
HETATM   24  H   UNL     1       4.833  30.164  58.795  1.00  0.00     0.129 HD
BRANCH  23  25
HETATM   25  C   UNL     1       3.682  30.358  57.089  1.00  0.00     0.093 C 
BRANCH  25  26
HETATM   26  C   UNL     1       3.728  31.845  57.449  1.00  0.00     0.010 C 
HETATM   27  C   UNL     1       4.723  32.624  56.598  1.00  0.00     0.006 C 
ENDBRANCH  25  26
ENDBRANCH  23  25
ENDBRANCH   1  23
TORSDOF 7
ENDMDL
MODEL 10
REMARK VINA RESULT:      -7.3      2.078      7.101
REMARK  7 active torsions:
REMARK  status: ('A' for Active; 'I' for Inactive)
REMARK    1  A    between atoms: C_2  and  C_3 
REMARK    2  A    between atoms: C_3  and  N_4 
REMARK    3  A    between atoms: N_4  and  C_5 
REMARK    4  A    between atoms: C_7  and  N_8 
REMARK    5  A    between atoms: N_8  and  C_9 
REMARK    6  A    between atoms: C_9  and  C_10 
REMARK    7  A    between atoms: C_11  and  O_12 
ROOT
HETATM    1  C   UNL     1       7.146  24.593  55.082  1.00  0.00     0.134 A 
HETATM    2  N   UNL     1       7.673  25.293  56.106  1.00  0.00    -0.052 NA
HETATM    3  C   UNL     1       7.553  26.628  56.087  1.00  0.00     0.702 A 
HETATM    4  N   UNL     1       6.943  27.285  55.106  1.00  0.00    -0.189 N 
HETATM    5  H   UNL     1       6.851  28.287  55.192  1.00  0.00     0.184 HD
HETATM    6  C   UNL     1       6.376  26.635  54.080  1.00  0.00     0.062 A 
HETATM    7  C   UNL     1       6.451  25.231  54.033  1.00  0.00     0.032 A 
HETATM    8  C   UNL     1       5.685  27.349  53.090  1.00  0.00     0.031 A 
HETATM    9  C   UNL     1       5.052  26.672  52.047  1.00  0.00     0.002 A 
HETATM   10  C   UNL     1       5.105  25.283  51.990  1.00  0.00     0.001 A 
HETATM   11  C   UNL     1       5.796  24.566  52.969  1.00  0.00     0.017 A 
ENDROOT
BRANCH   3  12
HETATM   12  N   UNL     1       7.972  27.295  57.213  1.00  0.00    -0.220 N 
HETATM   13  H   UNL     1       8.326  26.613  57.882  1.00  0.00     0.178 HD
BRANCH  12  14
HETATM   14  C   UNL     1       8.742  28.528  57.169  1.00  0.00     0.179 C 
BRANCH  14  15
HETATM   15  C   UNL     1       8.148  29.682  57.951  1.00  0.00    -0.007 A 
HETATM   16  C   UNL     1       6.940  30.261  57.503  1.00  0.00     0.076 A 
HETATM   17  C   UNL     1       6.313  31.254  58.265  1.00  0.00     0.037 A 
HETATM   18  C   UNL     1       6.862  31.665  59.478  1.00  0.00     0.003 A 
HETATM   19  C   UNL     1       8.043  31.090  59.937  1.00  0.00     0.001 A 
HETATM   20  C   UNL     1       8.678  30.102  59.184  1.00  0.00     0.011 A 
BRANCH  16  21
HETATM   21  O   UNL     1       6.459  29.795  56.304  1.00  0.00    -0.355 OA
HETATM   22  C   UNL     1       5.310  30.454  55.774  1.00  0.00     0.210 C 
ENDBRANCH  16  21
ENDBRANCH  14  15
ENDBRANCH  12  14
ENDBRANCH   3  12
BRANCH   1  23
HETATM   23  N   UNL     1       7.215  23.195  55.108  1.00  0.00    -0.276 NA
HETATM   24  H   UNL     1       6.358  22.776  54.752  1.00  0.00     0.129 HD
BRANCH  23  25
HETATM   25  C   UNL     1       8.403  22.574  54.523  1.00  0.00     0.093 C 
BRANCH  25  26
HETATM   26  C   UNL     1       8.038  21.894  53.202  1.00  0.00     0.010 C 
HETATM   27  C   UNL     1       8.599  20.482  53.094  1.00  0.00     0.006 C 
ENDBRANCH  25  26
ENDBRANCH  23  25
ENDBRANCH   1  23
TORSDOF 7
ENDMDL
