MODEL 1
REMARK VINA RESULT:      -8.6      0.000      0.000
REMARK  4 active torsions:
REMARK  status: ('A' for Active; 'I' for Inactive)
REMARK    1  A    between atoms: N_2  and  C_4 
REMARK    2  A    between atoms: C_4  and  C_5 
REMARK    3  A    between atoms: C_8  and  C_9 
REMARK       I    between atoms: C_9  and  N_10 
REMARK    4  A    between atoms: N_10  and  C_11 
ROOT
HETATM    1  C   UNL     1       6.877  32.354  61.967  1.00  0.00     0.269 C 
HETATM    2  N   UNL     1       8.226  32.280  61.681  1.00  0.00    -0.153 N 
HETATM    3  O   UNL     1       5.935  32.113  61.223  1.00  0.00    -0.267 OA
HETATM    4  H   UNL     1       8.898  32.705  62.299  1.00  0.00     0.187 HD
ENDROOT
BRANCH   1   5
HETATM    5  C   UNL     1       6.543  32.797  63.349  1.00  0.00     0.032 A 
HETATM    6  C   UNL     1       7.592  33.170  64.200  1.00  0.00     0.017 A 
HETATM    7  C   UNL     1       7.323  33.724  65.453  1.00  0.00     0.010 A 
HETATM    8  C   UNL     1       5.998  33.926  65.868  1.00  0.00    -0.033 A 
HETATM    9  C   UNL     1       4.950  33.524  65.024  1.00  0.00     0.010 A 
HETATM   10  C   UNL     1       5.219  32.966  63.769  1.00  0.00     0.017 A 
BRANCH   8  11
HETATM   11  C   UNL     1       5.710  34.646  67.160  1.00  0.00     0.272 C 
BRANCH  11  12
HETATM   12  N   UNL     1       6.427  34.035  68.346  1.00  0.00    -0.075 N 
HETATM   13  C   UNL     1       5.493  33.582  69.437  1.00  0.00     0.269 C 
HETATM   14  H   UNL     1       6.897  33.189  68.001  1.00  0.00     0.279 HD
HETATM   15  C   UNL     1       7.493  34.947  68.880  1.00  0.00     0.269 C 
ENDBRANCH  11  12
ENDBRANCH   8  11
ENDBRANCH   1   5
BRANCH   2  16
HETATM   16  C   UNL     1       8.679  31.634  60.556  1.00  0.00     0.708 A 
HETATM   17  N   UNL     1       9.677  31.967  59.774  1.00  0.00    -0.062 NA
HETATM   18  C   UNL     1       9.681  31.057  58.748  1.00  0.00     0.103 A 
HETATM   19  C   UNL     1       8.655  30.134  58.906  1.00  0.00     0.078 A 
HETATM   20  C   UNL     1      10.526  30.961  57.635  1.00  0.00     0.034 A 
HETATM   21  N   UNL     1       8.042  30.516  60.072  1.00  0.00    -0.187 N 
HETATM   22  C   UNL     1       8.409  29.098  58.004  1.00  0.00     0.032 A 
HETATM   23  H   UNL     1       7.252  30.054  60.492  1.00  0.00     0.184 HD
HETATM   24  C   UNL     1       9.259  29.019  56.894  1.00  0.00     0.002 A 
HETATM   25  C   UNL     1      10.302  29.932  56.711  1.00  0.00     0.002 A 
ENDBRANCH   2  16
TORSDOF 4
ENDMDL
MODEL 2
REMARK VINA RESULT:      -8.4     12.402     14.385
REMARK  4 active torsions:
REMARK  status: ('A' for Active; 'I' for Inactive)
REMARK    1  A    between atoms: N_2  and  C_4 
REMARK    2  A    between atoms: C_4  and  C_5 
REMARK    3  A    between atoms: C_8  and  C_9 
REMARK       I    between atoms: C_9  and  N_10 
REMARK    4  A    between atoms: N_10  and  C_11 
ROOT
HETATM    1  C   UNL     1       5.404  26.235  51.848  1.00  0.00     0.269 C 
HETATM    2  N   UNL     1       5.718  26.353  50.508  1.00  0.00    -0.153 N 
HETATM    3  O   UNL     1       4.470  26.751  52.450  1.00  0.00    -0.267 OA
HETATM    4  H   UNL     1       6.622  26.061  50.173  1.00  0.00     0.187 HD
ENDROOT
BRANCH   1   5
HETATM    5  C   UNL     1       6.331  25.387  52.646  1.00  0.00     0.032 A 
HETATM    6  C   UNL     1       5.995  25.105  53.977  1.00  0.00     0.017 A 
HETATM    7  C   UNL     1       6.757  24.202  54.722  1.00  0.00     0.010 A 
HETATM    8  C   UNL     1       7.858  23.556  54.141  1.00  0.00    -0.033 A 
HETATM    9  C   UNL     1       8.208  23.863  52.816  1.00  0.00     0.010 A 
HETATM   10  C   UNL     1       7.447  24.770  52.070  1.00  0.00     0.017 A 
BRANCH   8  11
HETATM   11  C   UNL     1       8.596  22.484  54.900  1.00  0.00     0.272 C 
BRANCH  11  12
HETATM   12  N   UNL     1       7.913  21.134  54.825  1.00  0.00    -0.075 N 
HETATM   13  C   UNL     1       7.842  20.429  56.154  1.00  0.00     0.269 C 
HETATM   14  H   UNL     1       6.942  21.313  54.543  1.00  0.00     0.279 HD
HETATM   15  C   UNL     1       8.527  20.259  53.772  1.00  0.00     0.269 C 
ENDBRANCH  11  12
ENDBRANCH   8  11
ENDBRANCH   1   5
BRANCH   2  16
HETATM   16  C   UNL     1       4.814  26.867  49.609  1.00  0.00     0.708 A 
HETATM   17  N   UNL     1       4.857  28.019  48.983  1.00  0.00    -0.062 NA
HETATM   18  C   UNL     1       3.695  28.106  48.261  1.00  0.00     0.103 A 
HETATM   19  C   UNL     1       2.915  26.972  48.446  1.00  0.00     0.078 A 
HETATM   20  C   UNL     1       3.229  29.132  47.429  1.00  0.00     0.034 A 
HETATM   21  N   UNL     1       3.657  26.195  49.298  1.00  0.00    -0.187 N 
HETATM   22  C   UNL     1       1.669  26.791  47.844  1.00  0.00     0.032 A 
HETATM   23  H   UNL     1       3.388  25.286  49.639  1.00  0.00     0.184 HD
HETATM   24  C   UNL     1       1.216  27.828  47.020  1.00  0.00     0.002 A 
HETATM   25  C   UNL     1       1.980  28.980  46.812  1.00  0.00     0.002 A 
ENDBRANCH   2  16
TORSDOF 4
ENDMDL
MODEL 3
REMARK VINA RESULT:      -8.4      1.532      2.104
REMARK  4 active torsions:
REMARK  status: ('A' for Active; 'I' for Inactive)
REMARK    1  A    between atoms: N_2  and  C_4 
REMARK    2  A    between atoms: C_4  and  C_5 
REMARK    3  A    between atoms: C_8  and  C_9 
REMARK       I    between atoms: C_9  and  N_10 
REMARK    4  A    between atoms: N_10  and  C_11 
ROOT
HETATM    1  C   UNL     1       7.782  31.358  61.911  1.00  0.00     0.269 C 
HETATM    2  N   UNL     1       7.117  31.399  60.702  1.00  0.00    -0.153 N 
HETATM    3  O   UNL     1       8.816  30.759  62.182  1.00  0.00    -0.267 OA
HETATM    4  H   UNL     1       6.172  31.745  60.655  1.00  0.00     0.187 HD
ENDROOT
BRANCH   1   5
HETATM    5  C   UNL     1       7.145  32.129  63.014  1.00  0.00     0.032 A 
HETATM    6  C   UNL     1       7.970  32.853  63.884  1.00  0.00     0.017 A 
HETATM    7  C   UNL     1       7.415  33.701  64.844  1.00  0.00     0.010 A 
HETATM    8  C   UNL     1       6.023  33.849  64.937  1.00  0.00    -0.033 A 
HETATM    9  C   UNL     1       5.198  33.100  64.083  1.00  0.00     0.010 A 
HETATM   10  C   UNL     1       5.754  32.247  63.123  1.00  0.00     0.017 A 
BRANCH   8  11
HETATM   11  C   UNL     1       5.430  34.864  65.881  1.00  0.00     0.272 C 
BRANCH  11  12
HETATM   12  N   UNL     1       4.259  34.318  66.671  1.00  0.00    -0.075 N 
HETATM   13  C   UNL     1       3.066  35.237  66.678  1.00  0.00     0.269 C 
HETATM   14  H   UNL     1       3.958  33.460  66.194  1.00  0.00     0.279 HD
HETATM   15  C   UNL     1       4.662  33.931  68.064  1.00  0.00     0.269 C 
ENDBRANCH  11  12
ENDBRANCH   8  11
ENDBRANCH   1   5
BRANCH   2  16
HETATM   16  C   UNL     1       7.722  30.972  59.544  1.00  0.00     0.708 A 
HETATM   17  N   UNL     1       7.174  30.368  58.516  1.00  0.00    -0.062 NA
HETATM   18  C   UNL     1       8.199  30.077  57.652  1.00  0.00     0.103 A 
HETATM   19  C   UNL     1       9.413  30.517  58.163  1.00  0.00     0.078 A 
HETATM   20  C   UNL     1       8.171  29.425  56.413  1.00  0.00     0.034 A 
HETATM   21  N   UNL     1       9.078  31.095  59.361  1.00  0.00    -0.187 N 
HETATM   22  C   UNL     1      10.631  30.344  57.504  1.00  0.00     0.032 A 
HETATM   23  H   UNL     1       9.727  31.528  59.999  1.00  0.00     0.184 HD
HETATM   24  C   UNL     1      10.586  29.686  56.269  1.00  0.00     0.002 A 
HETATM   25  C   UNL     1       9.379  29.235  55.729  1.00  0.00     0.002 A 
ENDBRANCH   2  16
TORSDOF 4
ENDMDL
MODEL 4
REMARK VINA RESULT:      -8.3      5.683      8.785
REMARK  4 active torsions:
REMARK  status: ('A' for Active; 'I' for Inactive)
REMARK    1  A    between atoms: N_2  and  C_4 
REMARK    2  A    between atoms: C_4  and  C_5 
REMARK    3  A    between atoms: C_8  and  C_9 
REMARK       I    between atoms: C_9  and  N_10 
REMARK    4  A    between atoms: N_10  and  C_11 
ROOT
HETATM    1  C   UNL     1       7.584  26.399  56.985  1.00  0.00     0.269 C 
HETATM    2  N   UNL     1       6.907  25.883  55.898  1.00  0.00    -0.153 N 
HETATM    3  O   UNL     1       8.347  25.814  57.743  1.00  0.00    -0.267 OA
HETATM    4  H   UNL     1       6.148  26.399  55.482  1.00  0.00     0.187 HD
ENDROOT
BRANCH   1   5
HETATM    5  C   UNL     1       7.333  27.839  57.265  1.00  0.00     0.032 A 
HETATM    6  C   UNL     1       6.024  28.322  57.148  1.00  0.00     0.017 A 
HETATM    7  C   UNL     1       5.715  29.628  57.535  1.00  0.00     0.010 A 
HETATM    8  C   UNL     1       6.710  30.466  58.058  1.00  0.00    -0.033 A 
HETATM    9  C   UNL     1       8.028  29.988  58.146  1.00  0.00     0.010 A 
HETATM   10  C   UNL     1       8.339  28.680  57.756  1.00  0.00     0.017 A 
BRANCH   8  11
HETATM   11  C   UNL     1       6.350  31.826  58.600  1.00  0.00     0.272 C 
BRANCH  11  12
HETATM   12  N   UNL     1       5.759  31.766  59.993  1.00  0.00    -0.075 N 
HETATM   13  C   UNL     1       4.373  32.349  60.077  1.00  0.00     0.269 C 
HETATM   14  H   UNL     1       5.667  30.770  60.230  1.00  0.00     0.279 HD
HETATM   15  C   UNL     1       6.675  32.380  61.012  1.00  0.00     0.269 C 
ENDBRANCH  11  12
ENDBRANCH   8  11
ENDBRANCH   1   5
BRANCH   2  16
HETATM   16  C   UNL     1       7.246  24.663  55.363  1.00  0.00     0.708 A 
HETATM   17  N   UNL     1       7.409  24.346  54.101  1.00  0.00    -0.062 NA
HETATM   18  C   UNL     1       7.664  22.999  54.073  1.00  0.00     0.103 A 
HETATM   19  C   UNL     1       7.662  22.472  55.359  1.00  0.00     0.078 A 
HETATM   20  C   UNL     1       7.898  22.151  52.984  1.00  0.00     0.034 A 
HETATM   21  N   UNL     1       7.407  23.555  56.160  1.00  0.00    -0.187 N 
HETATM   22  C   UNL     1       7.879  21.121  55.635  1.00  0.00     0.032 A 
HETATM   23  H   UNL     1       7.342  23.533  57.165  1.00  0.00     0.184 HD
HETATM   24  C   UNL     1       8.106  20.287  54.534  1.00  0.00     0.002 A 
HETATM   25  C   UNL     1       8.117  20.789  53.230  1.00  0.00     0.002 A 
ENDBRANCH   2  16
TORSDOF 4
ENDMDL
MODEL 5
REMARK VINA RESULT:      -8.2      5.685      8.783
REMARK  4 active torsions:
REMARK  status: ('A' for Active; 'I' for Inactive)
REMARK    1  A    between atoms: N_2  and  C_4 
REMARK    2  A    between atoms: C_4  and  C_5 
REMARK    3  A    between atoms: C_8  and  C_9 
REMARK       I    between atoms: C_9  and  N_10 
REMARK    4  A    between atoms: N_10  and  C_11 
ROOT
HETATM    1  C   UNL     1       7.354  26.565  56.054  1.00  0.00     0.269 C 
HETATM    2  N   UNL     1       8.181  25.579  56.556  1.00  0.00    -0.153 N 
HETATM    3  O   UNL     1       6.728  26.557  55.001  1.00  0.00    -0.267 OA
HETATM    4  H   UNL     1       8.805  25.784  57.320  1.00  0.00     0.187 HD
ENDROOT
BRANCH   1   5
HETATM    5  C   UNL     1       7.230  27.783  56.900  1.00  0.00     0.032 A 
HETATM    6  C   UNL     1       8.378  28.272  57.535  1.00  0.00     0.017 A 
HETATM    7  C   UNL     1       8.343  29.487  58.223  1.00  0.00     0.010 A 
HETATM    8  C   UNL     1       7.160  30.239  58.271  1.00  0.00    -0.033 A 
HETATM    9  C   UNL     1       6.003  29.731  57.658  1.00  0.00     0.010 A 
HETATM   10  C   UNL     1       6.037  28.512  56.971  1.00  0.00     0.017 A 
BRANCH   8  11
HETATM   11  C   UNL     1       7.158  31.610  58.897  1.00  0.00     0.272 C 
BRANCH  11  12
HETATM   12  N   UNL     1       6.541  31.624  60.280  1.00  0.00    -0.075 N 
HETATM   13  C   UNL     1       5.571  32.758  60.487  1.00  0.00     0.269 C 
HETATM   14  H   UNL     1       5.993  30.759  60.366  1.00  0.00     0.279 HD
HETATM   15  C   UNL     1       7.588  31.594  61.355  1.00  0.00     0.269 C 
ENDBRANCH  11  12
ENDBRANCH   8  11
ENDBRANCH   1   5
BRANCH   2  16
HETATM   16  C   UNL     1       8.174  24.310  56.029  1.00  0.00     0.708 A 
HETATM   17  N   UNL     1       8.331  23.169  56.657  1.00  0.00    -0.062 NA
HETATM   18  C   UNL     1       8.324  22.196  55.691  1.00  0.00     0.103 A 
HETATM   19  C   UNL     1       8.155  22.755  54.431  1.00  0.00     0.078 A 
HETATM   20  C   UNL     1       8.469  20.808  55.813  1.00  0.00     0.034 A 
HETATM   21  N   UNL     1       8.049  24.100  54.677  1.00  0.00    -0.187 N 
HETATM   22  C   UNL     1       8.124  22.003  53.255  1.00  0.00     0.032 A 
HETATM   23  H   UNL     1       7.910  24.810  53.976  1.00  0.00     0.184 HD
HETATM   24  C   UNL     1       8.275  20.618  53.395  1.00  0.00     0.002 A 
HETATM   25  C   UNL     1       8.443  20.027  54.650  1.00  0.00     0.002 A 
ENDBRANCH   2  16
TORSDOF 4
ENDMDL
MODEL 6
REMARK VINA RESULT:      -7.5      6.316      9.529
REMARK  4 active torsions:
REMARK  status: ('A' for Active; 'I' for Inactive)
REMARK    1  A    between atoms: N_2  and  C_4 
REMARK    2  A    between atoms: C_4  and  C_5 
REMARK    3  A    between atoms: C_8  and  C_9 
REMARK       I    between atoms: C_9  and  N_10 
REMARK    4  A    between atoms: N_10  and  C_11 
ROOT
HETATM    1  C   UNL     1       5.675  26.020  56.238  1.00  0.00     0.269 C 
HETATM    2  N   UNL     1       6.512  25.794  55.163  1.00  0.00    -0.153 N 
HETATM    3  O   UNL     1       5.055  25.193  56.895  1.00  0.00    -0.267 OA
HETATM    4  H   UNL     1       6.794  26.559  54.572  1.00  0.00     0.187 HD
ENDROOT
BRANCH   1   5
HETATM    5  C   UNL     1       5.506  27.448  56.623  1.00  0.00     0.032 A 
HETATM    6  C   UNL     1       6.522  28.061  57.366  1.00  0.00     0.017 A 
HETATM    7  C   UNL     1       6.476  29.432  57.631  1.00  0.00     0.010 A 
HETATM    8  C   UNL     1       5.418  30.212  57.141  1.00  0.00    -0.033 A 
HETATM    9  C   UNL     1       4.386  29.588  56.421  1.00  0.00     0.010 A 
HETATM   10  C   UNL     1       4.430  28.214  56.159  1.00  0.00     0.017 A 
BRANCH   8  11
HETATM   11  C   UNL     1       5.438  31.709  57.311  1.00  0.00     0.272 C 
BRANCH  11  12
HETATM   12  N   UNL     1       4.200  32.238  58.006  1.00  0.00    -0.075 N 
HETATM   13  C   UNL     1       3.461  33.273  57.199  1.00  0.00     0.269 C 
HETATM   14  H   UNL     1       3.559  31.442  58.109  1.00  0.00     0.279 HD
HETATM   15  C   UNL     1       4.510  32.738  59.387  1.00  0.00     0.269 C 
ENDBRANCH  11  12
ENDBRANCH   8  11
ENDBRANCH   1   5
BRANCH   2  16
HETATM   16  C   UNL     1       6.972  24.531  54.874  1.00  0.00     0.708 A 
HETATM   17  N   UNL     1       7.203  24.000  53.697  1.00  0.00    -0.062 NA
HETATM   18  C   UNL     1       7.574  22.700  53.930  1.00  0.00     0.103 A 
HETATM   19  C   UNL     1       7.574  22.425  55.292  1.00  0.00     0.078 A 
HETATM   20  C   UNL     1       7.916  21.688  53.024  1.00  0.00     0.034 A 
HETATM   21  N   UNL     1       7.201  23.612  55.869  1.00  0.00    -0.187 N 
HETATM   22  C   UNL     1       7.898  21.175  55.822  1.00  0.00     0.032 A 
HETATM   23  H   UNL     1       7.105  23.772  56.859  1.00  0.00     0.184 HD
HETATM   24  C   UNL     1       8.232  20.173  54.903  1.00  0.00     0.002 A 
HETATM   25  C   UNL     1       8.243  20.422  53.527  1.00  0.00     0.002 A 
ENDBRANCH   2  16
TORSDOF 4
ENDMDL
MODEL 7
REMARK VINA RESULT:      -7.5     12.106     13.983
REMARK  4 active torsions:
REMARK  status: ('A' for Active; 'I' for Inactive)
REMARK    1  A    between atoms: N_2  and  C_4 
REMARK    2  A    between atoms: C_4  and  C_5 
REMARK    3  A    between atoms: C_8  and  C_9 
REMARK       I    between atoms: C_9  and  N_10 
REMARK    4  A    between atoms: N_10  and  C_11 
ROOT
HETATM    1  C   UNL     1       5.615  25.156  52.557  1.00  0.00     0.269 C 
HETATM    2  N   UNL     1       6.829  24.528  52.361  1.00  0.00    -0.153 N 
HETATM    3  O   UNL     1       4.707  24.820  53.308  1.00  0.00    -0.267 OA
HETATM    4  H   UNL     1       7.402  24.772  51.569  1.00  0.00     0.187 HD
ENDROOT
BRANCH   1   5
HETATM    5  C   UNL     1       5.391  26.380  51.740  1.00  0.00     0.032 A 
HETATM    6  C   UNL     1       5.655  27.626  52.323  1.00  0.00     0.017 A 
HETATM    7  C   UNL     1       5.596  28.791  51.555  1.00  0.00     0.010 A 
HETATM    8  C   UNL     1       5.287  28.725  50.189  1.00  0.00    -0.033 A 
HETATM    9  C   UNL     1       4.996  27.477  49.615  1.00  0.00     0.010 A 
HETATM   10  C   UNL     1       5.051  26.309  50.384  1.00  0.00     0.017 A 
BRANCH   8  11
HETATM   11  C   UNL     1       5.356  29.965  49.334  1.00  0.00     0.272 C 
BRANCH  11  12
HETATM   12  N   UNL     1       4.082  30.211  48.553  1.00  0.00    -0.075 N 
HETATM   13  C   UNL     1       4.285  30.181  47.061  1.00  0.00     0.269 C 
HETATM   14  H   UNL     1       3.448  29.433  48.772  1.00  0.00     0.279 HD
HETATM   15  C   UNL     1       3.399  31.475  48.989  1.00  0.00     0.269 C 
ENDBRANCH  11  12
ENDBRANCH   8  11
ENDBRANCH   1   5
BRANCH   2  16
HETATM   16  C   UNL     1       7.279  23.564  53.230  1.00  0.00     0.708 A 
HETATM   17  N   UNL     1       7.546  22.305  52.980  1.00  0.00    -0.062 NA
HETATM   18  C   UNL     1       7.886  21.738  54.182  1.00  0.00     0.103 A 
HETATM   19  C   UNL     1       7.829  22.680  55.202  1.00  0.00     0.078 A 
HETATM   20  C   UNL     1       8.245  20.419  54.484  1.00  0.00     0.034 A 
HETATM   21  N   UNL     1       7.454  23.835  54.566  1.00  0.00    -0.187 N 
HETATM   22  C   UNL     1       8.112  22.383  56.537  1.00  0.00     0.032 A 
HETATM   23  H   UNL     1       7.323  24.729  55.013  1.00  0.00     0.184 HD
HETATM   24  C   UNL     1       8.464  21.058  56.822  1.00  0.00     0.002 A 
HETATM   25  C   UNL     1       8.532  20.091  55.815  1.00  0.00     0.002 A 
ENDBRANCH   2  16
TORSDOF 4
ENDMDL
MODEL 8
REMARK VINA RESULT:      -7.4      3.024      9.734
REMARK  4 active torsions:
REMARK  status: ('A' for Active; 'I' for Inactive)
REMARK    1  A    between atoms: N_2  and  C_4 
REMARK    2  A    between atoms: C_4  and  C_5 
REMARK    3  A    between atoms: C_8  and  C_9 
REMARK       I    between atoms: C_9  and  N_10 
REMARK    4  A    between atoms: N_10  and  C_11 
ROOT
HETATM    1  C   UNL     1       7.735  30.488  58.897  1.00  0.00     0.269 C 
HETATM    2  N   UNL     1       6.628  31.224  59.271  1.00  0.00    -0.153 N 
HETATM    3  O   UNL     1       8.864  30.533  59.371  1.00  0.00    -0.267 OA
HETATM    4  H   UNL     1       5.817  31.257  58.674  1.00  0.00     0.187 HD
ENDROOT
BRANCH   1   5
HETATM    5  C   UNL     1       7.517  29.539  57.771  1.00  0.00     0.032 A 
HETATM    6  C   UNL     1       6.652  29.920  56.738  1.00  0.00     0.017 A 
HETATM    7  C   UNL     1       6.524  29.128  55.595  1.00  0.00     0.010 A 
HETATM    8  C   UNL     1       7.272  27.949  55.463  1.00  0.00    -0.033 A 
HETATM    9  C   UNL     1       8.116  27.555  56.514  1.00  0.00     0.010 A 
HETATM   10  C   UNL     1       8.242  28.347  57.661  1.00  0.00     0.017 A 
BRANCH   8  11
HETATM   11  C   UNL     1       7.235  27.167  54.175  1.00  0.00     0.272 C 
BRANCH  11  12
HETATM   12  N   UNL     1       7.158  25.671  54.398  1.00  0.00    -0.075 N 
HETATM   13  C   UNL     1       7.844  24.873  53.320  1.00  0.00     0.269 C 
HETATM   14  H   UNL     1       7.670  25.477  55.267  1.00  0.00     0.279 HD
HETATM   15  C   UNL     1       5.744  25.212  54.605  1.00  0.00     0.269 C 
ENDBRANCH  11  12
ENDBRANCH   8  11
ENDBRANCH   1   5
BRANCH   2  16
HETATM   16  C   UNL     1       6.607  31.925  60.453  1.00  0.00     0.708 A 
HETATM   17  N   UNL     1       6.000  33.058  60.716  1.00  0.00    -0.062 NA
HETATM   18  C   UNL     1       6.343  33.387  62.002  1.00  0.00     0.103 A 
HETATM   19  C   UNL     1       7.185  32.426  62.548  1.00  0.00     0.078 A 
HETATM   20  C   UNL     1       5.983  34.501  62.771  1.00  0.00     0.034 A 
HETATM   21  N   UNL     1       7.325  31.501  61.546  1.00  0.00    -0.187 N 
HETATM   22  C   UNL     1       7.705  32.507  63.841  1.00  0.00     0.032 A 
HETATM   23  H   UNL     1       7.871  30.657  61.606  1.00  0.00     0.184 HD
HETATM   24  C   UNL     1       7.339  33.629  64.594  1.00  0.00     0.002 A 
HETATM   25  C   UNL     1       6.492  34.611  64.072  1.00  0.00     0.002 A 
ENDBRANCH   2  16
TORSDOF 4
ENDMDL
MODEL 9
REMARK VINA RESULT:      -7.4      3.862      6.442
REMARK  4 active torsions:
REMARK  status: ('A' for Active; 'I' for Inactive)
REMARK    1  A    between atoms: N_2  and  C_4 
REMARK    2  A    between atoms: C_4  and  C_5 
REMARK    3  A    between atoms: C_8  and  C_9 
REMARK       I    between atoms: C_9  and  N_10 
REMARK    4  A    between atoms: N_10  and  C_11 
ROOT
HETATM    1  C   UNL     1       8.375  28.937  57.756  1.00  0.00     0.269 C 
HETATM    2  N   UNL     1       7.411  27.949  57.788  1.00  0.00    -0.153 N 
HETATM    3  O   UNL     1       9.403  28.964  57.090  1.00  0.00    -0.267 OA
HETATM    4  H   UNL     1       6.725  27.936  58.526  1.00  0.00     0.187 HD
ENDROOT
BRANCH   1   5
HETATM    5  C   UNL     1       8.128  30.097  58.655  1.00  0.00     0.032 A 
HETATM    6  C   UNL     1       6.964  30.853  58.462  1.00  0.00     0.017 A 
HETATM    7  C   UNL     1       6.618  31.861  59.364  1.00  0.00     0.010 A 
HETATM    8  C   UNL     1       7.424  32.117  60.483  1.00  0.00    -0.033 A 
HETATM    9  C   UNL     1       8.605  31.377  60.657  1.00  0.00     0.010 A 
HETATM   10  C   UNL     1       8.954  30.369  59.751  1.00  0.00     0.017 A 
BRANCH   8  11
HETATM   11  C   UNL     1       6.980  33.111  61.526  1.00  0.00     0.272 C 
BRANCH  11  12
HETATM   12  N   UNL     1       5.491  33.050  61.799  1.00  0.00    -0.075 N 
HETATM   13  C   UNL     1       4.836  34.406  61.829  1.00  0.00     0.269 C 
HETATM   14  H   UNL     1       5.068  32.544  61.011  1.00  0.00     0.279 HD
HETATM   15  C   UNL     1       5.187  32.266  63.043  1.00  0.00     0.269 C 
ENDBRANCH  11  12
ENDBRANCH   8  11
ENDBRANCH   1   5
BRANCH   2  16
HETATM   16  C   UNL     1       7.365  26.969  56.826  1.00  0.00     0.708 A 
HETATM   17  N   UNL     1       7.304  25.669  56.992  1.00  0.00    -0.062 NA
HETATM   18  C   UNL     1       7.360  25.119  55.738  1.00  0.00     0.103 A 
HETATM   19  C   UNL     1       7.455  26.111  54.770  1.00  0.00     0.078 A 
HETATM   20  C   UNL     1       7.345  23.774  55.345  1.00  0.00     0.034 A 
HETATM   21  N   UNL     1       7.443  27.278  55.489  1.00  0.00    -0.187 N 
HETATM   22  C   UNL     1       7.542  25.843  53.403  1.00  0.00     0.032 A 
HETATM   23  H   UNL     1       7.491  28.204  55.096  1.00  0.00     0.184 HD
HETATM   24  C   UNL     1       7.532  24.494  53.028  1.00  0.00     0.002 A 
HETATM   25  C   UNL     1       7.433  23.475  53.979  1.00  0.00     0.002 A 
ENDBRANCH   2  16
TORSDOF 4
ENDMDL
MODEL 10
REMARK VINA RESULT:      -7.3      4.581     10.782
REMARK  4 active torsions:
REMARK  status: ('A' for Active; 'I' for Inactive)
REMARK    1  A    between atoms: N_2  and  C_4 
REMARK    2  A    between atoms: C_4  and  C_5 
REMARK    3  A    between atoms: C_8  and  C_9 
REMARK       I    between atoms: C_9  and  N_10 
REMARK    4  A    between atoms: N_10  and  C_11 
ROOT
HETATM    1  C   UNL     1       6.115  29.117  57.071  1.00  0.00     0.269 C 
HETATM    2  N   UNL     1       7.404  29.345  57.510  1.00  0.00    -0.153 N 
HETATM    3  O   UNL     1       5.069  29.284  57.686  1.00  0.00    -0.267 OA
HETATM    4  H   UNL     1       8.187  28.971  56.998  1.00  0.00     0.187 HD
ENDROOT
BRANCH   1   5
HETATM    5  C   UNL     1       6.000  28.590  55.683  1.00  0.00     0.032 A 
HETATM    6  C   UNL     1       4.728  28.515  55.103  1.00  0.00     0.017 A 
HETATM    7  C   UNL     1       4.583  28.162  53.760  1.00  0.00     0.010 A 
HETATM    8  C   UNL     1       5.712  27.892  52.973  1.00  0.00    -0.033 A 
HETATM    9  C   UNL     1       6.984  27.939  53.566  1.00  0.00     0.010 A 
HETATM   10  C   UNL     1       7.130  28.290  54.913  1.00  0.00     0.017 A 
BRANCH   8  11
HETATM   11  C   UNL     1       5.564  27.644  51.493  1.00  0.00     0.272 C 
BRANCH  11  12
HETATM   12  N   UNL     1       4.689  26.446  51.184  1.00  0.00    -0.075 N 
HETATM   13  C   UNL     1       5.099  25.202  51.928  1.00  0.00     0.269 C 
HETATM   14  H   UNL     1       3.745  26.679  51.513  1.00  0.00     0.279 HD
HETATM   15  C   UNL     1       4.594  26.195  49.707  1.00  0.00     0.269 C 
ENDBRANCH  11  12
ENDBRANCH   8  11
ENDBRANCH   1   5
BRANCH   2  16
HETATM   16  C   UNL     1       7.647  30.078  58.647  1.00  0.00     0.708 A 
HETATM   17  N   UNL     1       8.595  29.906  59.538  1.00  0.00    -0.062 NA
HETATM   18  C   UNL     1       8.371  30.836  60.520  1.00  0.00     0.103 A 
HETATM   19  C   UNL     1       7.253  31.607  60.223  1.00  0.00     0.078 A 
HETATM   20  C   UNL     1       9.075  31.077  61.707  1.00  0.00     0.034 A 
HETATM   21  N   UNL     1       6.821  31.112  59.019  1.00  0.00    -0.187 N 
HETATM   22  C   UNL     1       6.779  32.624  61.052  1.00  0.00     0.032 A 
HETATM   23  H   UNL     1       6.025  31.450  58.503  1.00  0.00     0.184 HD
HETATM   24  C   UNL     1       7.492  32.848  62.236  1.00  0.00     0.002 A 
HETATM   25  C   UNL     1       8.621  32.091  62.561  1.00  0.00     0.002 A 
ENDBRANCH   2  16
TORSDOF 4
ENDMDL
