MODEL 1
REMARK VINA RESULT:      -7.9      0.000      0.000
REMARK  5 active torsions:
REMARK  status: ('A' for Active; 'I' for Inactive)
REMARK    1  A    between atoms: C_2  and  C_3 
REMARK    2  A    between atoms: C_3  and  N_4 
REMARK       I    between atoms: N_4  and  C_5 
REMARK    3  A    between atoms: C_5  and  C_6 
REMARK    4  A    between atoms: C_7  and  O_8 
REMARK    5  A    between atoms: O_8  and  C_9 
ROOT
HETATM    1  C   UNL     1       7.778  28.674  56.938  1.00  0.00     0.121 C 
HETATM    2  C   UNL     1       7.020  29.782  57.597  1.00  0.00     0.091 C 
HETATM    3  N   UNL     1       6.415  30.650  58.074  1.00  0.00    -0.195 NA
HETATM    4  C   UNL     1       7.504  27.391  57.750  1.00  0.00     0.055 C 
ENDROOT
BRANCH   1   5
HETATM    5  C   UNL     1       9.309  29.022  56.903  1.00  0.00     0.020 C 
HETATM    6  C   UNL     1       9.733  30.083  57.930  1.00  0.00     0.013 C 
HETATM    7  C   UNL     1       9.791  29.456  55.508  1.00  0.00     0.013 C 
ENDBRANCH   1   5
BRANCH   1   8
HETATM    8  N   UNL     1       7.243  28.519  55.564  1.00  0.00    -0.335 N 
HETATM    9  C   UNL     1       5.978  28.069  55.264  1.00  0.00     0.257 C 
HETATM   10  O   UNL     1       5.147  27.799  56.124  1.00  0.00    -0.267 OA
HETATM   11  H   UNL     1       7.882  28.714  54.800  1.00  0.00     0.164 HD
BRANCH   9  12
HETATM   12  C   UNL     1       5.637  27.850  53.832  1.00  0.00     0.085 A 
HETATM   13  C   UNL     1       6.395  27.106  52.929  1.00  0.00     0.185 A 
HETATM   14  N   UNL     1       6.019  26.886  51.641  1.00  0.00    -0.236 NA
HETATM   15  C   UNL     1       4.870  27.456  51.220  1.00  0.00     0.119 A 
HETATM   16  C   UNL     1       4.065  28.236  52.029  1.00  0.00     0.020 A 
HETATM   17  C   UNL     1       4.457  28.433  53.350  1.00  0.00     0.023 A 
BRANCH  13  18
HETATM   18  O   UNL     1       7.575  26.521  53.378  1.00  0.00    -0.291 OA
BRANCH  18  19
HETATM   19  C   UNL     1       7.573  25.162  53.592  1.00  0.00     0.078 A 
HETATM   20  C   UNL     1       7.937  24.251  52.597  1.00  0.00     0.039 A 
HETATM   21  C   UNL     1       7.960  22.884  52.882  1.00  0.00     0.026 A 
HETATM   22  C   UNL     1       7.644  22.440  54.166  1.00  0.00     0.034 A 
HETATM   23 CL   UNL     1       7.669  20.755  54.515  1.00  0.00    -0.084 Cl
HETATM   24  C   UNL     1       7.314  23.350  55.169  1.00  0.00     0.026 A 
HETATM   25  C   UNL     1       7.287  24.717  54.884  1.00  0.00     0.039 A 
ENDBRANCH  18  19
ENDBRANCH  13  18
ENDBRANCH   9  12
ENDBRANCH   1   8
TORSDOF 5
ENDMDL
MODEL 2
REMARK VINA RESULT:      -7.9      1.577      2.307
REMARK  5 active torsions:
REMARK  status: ('A' for Active; 'I' for Inactive)
REMARK    1  A    between atoms: C_2  and  C_3 
REMARK    2  A    between atoms: C_3  and  N_4 
REMARK       I    between atoms: N_4  and  C_5 
REMARK    3  A    between atoms: C_5  and  C_6 
REMARK    4  A    between atoms: C_7  and  O_8 
REMARK    5  A    between atoms: O_8  and  C_9 
ROOT
HETATM    1  C   UNL     1       7.412  28.010  56.759  1.00  0.00     0.121 C 
HETATM    2  C   UNL     1       7.749  26.860  57.653  1.00  0.00     0.091 C 
HETATM    3  N   UNL     1       7.993  25.943  58.322  1.00  0.00    -0.195 NA
HETATM    4  C   UNL     1       8.726  28.769  56.481  1.00  0.00     0.055 C 
ENDROOT
BRANCH   1   5
HETATM    5  C   UNL     1       6.346  28.931  57.453  1.00  0.00     0.020 C 
HETATM    6  C   UNL     1       4.942  28.835  56.838  1.00  0.00     0.013 C 
HETATM    7  C   UNL     1       6.772  30.410  57.496  1.00  0.00     0.013 C 
ENDBRANCH   1   5
BRANCH   1   8
HETATM    8  N   UNL     1       6.879  27.453  55.492  1.00  0.00    -0.335 N 
HETATM    9  C   UNL     1       7.347  27.773  54.240  1.00  0.00     0.257 C 
HETATM   10  O   UNL     1       8.299  28.525  54.058  1.00  0.00    -0.267 OA
HETATM   11  H   UNL     1       6.080  26.831  55.567  1.00  0.00     0.164 HD
BRANCH   9  12
HETATM   12  C   UNL     1       6.622  27.225  53.062  1.00  0.00     0.085 A 
HETATM   13  C   UNL     1       6.989  26.083  52.351  1.00  0.00     0.185 A 
HETATM   14  N   UNL     1       6.267  25.587  51.311  1.00  0.00    -0.236 NA
HETATM   15  C   UNL     1       5.163  26.266  50.936  1.00  0.00     0.119 A 
HETATM   16  C   UNL     1       4.733  27.424  51.557  1.00  0.00     0.020 A 
HETATM   17  C   UNL     1       5.475  27.907  52.632  1.00  0.00     0.023 A 
BRANCH  13  18
HETATM   18  O   UNL     1       8.126  25.390  52.751  1.00  0.00    -0.291 OA
BRANCH  18  19
HETATM   19  C   UNL     1       7.949  24.216  53.445  1.00  0.00     0.078 A 
HETATM   20  C   UNL     1       7.946  22.970  52.812  1.00  0.00     0.039 A 
HETATM   21  C   UNL     1       7.804  21.806  53.571  1.00  0.00     0.026 A 
HETATM   22  C   UNL     1       7.693  21.895  54.958  1.00  0.00     0.034 A 
HETATM   23 CL   UNL     1       7.516  20.460  55.892  1.00  0.00    -0.084 Cl
HETATM   24  C   UNL     1       7.730  23.135  55.595  1.00  0.00     0.026 A 
HETATM   25  C   UNL     1       7.867  24.300  54.836  1.00  0.00     0.039 A 
ENDBRANCH  18  19
ENDBRANCH  13  18
ENDBRANCH   9  12
ENDBRANCH   1   8
TORSDOF 5
ENDMDL
MODEL 3
REMARK VINA RESULT:      -7.6      2.900      6.190
REMARK  5 active torsions:
REMARK  status: ('A' for Active; 'I' for Inactive)
REMARK    1  A    between atoms: C_2  and  C_3 
REMARK    2  A    between atoms: C_3  and  N_4 
REMARK       I    between atoms: N_4  and  C_5 
REMARK    3  A    between atoms: C_5  and  C_6 
REMARK    4  A    between atoms: C_7  and  O_8 
REMARK    5  A    between atoms: O_8  and  C_9 
ROOT
HETATM    1  C   UNL     1       4.875  27.806  51.291  1.00  0.00     0.121 C 
HETATM    2  C   UNL     1       5.581  29.067  50.912  1.00  0.00     0.091 C 
HETATM    3  N   UNL     1       6.160  30.036  50.640  1.00  0.00    -0.195 NA
HETATM    4  C   UNL     1       4.479  27.094  49.981  1.00  0.00     0.055 C 
ENDROOT
BRANCH   1   5
HETATM    5  C   UNL     1       3.617  28.141  52.171  1.00  0.00     0.020 C 
HETATM    6  C   UNL     1       2.625  29.103  51.500  1.00  0.00     0.013 C 
HETATM    7  C   UNL     1       3.988  28.693  53.558  1.00  0.00     0.013 C 
ENDBRANCH   1   5
BRANCH   1   8
HETATM    8  N   UNL     1       5.834  26.964  52.046  1.00  0.00    -0.335 N 
HETATM    9  C   UNL     1       5.656  25.627  52.317  1.00  0.00     0.257 C 
HETATM   10  O   UNL     1       4.693  24.988  51.906  1.00  0.00    -0.267 OA
HETATM   11  H   UNL     1       6.650  27.431  52.429  1.00  0.00     0.164 HD
BRANCH   9  12
HETATM   12  C   UNL     1       6.651  24.954  53.196  1.00  0.00     0.085 A 
HETATM   13  C   UNL     1       6.921  25.301  54.518  1.00  0.00     0.185 A 
HETATM   14  N   UNL     1       7.803  24.625  55.303  1.00  0.00    -0.236 NA
HETATM   15  C   UNL     1       8.468  23.591  54.747  1.00  0.00     0.119 A 
HETATM   16  C   UNL     1       8.293  23.189  53.436  1.00  0.00     0.020 A 
HETATM   17  C   UNL     1       7.373  23.881  52.653  1.00  0.00     0.023 A 
BRANCH  13  18
HETATM   18  O   UNL     1       6.225  26.366  55.080  1.00  0.00    -0.291 OA
BRANCH  18  19
HETATM   19  C   UNL     1       6.948  27.314  55.764  1.00  0.00     0.078 A 
HETATM   20  C   UNL     1       6.930  27.402  57.159  1.00  0.00     0.039 A 
HETATM   21  C   UNL     1       7.719  28.357  57.805  1.00  0.00     0.026 A 
HETATM   22  C   UNL     1       8.538  29.198  57.055  1.00  0.00     0.034 A 
HETATM   23 CL   UNL     1       9.507  30.377  57.851  1.00  0.00    -0.084 Cl
HETATM   24  C   UNL     1       8.584  29.090  55.665  1.00  0.00     0.026 A 
HETATM   25  C   UNL     1       7.793  28.138  55.018  1.00  0.00     0.039 A 
ENDBRANCH  18  19
ENDBRANCH  13  18
ENDBRANCH   9  12
ENDBRANCH   1   8
TORSDOF 5
ENDMDL
MODEL 4
REMARK VINA RESULT:      -7.6      1.829      2.571
REMARK  5 active torsions:
REMARK  status: ('A' for Active; 'I' for Inactive)
REMARK    1  A    between atoms: C_2  and  C_3 
REMARK    2  A    between atoms: C_3  and  N_4 
REMARK       I    between atoms: N_4  and  C_5 
REMARK    3  A    between atoms: C_5  and  C_6 
REMARK    4  A    between atoms: C_7  and  O_8 
REMARK    5  A    between atoms: O_8  and  C_9 
ROOT
HETATM    1  C   UNL     1       7.111  28.700  55.439  1.00  0.00     0.121 C 
HETATM    2  C   UNL     1       8.520  29.182  55.570  1.00  0.00     0.091 C 
HETATM    3  N   UNL     1       9.618  29.552  55.633  1.00  0.00    -0.195 NA
HETATM    4  C   UNL     1       6.203  29.771  56.079  1.00  0.00     0.055 C 
ENDROOT
BRANCH   1   5
HETATM    5  C   UNL     1       6.954  27.308  56.150  1.00  0.00     0.020 C 
HETATM    6  C   UNL     1       5.627  27.139  56.906  1.00  0.00     0.013 C 
HETATM    7  C   UNL     1       8.118  26.991  57.106  1.00  0.00     0.013 C 
ENDBRANCH   1   5
BRANCH   1   8
HETATM    8  N   UNL     1       6.807  28.587  53.992  1.00  0.00    -0.335 N 
HETATM    9  C   UNL     1       5.540  28.575  53.458  1.00  0.00     0.257 C 
HETATM   10  O   UNL     1       4.530  28.711  54.140  1.00  0.00    -0.267 OA
HETATM   11  H   UNL     1       7.598  28.459  53.368  1.00  0.00     0.164 HD
BRANCH   9  12
HETATM   12  C   UNL     1       5.400  28.329  51.997  1.00  0.00     0.085 A 
HETATM   13  C   UNL     1       5.000  27.125  51.419  1.00  0.00     0.185 A 
HETATM   14  N   UNL     1       4.835  26.958  50.079  1.00  0.00    -0.236 NA
HETATM   15  C   UNL     1       5.113  28.009  49.280  1.00  0.00     0.119 A 
HETATM   16  C   UNL     1       5.546  29.233  49.754  1.00  0.00     0.020 A 
HETATM   17  C   UNL     1       5.691  29.391  51.129  1.00  0.00     0.023 A 
BRANCH  13  18
HETATM   18  O   UNL     1       4.712  26.051  52.255  1.00  0.00    -0.291 OA
BRANCH  18  19
HETATM   19  C   UNL     1       5.761  25.262  52.666  1.00  0.00     0.078 A 
HETATM   20  C   UNL     1       6.926  25.118  51.909  1.00  0.00     0.039 A 
HETATM   21  C   UNL     1       7.978  24.338  52.395  1.00  0.00     0.026 A 
HETATM   22  C   UNL     1       7.867  23.729  53.644  1.00  0.00     0.034 A 
HETATM   23 CL   UNL     1       9.162  22.765  54.241  1.00  0.00    -0.084 Cl
HETATM   24  C   UNL     1       6.719  23.899  54.417  1.00  0.00     0.026 A 
HETATM   25  C   UNL     1       5.665  24.676  53.930  1.00  0.00     0.039 A 
ENDBRANCH  18  19
ENDBRANCH  13  18
ENDBRANCH   9  12
ENDBRANCH   1   8
TORSDOF 5
ENDMDL
MODEL 5
REMARK VINA RESULT:      -7.5      1.892      4.910
REMARK  5 active torsions:
REMARK  status: ('A' for Active; 'I' for Inactive)
REMARK    1  A    between atoms: C_2  and  C_3 
REMARK    2  A    between atoms: C_3  and  N_4 
REMARK       I    between atoms: N_4  and  C_5 
REMARK    3  A    between atoms: C_5  and  C_6 
REMARK    4  A    between atoms: C_7  and  O_8 
REMARK    5  A    between atoms: O_8  and  C_9 
ROOT
HETATM    1  C   UNL     1       5.025  28.571  51.638  1.00  0.00     0.121 C 
HETATM    2  C   UNL     1       5.643  29.659  50.820  1.00  0.00     0.091 C 
HETATM    3  N   UNL     1       6.149  30.509  50.213  1.00  0.00    -0.195 NA
HETATM    4  C   UNL     1       4.915  27.328  50.732  1.00  0.00     0.055 C 
ENDROOT
BRANCH   1   5
HETATM    5  C   UNL     1       3.619  29.031  52.165  1.00  0.00     0.020 C 
HETATM    6  C   UNL     1       2.549  29.147  51.069  1.00  0.00     0.013 C 
HETATM    7  C   UNL     1       3.677  30.354  52.948  1.00  0.00     0.013 C 
ENDBRANCH   1   5
BRANCH   1   8
HETATM    8  N   UNL     1       5.941  28.284  52.769  1.00  0.00    -0.335 N 
HETATM    9  C   UNL     1       5.664  27.417  53.799  1.00  0.00     0.257 C 
HETATM   10  O   UNL     1       4.635  26.752  53.849  1.00  0.00    -0.267 OA
HETATM   11  H   UNL     1       6.809  28.811  52.799  1.00  0.00     0.164 HD
BRANCH   9  12
HETATM   12  C   UNL     1       6.634  27.335  54.924  1.00  0.00     0.085 A 
HETATM   13  C   UNL     1       6.851  26.211  55.719  1.00  0.00     0.185 A 
HETATM   14  N   UNL     1       7.787  26.163  56.705  1.00  0.00    -0.236 NA
HETATM   15  C   UNL     1       8.508  27.280  56.938  1.00  0.00     0.119 A 
HETATM   16  C   UNL     1       8.345  28.454  56.225  1.00  0.00     0.020 A 
HETATM   17  C   UNL     1       7.396  28.478  55.207  1.00  0.00     0.023 A 
BRANCH  13  18
HETATM   18  O   UNL     1       6.105  25.065  55.466  1.00  0.00    -0.291 OA
BRANCH  18  19
HETATM   19  C   UNL     1       6.740  24.013  54.848  1.00  0.00     0.078 A 
HETATM   20  C   UNL     1       6.983  23.994  53.472  1.00  0.00     0.039 A 
HETATM   21  C   UNL     1       7.671  22.919  52.904  1.00  0.00     0.026 A 
HETATM   22  C   UNL     1       8.131  21.884  53.718  1.00  0.00     0.034 A 
HETATM   23 CL   UNL     1       8.975  20.559  53.016  1.00  0.00    -0.084 Cl
HETATM   24  C   UNL     1       7.919  21.918  55.095  1.00  0.00     0.026 A 
HETATM   25  C   UNL     1       7.228  22.991  55.664  1.00  0.00     0.039 A 
ENDBRANCH  18  19
ENDBRANCH  13  18
ENDBRANCH   9  12
ENDBRANCH   1   8
TORSDOF 5
ENDMDL
MODEL 6
REMARK VINA RESULT:      -7.4      1.741      5.021
REMARK  5 active torsions:
REMARK  status: ('A' for Active; 'I' for Inactive)
REMARK    1  A    between atoms: C_2  and  C_3 
REMARK    2  A    between atoms: C_3  and  N_4 
REMARK       I    between atoms: N_4  and  C_5 
REMARK    3  A    between atoms: C_5  and  C_6 
REMARK    4  A    between atoms: C_7  and  O_8 
REMARK    5  A    between atoms: O_8  and  C_9 
ROOT
HETATM    1  C   UNL     1       5.201  28.122  51.672  1.00  0.00     0.121 C 
HETATM    2  C   UNL     1       3.781  28.355  52.078  1.00  0.00     0.091 C 
HETATM    3  N   UNL     1       2.688  28.521  52.429  1.00  0.00    -0.195 NA
HETATM    4  C   UNL     1       5.742  29.459  51.124  1.00  0.00     0.055 C 
ENDROOT
BRANCH   1   5
HETATM    5  C   UNL     1       5.268  26.984  50.591  1.00  0.00     0.020 C 
HETATM    6  C   UNL     1       4.361  27.224  49.375  1.00  0.00     0.013 C 
HETATM    7  C   UNL     1       4.968  25.591  51.171  1.00  0.00     0.013 C 
ENDBRANCH   1   5
BRANCH   1   8
HETATM    8  N   UNL     1       5.959  27.738  52.887  1.00  0.00    -0.335 N 
HETATM    9  C   UNL     1       5.932  28.428  54.076  1.00  0.00     0.257 C 
HETATM   10  O   UNL     1       5.225  29.413  54.257  1.00  0.00    -0.267 OA
HETATM   11  H   UNL     1       6.577  26.936  52.806  1.00  0.00     0.164 HD
BRANCH   9  12
HETATM   12  C   UNL     1       6.847  27.984  55.162  1.00  0.00     0.085 A 
HETATM   13  C   UNL     1       6.999  26.669  55.599  1.00  0.00     0.185 A 
HETATM   14  N   UNL     1       7.887  26.299  56.561  1.00  0.00    -0.236 NA
HETATM   15  C   UNL     1       8.624  27.272  57.138  1.00  0.00     0.119 A 
HETATM   16  C   UNL     1       8.524  28.608  56.797  1.00  0.00     0.020 A 
HETATM   17  C   UNL     1       7.623  28.965  55.797  1.00  0.00     0.023 A 
BRANCH  13  18
HETATM   18  O   UNL     1       6.238  25.676  54.992  1.00  0.00    -0.291 OA
BRANCH  18  19
HETATM   19  C   UNL     1       6.877  24.517  54.620  1.00  0.00     0.078 A 
HETATM   20  C   UNL     1       6.969  23.411  55.470  1.00  0.00     0.039 A 
HETATM   21  C   UNL     1       7.592  22.243  55.024  1.00  0.00     0.026 A 
HETATM   22  C   UNL     1       8.097  22.181  53.726  1.00  0.00     0.034 A 
HETATM   23 CL   UNL     1       8.867  20.743  53.179  1.00  0.00    -0.084 Cl
HETATM   24  C   UNL     1       7.976  23.271  52.865  1.00  0.00     0.026 A 
HETATM   25  C   UNL     1       7.356  24.441  53.311  1.00  0.00     0.039 A 
ENDBRANCH  18  19
ENDBRANCH  13  18
ENDBRANCH   9  12
ENDBRANCH   1   8
TORSDOF 5
ENDMDL
MODEL 7
REMARK VINA RESULT:      -7.3      5.314      7.891
REMARK  5 active torsions:
REMARK  status: ('A' for Active; 'I' for Inactive)
REMARK    1  A    between atoms: C_2  and  C_3 
REMARK    2  A    between atoms: C_3  and  N_4 
REMARK       I    between atoms: N_4  and  C_5 
REMARK    3  A    between atoms: C_5  and  C_6 
REMARK    4  A    between atoms: C_7  and  O_8 
REMARK    5  A    between atoms: O_8  and  C_9 
ROOT
HETATM    1  C   UNL     1       6.844  32.262  62.039  1.00  0.00     0.121 C 
HETATM    2  C   UNL     1       5.761  31.550  62.784  1.00  0.00     0.091 C 
HETATM    3  N   UNL     1       4.917  30.972  63.332  1.00  0.00    -0.195 NA
HETATM    4  C   UNL     1       8.061  32.352  62.983  1.00  0.00     0.055 C 
ENDROOT
BRANCH   1   5
HETATM    5  C   UNL     1       6.345  33.685  61.600  1.00  0.00     0.020 C 
HETATM    6  C   UNL     1       6.115  34.654  62.769  1.00  0.00     0.013 C 
HETATM    7  C   UNL     1       5.071  33.631  60.737  1.00  0.00     0.013 C 
ENDBRANCH   1   5
BRANCH   1   8
HETATM    8  N   UNL     1       7.191  31.439  60.855  1.00  0.00    -0.335 N 
HETATM    9  C   UNL     1       8.117  31.791  59.902  1.00  0.00     0.257 C 
HETATM   10  O   UNL     1       8.789  32.815  59.974  1.00  0.00    -0.267 OA
HETATM   11  H   UNL     1       6.663  30.581  60.724  1.00  0.00     0.164 HD
BRANCH   9  12
HETATM   12  C   UNL     1       8.259  30.915  58.708  1.00  0.00     0.085 A 
HETATM   13  C   UNL     1       7.203  30.340  58.002  1.00  0.00     0.185 A 
HETATM   14  N   UNL     1       7.375  29.587  56.882  1.00  0.00    -0.236 NA
HETATM   15  C   UNL     1       8.640  29.362  56.469  1.00  0.00     0.119 A 
HETATM   16  C   UNL     1       9.754  29.862  57.118  1.00  0.00     0.020 A 
HETATM   17  C   UNL     1       9.557  30.646  58.251  1.00  0.00     0.023 A 
BRANCH  13  18
HETATM   18  O   UNL     1       5.904  30.583  58.436  1.00  0.00    -0.291 OA
BRANCH  18  19
HETATM   19  C   UNL     1       5.022  31.134  57.537  1.00  0.00     0.078 A 
HETATM   20  C   UNL     1       3.894  30.445  57.083  1.00  0.00     0.039 A 
HETATM   21  C   UNL     1       3.007  31.069  56.202  1.00  0.00     0.026 A 
HETATM   22  C   UNL     1       3.241  32.384  55.802  1.00  0.00     0.034 A 
HETATM   23 CL   UNL     1       2.150  33.151  54.714  1.00  0.00    -0.084 Cl
HETATM   24  C   UNL     1       4.347  33.085  56.280  1.00  0.00     0.026 A 
HETATM   25  C   UNL     1       5.237  32.461  57.158  1.00  0.00     0.039 A 
ENDBRANCH  18  19
ENDBRANCH  13  18
ENDBRANCH   9  12
ENDBRANCH   1   8
TORSDOF 5
ENDMDL
MODEL 8
REMARK VINA RESULT:      -7.2      3.667      5.882
REMARK  5 active torsions:
REMARK  status: ('A' for Active; 'I' for Inactive)
REMARK    1  A    between atoms: C_2  and  C_3 
REMARK    2  A    between atoms: C_3  and  N_4 
REMARK       I    between atoms: N_4  and  C_5 
REMARK    3  A    between atoms: C_5  and  C_6 
REMARK    4  A    between atoms: C_7  and  O_8 
REMARK    5  A    between atoms: O_8  and  C_9 
ROOT
HETATM    1  C   UNL     1       7.948  31.068  59.605  1.00  0.00     0.121 C 
HETATM    2  C   UNL     1       9.203  31.607  58.998  1.00  0.00     0.091 C 
HETATM    3  N   UNL     1      10.186  31.989  58.512  1.00  0.00    -0.195 NA
HETATM    4  C   UNL     1       6.788  31.960  59.117  1.00  0.00     0.055 C 
ENDROOT
BRANCH   1   5
HETATM    5  C   UNL     1       8.066  31.077  61.172  1.00  0.00     0.020 C 
HETATM    6  C   UNL     1       7.889  32.466  61.804  1.00  0.00     0.013 C 
HETATM    7  C   UNL     1       9.385  30.463  61.675  1.00  0.00     0.013 C 
ENDBRANCH   1   5
BRANCH   1   8
HETATM    8  N   UNL     1       7.761  29.687  59.100  1.00  0.00    -0.335 N 
HETATM    9  C   UNL     1       7.617  29.352  57.775  1.00  0.00     0.257 C 
HETATM   10  O   UNL     1       7.682  30.177  56.870  1.00  0.00    -0.267 OA
HETATM   11  H   UNL     1       7.685  28.951  59.797  1.00  0.00     0.164 HD
BRANCH   9  12
HETATM   12  C   UNL     1       7.311  27.934  57.442  1.00  0.00     0.085 A 
HETATM   13  C   UNL     1       6.039  27.423  57.189  1.00  0.00     0.185 A 
HETATM   14  N   UNL     1       5.810  26.129  56.836  1.00  0.00    -0.236 NA
HETATM   15  C   UNL     1       6.874  25.303  56.769  1.00  0.00     0.119 A 
HETATM   16  C   UNL     1       8.170  25.705  57.032  1.00  0.00     0.020 A 
HETATM   17  C   UNL     1       8.388  27.038  57.373  1.00  0.00     0.023 A 
BRANCH  13  18
HETATM   18  O   UNL     1       4.952  28.288  57.257  1.00  0.00    -0.291 OA
BRANCH  18  19
HETATM   19  C   UNL     1       4.555  28.909  56.096  1.00  0.00     0.078 A 
HETATM   20  C   UNL     1       4.556  28.254  54.863  1.00  0.00     0.039 A 
HETATM   21  C   UNL     1       4.102  28.921  53.722  1.00  0.00     0.026 A 
HETATM   22  C   UNL     1       3.628  30.227  53.828  1.00  0.00     0.034 A 
HETATM   23 CL   UNL     1       3.072  31.049  52.422  1.00  0.00    -0.084 Cl
HETATM   24  C   UNL     1       3.594  30.872  55.064  1.00  0.00     0.026 A 
HETATM   25  C   UNL     1       4.052  30.207  56.204  1.00  0.00     0.039 A 
ENDBRANCH  18  19
ENDBRANCH  13  18
ENDBRANCH   9  12
ENDBRANCH   1   8
TORSDOF 5
ENDMDL
MODEL 9
REMARK VINA RESULT:      -7.1      3.588      7.322
REMARK  5 active torsions:
REMARK  status: ('A' for Active; 'I' for Inactive)
REMARK    1  A    between atoms: C_2  and  C_3 
REMARK    2  A    between atoms: C_3  and  N_4 
REMARK       I    between atoms: N_4  and  C_5 
REMARK    3  A    between atoms: C_5  and  C_6 
REMARK    4  A    between atoms: C_7  and  O_8 
REMARK    5  A    between atoms: O_8  and  C_9 
ROOT
HETATM    1  C   UNL     1       6.670  26.503  55.209  1.00  0.00     0.121 C 
HETATM    2  C   UNL     1       5.695  26.179  56.295  1.00  0.00     0.091 C 
HETATM    3  N   UNL     1       4.958  25.952  57.162  1.00  0.00    -0.195 NA
HETATM    4  C   UNL     1       5.851  26.949  53.981  1.00  0.00     0.055 C 
ENDROOT
BRANCH   1   5
HETATM    5  C   UNL     1       7.553  25.243  54.890  1.00  0.00     0.020 C 
HETATM    6  C   UNL     1       7.819  25.031  53.392  1.00  0.00     0.013 C 
HETATM    7  C   UNL     1       6.979  23.945  55.485  1.00  0.00     0.013 C 
ENDBRANCH   1   5
BRANCH   1   8
HETATM    8  N   UNL     1       7.512  27.628  55.683  1.00  0.00    -0.335 N 
HETATM    9  C   UNL     1       8.270  27.609  56.830  1.00  0.00     0.257 C 
HETATM   10  O   UNL     1       8.358  26.621  57.552  1.00  0.00    -0.267 OA
HETATM   11  H   UNL     1       7.478  28.485  55.139  1.00  0.00     0.164 HD
BRANCH   9  12
HETATM   12  C   UNL     1       8.960  28.864  57.232  1.00  0.00     0.085 A 
HETATM   13  C   UNL     1       8.366  29.926  57.914  1.00  0.00     0.185 A 
HETATM   14  N   UNL     1       9.048  31.034  58.309  1.00  0.00    -0.236 NA
HETATM   15  C   UNL     1      10.356  31.112  57.984  1.00  0.00     0.119 A 
HETATM   16  C   UNL     1      11.027  30.127  57.284  1.00  0.00     0.020 A 
HETATM   17  C   UNL     1      10.318  28.991  56.905  1.00  0.00     0.023 A 
BRANCH  13  18
HETATM   18  O   UNL     1       7.019  29.830  58.246  1.00  0.00    -0.291 OA
BRANCH  18  19
HETATM   19  C   UNL     1       6.164  30.774  57.727  1.00  0.00     0.078 A 
HETATM   20  C   UNL     1       5.795  31.917  58.442  1.00  0.00     0.039 A 
HETATM   21  C   UNL     1       4.957  32.865  57.849  1.00  0.00     0.026 A 
HETATM   22  C   UNL     1       4.516  32.676  56.540  1.00  0.00     0.034 A 
HETATM   23 CL   UNL     1       3.482  33.843  55.812  1.00  0.00    -0.084 Cl
HETATM   24  C   UNL     1       4.912  31.554  55.813  1.00  0.00     0.026 A 
HETATM   25  C   UNL     1       5.746  30.603  56.406  1.00  0.00     0.039 A 
ENDBRANCH  18  19
ENDBRANCH  13  18
ENDBRANCH   9  12
ENDBRANCH   1   8
TORSDOF 5
ENDMDL
MODEL 10
REMARK VINA RESULT:      -7.1      2.954      6.755
REMARK  5 active torsions:
REMARK  status: ('A' for Active; 'I' for Inactive)
REMARK    1  A    between atoms: C_2  and  C_3 
REMARK    2  A    between atoms: C_3  and  N_4 
REMARK       I    between atoms: N_4  and  C_5 
REMARK    3  A    between atoms: C_5  and  C_6 
REMARK    4  A    between atoms: C_7  and  O_8 
REMARK    5  A    between atoms: O_8  and  C_9 
ROOT
HETATM    1  C   UNL     1       4.466  27.925  49.949  1.00  0.00     0.121 C 
HETATM    2  C   UNL     1       3.491  28.714  50.764  1.00  0.00     0.091 C 
HETATM    3  N   UNL     1       2.741  29.301  51.427  1.00  0.00    -0.195 NA
HETATM    4  C   UNL     1       5.486  28.926  49.368  1.00  0.00     0.055 C 
ENDROOT
BRANCH   1   5
HETATM    5  C   UNL     1       3.708  27.146  48.815  1.00  0.00     0.020 C 
HETATM    6  C   UNL     1       4.637  26.440  47.816  1.00  0.00     0.013 C 
HETATM    7  C   UNL     1       2.720  28.033  48.038  1.00  0.00     0.013 C 
ENDBRANCH   1   5
BRANCH   1   8
HETATM    8  N   UNL     1       5.156  26.983  50.863  1.00  0.00    -0.335 N 
HETATM    9  C   UNL     1       5.917  27.360  51.945  1.00  0.00     0.257 C 
HETATM   10  O   UNL     1       6.054  28.529  52.287  1.00  0.00    -0.267 OA
HETATM   11  H   UNL     1       5.097  25.996  50.632  1.00  0.00     0.164 HD
BRANCH   9  12
HETATM   12  C   UNL     1       6.648  26.297  52.688  1.00  0.00     0.085 A 
HETATM   13  C   UNL     1       6.782  26.232  54.074  1.00  0.00     0.185 A 
HETATM   14  N   UNL     1       7.416  25.214  54.716  1.00  0.00    -0.236 NA
HETATM   15  C   UNL     1       7.969  24.245  53.957  1.00  0.00     0.119 A 
HETATM   16  C   UNL     1       7.917  24.236  52.575  1.00  0.00     0.020 A 
HETATM   17  C   UNL     1       7.249  25.277  51.936  1.00  0.00     0.023 A 
BRANCH  13  18
HETATM   18  O   UNL     1       6.203  27.235  54.844  1.00  0.00    -0.291 OA
BRANCH  18  19
HETATM   19  C   UNL     1       7.023  27.948  55.687  1.00  0.00     0.078 A 
HETATM   20  C   UNL     1       6.834  27.965  57.071  1.00  0.00     0.039 A 
HETATM   21  C   UNL     1       7.724  28.672  57.884  1.00  0.00     0.026 A 
HETATM   22  C   UNL     1       8.807  29.335  57.310  1.00  0.00     0.034 A 
HETATM   23 CL   UNL     1       9.900  30.209  58.312  1.00  0.00    -0.084 Cl
HETATM   24  C   UNL     1       9.017  29.291  55.932  1.00  0.00     0.026 A 
HETATM   25  C   UNL     1       8.126  28.588  55.118  1.00  0.00     0.039 A 
ENDBRANCH  18  19
ENDBRANCH  13  18
ENDBRANCH   9  12
ENDBRANCH   1   8
TORSDOF 5
ENDMDL
