MODEL 1
REMARK VINA RESULT:      -7.6      0.000      0.000
REMARK  6 active torsions:
REMARK  status: ('A' for Active; 'I' for Inactive)
REMARK    1  A    between atoms: C_2  and  C_3 
REMARK    2  A    between atoms: C_3  and  N_4 
REMARK    3  A    between atoms: C_3  and  C_15 
REMARK       I    between atoms: N_4  and  C_5 
REMARK    4  A    between atoms: C_5  and  C_6 
REMARK    5  A    between atoms: C_6  and  C_7 
REMARK    6  A    between atoms: C_16  and  O_17 
ROOT
HETATM    1  C   UNL     1       6.569  27.632  53.512  1.00  0.00     0.128 C 
ENDROOT
BRANCH   1   2
HETATM    2  C   UNL     1       5.250  28.463  53.268  1.00  0.00    -0.026 C 
HETATM    3  C   UNL     1       4.942  29.461  54.400  1.00  0.00     0.016 C 
HETATM    4  C   UNL     1       4.042  27.506  53.146  1.00  0.00     0.016 C 
HETATM    5  C   UNL     1       5.342  29.248  51.940  1.00  0.00     0.016 C 
ENDBRANCH   1   2
BRANCH   1   6
HETATM    6  N   UNL     1       6.386  26.198  53.254  1.00  0.00    -0.351 N 
HETATM    7  C   UNL     1       7.352  25.404  52.668  1.00  0.00     0.222 C 
HETATM    8  O   UNL     1       8.418  25.837  52.242  1.00  0.00    -0.273 OA
HETATM    9  H   UNL     1       5.520  25.771  53.546  1.00  0.00     0.163 HD
BRANCH   7  10
HETATM   10  C   UNL     1       6.937  23.944  52.570  1.00  0.00     0.142 C 
BRANCH  10  11
HETATM   11  C   UNL     1       7.645  22.983  53.494  1.00  0.00    -0.032 A 
HETATM   12  C   UNL     1       8.019  23.324  54.792  1.00  0.00     0.126 A 
HETATM   13  N   UNL     1       8.585  22.464  55.672  1.00  0.00    -0.248 NA
HETATM   14  C   UNL     1       8.790  21.208  55.235  1.00  0.00     0.125 A 
HETATM   15 CL   UNL     1       9.510  20.156  56.383  1.00  0.00    -0.063 Cl
HETATM   16  C   UNL     1       8.448  20.754  53.975  1.00  0.00     0.045 A 
HETATM   17  C   UNL     1       7.859  21.657  53.095  1.00  0.00     0.012 A 
ENDBRANCH  10  11
ENDBRANCH   7  10
ENDBRANCH   1   6
BRANCH   1  18
HETATM   18  C   UNL     1       7.209  27.820  54.895  1.00  0.00    -0.001 A 
HETATM   19  C   UNL     1       6.752  27.082  56.010  1.00  0.00     0.076 A 
HETATM   20  C   UNL     1       7.347  27.272  57.265  1.00  0.00     0.037 A 
HETATM   21  C   UNL     1       8.389  28.186  57.428  1.00  0.00     0.003 A 
HETATM   22  C   UNL     1       8.849  28.916  56.341  1.00  0.00     0.001 A 
HETATM   23  C   UNL     1       8.266  28.735  55.086  1.00  0.00     0.012 A 
BRANCH  19  24
HETATM   24  O   UNL     1       5.741  26.189  55.772  1.00  0.00    -0.355 OA
HETATM   25  C   UNL     1       5.364  25.315  56.829  1.00  0.00     0.210 C 
ENDBRANCH  19  24
ENDBRANCH   1  18
TORSDOF 6
ENDMDL
MODEL 2
REMARK VINA RESULT:      -7.4      2.027      3.908
REMARK  6 active torsions:
REMARK  status: ('A' for Active; 'I' for Inactive)
REMARK    1  A    between atoms: C_2  and  C_3 
REMARK    2  A    between atoms: C_3  and  N_4 
REMARK    3  A    between atoms: C_3  and  C_15 
REMARK       I    between atoms: N_4  and  C_5 
REMARK    4  A    between atoms: C_5  and  C_6 
REMARK    5  A    between atoms: C_6  and  C_7 
REMARK    6  A    between atoms: C_16  and  O_17 
ROOT
HETATM    1  C   UNL     1       6.995  27.811  56.567  1.00  0.00     0.128 C 
ENDROOT
BRANCH   1   2
HETATM    2  C   UNL     1       7.763  29.150  56.895  1.00  0.00    -0.026 C 
HETATM    3  C   UNL     1       9.110  29.275  56.158  1.00  0.00     0.016 C 
HETATM    4  C   UNL     1       8.050  29.232  58.411  1.00  0.00     0.016 C 
HETATM    5  C   UNL     1       6.895  30.375  56.531  1.00  0.00     0.016 C 
ENDBRANCH   1   2
BRANCH   1   6
HETATM    6  N   UNL     1       7.842  26.622  56.734  1.00  0.00    -0.351 N 
HETATM    7  C   UNL     1       7.347  25.384  57.094  1.00  0.00     0.222 C 
HETATM    8  O   UNL     1       6.172  25.181  57.380  1.00  0.00    -0.273 OA
HETATM    9  H   UNL     1       8.829  26.714  56.548  1.00  0.00     0.163 HD
BRANCH   7  10
HETATM   10  C   UNL     1       8.422  24.309  57.137  1.00  0.00     0.142 C 
BRANCH  10  11
HETATM   11  C   UNL     1       8.452  23.345  55.976  1.00  0.00    -0.032 A 
HETATM   12  C   UNL     1       8.633  21.972  56.141  1.00  0.00     0.126 A 
HETATM   13  N   UNL     1       8.588  21.072  55.131  1.00  0.00    -0.248 NA
HETATM   14  C   UNL     1       8.357  21.563  53.899  1.00  0.00     0.125 A 
HETATM   15 CL   UNL     1       8.311  20.386  52.653  1.00  0.00    -0.063 Cl
HETATM   16  C   UNL     1       8.151  22.901  53.619  1.00  0.00     0.045 A 
HETATM   17  C   UNL     1       8.193  23.803  54.678  1.00  0.00     0.012 A 
ENDBRANCH  10  11
ENDBRANCH   7  10
ENDBRANCH   1   6
BRANCH   1  18
HETATM   18  C   UNL     1       6.325  27.767  55.186  1.00  0.00    -0.001 A 
HETATM   19  C   UNL     1       4.933  27.966  55.052  1.00  0.00     0.076 A 
HETATM   20  C   UNL     1       4.339  27.917  53.784  1.00  0.00     0.037 A 
HETATM   21  C   UNL     1       5.108  27.672  52.646  1.00  0.00     0.003 A 
HETATM   22  C   UNL     1       6.478  27.477  52.763  1.00  0.00     0.001 A 
HETATM   23  C   UNL     1       7.081  27.524  54.020  1.00  0.00     0.012 A 
BRANCH  19  24
HETATM   24  O   UNL     1       4.242  28.222  56.208  1.00  0.00    -0.355 OA
HETATM   25  C   UNL     1       3.538  29.454  56.303  1.00  0.00     0.210 C 
ENDBRANCH  19  24
ENDBRANCH   1  18
TORSDOF 6
ENDMDL
MODEL 3
REMARK VINA RESULT:      -7.4      3.892      7.012
REMARK  6 active torsions:
REMARK  status: ('A' for Active; 'I' for Inactive)
REMARK    1  A    between atoms: C_2  and  C_3 
REMARK    2  A    between atoms: C_3  and  N_4 
REMARK    3  A    between atoms: C_3  and  C_15 
REMARK       I    between atoms: N_4  and  C_5 
REMARK    4  A    between atoms: C_5  and  C_6 
REMARK    5  A    between atoms: C_6  and  C_7 
REMARK    6  A    between atoms: C_16  and  O_17 
ROOT
HETATM    1  C   UNL     1       6.951  25.865  55.810  1.00  0.00     0.128 C 
ENDROOT
BRANCH   1   2
HETATM    2  C   UNL     1       5.397  26.081  55.974  1.00  0.00    -0.026 C 
HETATM    3  C   UNL     1       5.007  27.553  56.206  1.00  0.00     0.016 C 
HETATM    4  C   UNL     1       4.879  25.265  57.181  1.00  0.00     0.016 C 
HETATM    5  C   UNL     1       4.643  25.569  54.727  1.00  0.00     0.016 C 
ENDBRANCH   1   2
BRANCH   1   6
HETATM    6  N   UNL     1       7.706  27.122  55.900  1.00  0.00    -0.351 N 
HETATM    7  C   UNL     1       8.242  27.600  57.079  1.00  0.00     0.222 C 
HETATM    8  O   UNL     1       8.075  27.062  58.168  1.00  0.00    -0.273 OA
HETATM    9  H   UNL     1       7.860  27.642  55.050  1.00  0.00     0.163 HD
BRANCH   7  10
HETATM   10  C   UNL     1       9.030  28.888  56.889  1.00  0.00     0.142 C 
BRANCH  10  11
HETATM   11  C   UNL     1       8.754  29.995  57.878  1.00  0.00    -0.032 A 
HETATM   12  C   UNL     1       7.464  30.362  58.257  1.00  0.00     0.126 A 
HETATM   13  N   UNL     1       7.183  31.295  59.197  1.00  0.00    -0.248 NA
HETATM   14  C   UNL     1       8.238  31.892  59.783  1.00  0.00     0.125 A 
HETATM   15 CL   UNL     1       7.833  33.067  60.964  1.00  0.00    -0.063 Cl
HETATM   16  C   UNL     1       9.559  31.600  59.496  1.00  0.00     0.045 A 
HETATM   17  C   UNL     1       9.817  30.630  58.533  1.00  0.00     0.012 A 
ENDBRANCH  10  11
ENDBRANCH   7  10
ENDBRANCH   1   6
BRANCH   1  18
HETATM   18  C   UNL     1       7.372  25.110  54.541  1.00  0.00    -0.001 A 
HETATM   19  C   UNL     1       7.532  23.707  54.554  1.00  0.00     0.076 A 
HETATM   20  C   UNL     1       7.921  23.036  53.387  1.00  0.00     0.037 A 
HETATM   21  C   UNL     1       8.155  23.741  52.205  1.00  0.00     0.003 A 
HETATM   22  C   UNL     1       8.000  25.120  52.178  1.00  0.00     0.001 A 
HETATM   23  C   UNL     1       7.611  25.799  53.333  1.00  0.00     0.012 A 
BRANCH  19  24
HETATM   24  O   UNL     1       7.266  23.077  55.742  1.00  0.00    -0.355 OA
HETATM   25  C   UNL     1       8.332  22.391  56.385  1.00  0.00     0.210 C 
ENDBRANCH  19  24
ENDBRANCH   1  18
TORSDOF 6
ENDMDL
MODEL 4
REMARK VINA RESULT:      -7.4      4.232      7.167
REMARK  6 active torsions:
REMARK  status: ('A' for Active; 'I' for Inactive)
REMARK    1  A    between atoms: C_2  and  C_3 
REMARK    2  A    between atoms: C_3  and  N_4 
REMARK    3  A    between atoms: C_3  and  C_15 
REMARK       I    between atoms: N_4  and  C_5 
REMARK    4  A    between atoms: C_5  and  C_6 
REMARK    5  A    between atoms: C_6  and  C_7 
REMARK    6  A    between atoms: C_16  and  O_17 
ROOT
HETATM    1  C   UNL     1       7.510  27.076  55.997  1.00  0.00     0.128 C 
ENDROOT
BRANCH   1   2
HETATM    2  C   UNL     1       7.363  25.567  56.434  1.00  0.00    -0.026 C 
HETATM    3  C   UNL     1       5.937  25.202  56.889  1.00  0.00     0.016 C 
HETATM    4  C   UNL     1       8.320  25.266  57.610  1.00  0.00     0.016 C 
HETATM    5  C   UNL     1       7.760  24.626  55.276  1.00  0.00     0.016 C 
ENDBRANCH   1   2
BRANCH   1   6
HETATM    6  N   UNL     1       8.526  27.792  56.780  1.00  0.00    -0.351 N 
HETATM    7  C   UNL     1       9.237  28.870  56.292  1.00  0.00     0.222 C 
HETATM    8  O   UNL     1       9.142  29.280  55.140  1.00  0.00    -0.273 OA
HETATM    9  H   UNL     1       8.687  27.494  57.730  1.00  0.00     0.163 HD
BRANCH   7  10
HETATM   10  C   UNL     1      10.182  29.470  57.323  1.00  0.00     0.142 C 
BRANCH  10  11
HETATM   11  C   UNL     1       9.556  30.365  58.364  1.00  0.00    -0.032 A 
HETATM   12  C   UNL     1      10.004  31.662  58.610  1.00  0.00     0.126 A 
HETATM   13  N   UNL     1       9.418  32.518  59.480  1.00  0.00    -0.248 NA
HETATM   14  C   UNL     1       8.338  32.058  60.139  1.00  0.00     0.125 A 
HETATM   15 CL   UNL     1       7.632  33.175  61.231  1.00  0.00    -0.063 Cl
HETATM   16  C   UNL     1       7.799  30.796  59.968  1.00  0.00     0.045 A 
HETATM   17  C   UNL     1       8.416  29.942  59.059  1.00  0.00     0.012 A 
ENDBRANCH  10  11
ENDBRANCH   7  10
ENDBRANCH   1   6
BRANCH   1  18
HETATM   18  C   UNL     1       6.204  27.884  56.001  1.00  0.00    -0.001 A 
HETATM   19  C   UNL     1       5.399  27.962  54.843  1.00  0.00     0.076 A 
HETATM   20  C   UNL     1       4.213  28.708  54.865  1.00  0.00     0.037 A 
HETATM   21  C   UNL     1       3.816  29.380  56.021  1.00  0.00     0.003 A 
HETATM   22  C   UNL     1       4.597  29.311  57.167  1.00  0.00     0.001 A 
HETATM   23  C   UNL     1       5.779  28.570  57.158  1.00  0.00     0.012 A 
BRANCH  19  24
HETATM   24  O   UNL     1       5.838  27.261  53.751  1.00  0.00    -0.355 OA
HETATM   25  C   UNL     1       5.013  26.214  53.256  1.00  0.00     0.210 C 
ENDBRANCH  19  24
ENDBRANCH   1  18
TORSDOF 6
ENDMDL
MODEL 5
REMARK VINA RESULT:      -7.4      3.327      6.316
REMARK  6 active torsions:
REMARK  status: ('A' for Active; 'I' for Inactive)
REMARK    1  A    between atoms: C_2  and  C_3 
REMARK    2  A    between atoms: C_3  and  N_4 
REMARK    3  A    between atoms: C_3  and  C_15 
REMARK       I    between atoms: N_4  and  C_5 
REMARK    4  A    between atoms: C_5  and  C_6 
REMARK    5  A    between atoms: C_6  and  C_7 
REMARK    6  A    between atoms: C_16  and  O_17 
ROOT
HETATM    1  C   UNL     1       6.406  25.744  54.141  1.00  0.00     0.128 C 
ENDROOT
BRANCH   1   2
HETATM    2  C   UNL     1       5.383  25.950  52.958  1.00  0.00    -0.026 C 
HETATM    3  C   UNL     1       6.064  26.224  51.604  1.00  0.00     0.016 C 
HETATM    4  C   UNL     1       4.459  27.150  53.268  1.00  0.00     0.016 C 
HETATM    5  C   UNL     1       4.475  24.710  52.803  1.00  0.00     0.016 C 
ENDBRANCH   1   2
BRANCH   1   6
HETATM    6  N   UNL     1       7.416  26.809  54.204  1.00  0.00    -0.351 N 
HETATM    7  C   UNL     1       7.458  27.754  55.210  1.00  0.00     0.222 C 
HETATM    8  O   UNL     1       6.616  27.837  56.097  1.00  0.00    -0.273 OA
HETATM    9  H   UNL     1       8.127  26.829  53.489  1.00  0.00     0.163 HD
BRANCH   7  10
HETATM   10  C   UNL     1       8.637  28.706  55.076  1.00  0.00     0.142 C 
BRANCH  10  11
HETATM   11  C   UNL     1       8.946  29.563  56.279  1.00  0.00    -0.032 A 
HETATM   12  C   UNL     1       7.980  29.918  57.219  1.00  0.00     0.126 A 
HETATM   13  N   UNL     1       8.237  30.620  58.348  1.00  0.00    -0.248 NA
HETATM   14  C   UNL     1       9.517  30.988  58.546  1.00  0.00     0.125 A 
HETATM   15 CL   UNL     1       9.794  31.876  59.987  1.00  0.00    -0.063 Cl
HETATM   16  C   UNL     1      10.558  30.682  57.690  1.00  0.00     0.045 A 
HETATM   17  C   UNL     1      10.266  29.952  56.543  1.00  0.00     0.012 A 
ENDBRANCH  10  11
ENDBRANCH   7  10
ENDBRANCH   1   6
BRANCH   1  18
HETATM   18  C   UNL     1       7.108  24.378  54.162  1.00  0.00    -0.001 A 
HETATM   19  C   UNL     1       7.493  23.782  55.384  1.00  0.00     0.076 A 
HETATM   20  C   UNL     1       8.137  22.537  55.382  1.00  0.00     0.037 A 
HETATM   21  C   UNL     1       8.405  21.876  54.183  1.00  0.00     0.003 A 
HETATM   22  C   UNL     1       8.031  22.449  52.976  1.00  0.00     0.001 A 
HETATM   23  C   UNL     1       7.388  23.687  52.964  1.00  0.00     0.012 A 
BRANCH  19  24
HETATM   24  O   UNL     1       7.180  24.476  56.523  1.00  0.00    -0.355 OA
HETATM   25  C   UNL     1       8.248  24.897  57.361  1.00  0.00     0.210 C 
ENDBRANCH  19  24
ENDBRANCH   1  18
TORSDOF 6
ENDMDL
MODEL 6
REMARK VINA RESULT:      -7.1      3.872      7.089
REMARK  6 active torsions:
REMARK  status: ('A' for Active; 'I' for Inactive)
REMARK    1  A    between atoms: C_2  and  C_3 
REMARK    2  A    between atoms: C_3  and  N_4 
REMARK    3  A    between atoms: C_3  and  C_15 
REMARK       I    between atoms: N_4  and  C_5 
REMARK    4  A    between atoms: C_5  and  C_6 
REMARK    5  A    between atoms: C_6  and  C_7 
REMARK    6  A    between atoms: C_16  and  O_17 
ROOT
HETATM    1  C   UNL     1       7.456  26.308  55.482  1.00  0.00     0.128 C 
ENDROOT
BRANCH   1   2
HETATM    2  C   UNL     1       7.227  25.086  56.454  1.00  0.00    -0.026 C 
HETATM    3  C   UNL     1       5.903  25.169  57.236  1.00  0.00     0.016 C 
HETATM    4  C   UNL     1       8.376  25.015  57.486  1.00  0.00     0.016 C 
HETATM    5  C   UNL     1       7.244  23.757  55.666  1.00  0.00     0.016 C 
ENDBRANCH   1   2
BRANCH   1   6
HETATM    6  N   UNL     1       6.931  27.566  56.028  1.00  0.00    -0.351 N 
HETATM    7  C   UNL     1       7.614  28.764  55.961  1.00  0.00     0.222 C 
HETATM    8  O   UNL     1       8.748  28.873  55.509  1.00  0.00    -0.273 OA
HETATM    9  H   UNL     1       6.013  27.554  56.447  1.00  0.00     0.163 HD
BRANCH   7  10
HETATM   10  C   UNL     1       6.824  29.927  56.544  1.00  0.00     0.142 C 
BRANCH  10  11
HETATM   11  C   UNL     1       7.227  30.386  57.924  1.00  0.00    -0.032 A 
HETATM   12  C   UNL     1       8.184  29.721  58.689  1.00  0.00     0.126 A 
HETATM   13  N   UNL     1       8.625  30.148  59.896  1.00  0.00    -0.248 NA
HETATM   14  C   UNL     1       8.083  31.289  60.363  1.00  0.00     0.125 A 
HETATM   15 CL   UNL     1       8.670  31.789  61.895  1.00  0.00    -0.063 Cl
HETATM   16  C   UNL     1       7.137  32.037  59.687  1.00  0.00     0.045 A 
HETATM   17  C   UNL     1       6.711  31.579  58.444  1.00  0.00     0.012 A 
ENDBRANCH  10  11
ENDBRANCH   7  10
ENDBRANCH   1   6
BRANCH   1  18
HETATM   18  C   UNL     1       6.923  26.113  54.055  1.00  0.00    -0.001 A 
HETATM   19  C   UNL     1       5.633  26.566  53.697  1.00  0.00     0.076 A 
HETATM   20  C   UNL     1       5.163  26.374  52.391  1.00  0.00     0.037 A 
HETATM   21  C   UNL     1       5.955  25.737  51.435  1.00  0.00     0.003 A 
HETATM   22  C   UNL     1       7.225  25.289  51.773  1.00  0.00     0.001 A 
HETATM   23  C   UNL     1       7.705  25.475  53.070  1.00  0.00     0.012 A 
BRANCH  19  24
HETATM   24  O   UNL     1       4.919  27.201  54.679  1.00  0.00    -0.355 OA
HETATM   25  C   UNL     1       4.062  28.268  54.294  1.00  0.00     0.210 C 
ENDBRANCH  19  24
ENDBRANCH   1  18
TORSDOF 6
ENDMDL
MODEL 7
REMARK VINA RESULT:      -7.1      3.256      6.476
REMARK  6 active torsions:
REMARK  status: ('A' for Active; 'I' for Inactive)
REMARK    1  A    between atoms: C_2  and  C_3 
REMARK    2  A    between atoms: C_3  and  N_4 
REMARK    3  A    between atoms: C_3  and  C_15 
REMARK       I    between atoms: N_4  and  C_5 
REMARK    4  A    between atoms: C_5  and  C_6 
REMARK    5  A    between atoms: C_6  and  C_7 
REMARK    6  A    between atoms: C_16  and  O_17 
ROOT
HETATM    1  C   UNL     1       7.619  25.364  55.248  1.00  0.00     0.128 C 
ENDROOT
BRANCH   1   2
HETATM    2  C   UNL     1       7.681  25.643  56.800  1.00  0.00    -0.026 C 
HETATM    3  C   UNL     1       8.635  24.695  57.551  1.00  0.00     0.016 C 
HETATM    4  C   UNL     1       6.274  25.476  57.419  1.00  0.00     0.016 C 
HETATM    5  C   UNL     1       8.126  27.096  57.073  1.00  0.00     0.016 C 
ENDBRANCH   1   2
BRANCH   1   6
HETATM    6  N   UNL     1       6.429  25.950  54.618  1.00  0.00    -0.351 N 
HETATM    7  C   UNL     1       6.459  27.121  53.886  1.00  0.00     0.222 C 
HETATM    8  O   UNL     1       7.462  27.815  53.758  1.00  0.00    -0.273 OA
HETATM    9  H   UNL     1       5.555  25.454  54.704  1.00  0.00     0.163 HD
BRANCH   7  10
HETATM   10  C   UNL     1       5.106  27.477  53.288  1.00  0.00     0.142 C 
BRANCH  10  11
HETATM   11  C   UNL     1       5.068  27.688  51.794  1.00  0.00    -0.032 A 
HETATM   12  C   UNL     1       5.446  28.887  51.192  1.00  0.00     0.126 A 
HETATM   13  N   UNL     1       5.498  29.084  49.854  1.00  0.00    -0.248 NA
HETATM   14  C   UNL     1       5.152  28.039  49.080  1.00  0.00     0.125 A 
HETATM   15 CL   UNL     1       5.230  28.336  47.393  1.00  0.00    -0.063 Cl
HETATM   16  C   UNL     1       4.772  26.801  49.565  1.00  0.00     0.045 A 
HETATM   17  C   UNL     1       4.738  26.624  50.944  1.00  0.00     0.012 A 
ENDBRANCH  10  11
ENDBRANCH   7  10
ENDBRANCH   1   6
BRANCH   1  18
HETATM   18  C   UNL     1       7.727  23.885  54.849  1.00  0.00    -0.001 A 
HETATM   19  C   UNL     1       8.102  23.516  53.537  1.00  0.00     0.076 A 
HETATM   20  C   UNL     1       8.191  22.161  53.191  1.00  0.00     0.037 A 
HETATM   21  C   UNL     1       7.912  21.166  54.129  1.00  0.00     0.003 A 
HETATM   22  C   UNL     1       7.545  21.515  55.421  1.00  0.00     0.001 A 
HETATM   23  C   UNL     1       7.454  22.860  55.779  1.00  0.00     0.012 A 
BRANCH  19  24
HETATM   24  O   UNL     1       8.382  24.543  52.675  1.00  0.00    -0.355 OA
HETATM   25  C   UNL     1       7.575  24.674  51.511  1.00  0.00     0.210 C 
ENDBRANCH  19  24
ENDBRANCH   1  18
TORSDOF 6
ENDMDL
MODEL 8
REMARK VINA RESULT:      -7.1      2.854      5.055
REMARK  6 active torsions:
REMARK  status: ('A' for Active; 'I' for Inactive)
REMARK    1  A    between atoms: C_2  and  C_3 
REMARK    2  A    between atoms: C_3  and  N_4 
REMARK    3  A    between atoms: C_3  and  C_15 
REMARK       I    between atoms: N_4  and  C_5 
REMARK    4  A    between atoms: C_5  and  C_6 
REMARK    5  A    between atoms: C_6  and  C_7 
REMARK    6  A    between atoms: C_16  and  O_17 
ROOT
HETATM    1  C   UNL     1       4.707  27.163  51.233  1.00  0.00     0.128 C 
ENDROOT
BRANCH   1   2
HETATM    2  C   UNL     1       4.289  28.233  52.314  1.00  0.00    -0.026 C 
HETATM    3  C   UNL     1       3.853  27.608  53.653  1.00  0.00     0.016 C 
HETATM    4  C   UNL     1       3.106  29.077  51.786  1.00  0.00     0.016 C 
HETATM    5  C   UNL     1       5.453  29.210  52.590  1.00  0.00     0.016 C 
ENDBRANCH   1   2
BRANCH   1   6
HETATM    6  N   UNL     1       5.965  26.484  51.571  1.00  0.00    -0.351 N 
HETATM    7  C   UNL     1       6.020  25.199  52.074  1.00  0.00     0.222 C 
HETATM    8  O   UNL     1       5.027  24.538  52.355  1.00  0.00    -0.273 OA
HETATM    9  H   UNL     1       6.829  26.975  51.399  1.00  0.00     0.163 HD
BRANCH   7  10
HETATM   10  C   UNL     1       7.445  24.708  52.281  1.00  0.00     0.142 C 
BRANCH  10  11
HETATM   11  C   UNL     1       7.634  23.603  53.292  1.00  0.00    -0.032 A 
HETATM   12  C   UNL     1       7.391  23.780  54.654  1.00  0.00     0.126 A 
HETATM   13  N   UNL     1       7.475  22.792  55.576  1.00  0.00    -0.248 NA
HETATM   14  C   UNL     1       7.821  21.574  55.120  1.00  0.00     0.125 A 
HETATM   15 CL   UNL     1       7.917  20.357  56.324  1.00  0.00    -0.063 Cl
HETATM   16  C   UNL     1       8.073  21.279  53.793  1.00  0.00     0.045 A 
HETATM   17  C   UNL     1       7.969  22.312  52.866  1.00  0.00     0.012 A 
ENDBRANCH  10  11
ENDBRANCH   7  10
ENDBRANCH   1   6
BRANCH   1  18
HETATM   18  C   UNL     1       4.787  27.690  49.793  1.00  0.00    -0.001 A 
HETATM   19  C   UNL     1       4.312  26.914  48.712  1.00  0.00     0.076 A 
HETATM   20  C   UNL     1       4.398  27.411  47.404  1.00  0.00     0.037 A 
HETATM   21  C   UNL     1       4.950  28.668  47.155  1.00  0.00     0.003 A 
HETATM   22  C   UNL     1       5.418  29.442  48.208  1.00  0.00     0.001 A 
HETATM   23  C   UNL     1       5.337  28.959  49.514  1.00  0.00     0.012 A 
BRANCH  19  24
HETATM   24  O   UNL     1       3.765  25.700  49.031  1.00  0.00    -0.355 OA
HETATM   25  C   UNL     1       3.067  24.996  48.012  1.00  0.00     0.210 C 
ENDBRANCH  19  24
ENDBRANCH   1  18
TORSDOF 6
ENDMDL
MODEL 9
REMARK VINA RESULT:      -7.0     10.131     12.788
REMARK  6 active torsions:
REMARK  status: ('A' for Active; 'I' for Inactive)
REMARK    1  A    between atoms: C_2  and  C_3 
REMARK    2  A    between atoms: C_3  and  N_4 
REMARK    3  A    between atoms: C_3  and  C_15 
REMARK       I    between atoms: N_4  and  C_5 
REMARK    4  A    between atoms: C_5  and  C_6 
REMARK    5  A    between atoms: C_6  and  C_7 
REMARK    6  A    between atoms: C_16  and  O_17 
ROOT
HETATM    1  C   UNL     1       4.874  34.898  64.655  1.00  0.00     0.128 C 
ENDROOT
BRANCH   1   2
HETATM    2  C   UNL     1       4.609  35.279  66.163  1.00  0.00    -0.026 C 
HETATM    3  C   UNL     1       5.442  34.446  67.156  1.00  0.00     0.016 C 
HETATM    4  C   UNL     1       3.117  35.058  66.505  1.00  0.00     0.016 C 
HETATM    5  C   UNL     1       4.912  36.773  66.406  1.00  0.00     0.016 C 
ENDBRANCH   1   2
BRANCH   1   6
HETATM    6  N   UNL     1       6.174  34.244  64.459  1.00  0.00    -0.351 N 
HETATM    7  C   UNL     1       6.324  33.033  63.814  1.00  0.00     0.222 C 
HETATM    8  O   UNL     1       5.382  32.357  63.414  1.00  0.00    -0.273 OA
HETATM    9  H   UNL     1       6.998  34.723  64.790  1.00  0.00     0.163 HD
BRANCH   7  10
HETATM   10  C   UNL     1       7.779  32.607  63.690  1.00  0.00     0.142 C 
BRANCH  10  11
HETATM   11  C   UNL     1       8.234  32.168  62.319  1.00  0.00    -0.032 A 
HETATM   12  C   UNL     1       8.104  32.973  61.189  1.00  0.00     0.126 A 
HETATM   13  N   UNL     1       8.570  32.644  59.961  1.00  0.00    -0.248 NA
HETATM   14  C   UNL     1       9.191  31.454  59.855  1.00  0.00     0.125 A 
HETATM   15 CL   UNL     1       9.762  31.079  58.282  1.00  0.00    -0.063 Cl
HETATM   16  C   UNL     1       9.389  30.581  60.908  1.00  0.00     0.045 A 
HETATM   17  C   UNL     1       8.908  30.950  62.160  1.00  0.00     0.012 A 
ENDBRANCH  10  11
ENDBRANCH   7  10
ENDBRANCH   1   6
BRANCH   1  18
HETATM   18  C   UNL     1       4.733  36.057  63.657  1.00  0.00    -0.001 A 
HETATM   19  C   UNL     1       3.552  36.218  62.898  1.00  0.00     0.076 A 
HETATM   20  C   UNL     1       3.445  37.280  61.990  1.00  0.00     0.037 A 
HETATM   21  C   UNL     1       4.495  38.184  61.823  1.00  0.00     0.003 A 
HETATM   22  C   UNL     1       5.660  38.038  62.564  1.00  0.00     0.001 A 
HETATM   23  C   UNL     1       5.778  36.986  63.473  1.00  0.00     0.012 A 
BRANCH  19  24
HETATM   24  O   UNL     1       2.555  35.307  63.127  1.00  0.00    -0.355 OA
HETATM   25  C   UNL     1       2.224  34.405  62.079  1.00  0.00     0.210 C 
ENDBRANCH  19  24
ENDBRANCH   1  18
TORSDOF 6
ENDMDL
MODEL 10
REMARK VINA RESULT:      -6.8      3.851      6.401
REMARK  6 active torsions:
REMARK  status: ('A' for Active; 'I' for Inactive)
REMARK    1  A    between atoms: C_2  and  C_3 
REMARK    2  A    between atoms: C_3  and  N_4 
REMARK    3  A    between atoms: C_3  and  C_15 
REMARK       I    between atoms: N_4  and  C_5 
REMARK    4  A    between atoms: C_5  and  C_6 
REMARK    5  A    between atoms: C_6  and  C_7 
REMARK    6  A    between atoms: C_16  and  O_17 
ROOT
HETATM    1  C   UNL     1       6.131  26.498  53.930  1.00  0.00     0.128 C 
ENDROOT
BRANCH   1   2
HETATM    2  C   UNL     1       6.973  25.218  53.554  1.00  0.00    -0.026 C 
HETATM    3  C   UNL     1       8.009  25.476  52.443  1.00  0.00     0.016 C 
HETATM    4  C   UNL     1       6.030  24.097  53.062  1.00  0.00     0.016 C 
HETATM    5  C   UNL     1       7.716  24.673  54.793  1.00  0.00     0.016 C 
ENDBRANCH   1   2
BRANCH   1   6
HETATM    6  N   UNL     1       5.857  27.354  52.768  1.00  0.00    -0.351 N 
HETATM    7  C   UNL     1       4.665  28.025  52.586  1.00  0.00     0.222 C 
HETATM    8  O   UNL     1       3.701  27.910  53.335  1.00  0.00    -0.273 OA
HETATM    9  H   UNL     1       6.591  27.475  52.087  1.00  0.00     0.163 HD
BRANCH   7  10
HETATM   10  C   UNL     1       4.660  28.891  51.335  1.00  0.00     0.142 C 
BRANCH  10  11
HETATM   11  C   UNL     1       3.644  28.535  50.277  1.00  0.00    -0.032 A 
HETATM   12  C   UNL     1       3.848  27.513  49.351  1.00  0.00     0.126 A 
HETATM   13  N   UNL     1       2.928  27.116  48.440  1.00  0.00    -0.248 NA
HETATM   14  C   UNL     1       1.753  27.772  48.450  1.00  0.00     0.125 A 
HETATM   15 CL   UNL     1       0.621  27.237  47.278  1.00  0.00    -0.063 Cl
HETATM   16  C   UNL     1       1.436  28.792  49.329  1.00  0.00     0.045 A 
HETATM   17  C   UNL     1       2.397  29.171  50.261  1.00  0.00     0.012 A 
ENDBRANCH  10  11
ENDBRANCH   7  10
ENDBRANCH   1   6
BRANCH   1  18
HETATM   18  C   UNL     1       6.720  27.354  55.062  1.00  0.00    -0.001 A 
HETATM   19  C   UNL     1       6.108  27.388  56.335  1.00  0.00     0.076 A 
HETATM   20  C   UNL     1       6.658  28.178  57.353  1.00  0.00     0.037 A 
HETATM   21  C   UNL     1       7.806  28.936  57.125  1.00  0.00     0.003 A 
HETATM   22  C   UNL     1       8.419  28.910  55.880  1.00  0.00     0.001 A 
HETATM   23  C   UNL     1       7.882  28.126  54.858  1.00  0.00     0.012 A 
BRANCH  19  24
HETATM   24  O   UNL     1       4.996  26.603  56.495  1.00  0.00    -0.355 OA
HETATM   25  C   UNL     1       5.122  25.421  57.274  1.00  0.00     0.210 C 
ENDBRANCH  19  24
ENDBRANCH   1  18
TORSDOF 6
ENDMDL
