MODEL 1
REMARK VINA RESULT:     -10.5      0.000      0.000
REMARK  7 active torsions:
REMARK  status: ('A' for Active; 'I' for Inactive)
REMARK    1  A    between atoms: C_6  and  N_7 
REMARK       I    between atoms: N_7  and  C_8 
REMARK    2  A    between atoms: C_8  and  C_9 
REMARK    3  A    between atoms: C_9  and  O_10 
REMARK    4  A    between atoms: O_10  and  C_11 
REMARK    5  A    between atoms: C_11  and  C_12 
REMARK       I    between atoms: C_12  and  N_13 
REMARK    6  A    between atoms: N_13  and  N_14 
REMARK       I    between atoms: N_14  and  C_15 
REMARK    7  A    between atoms: C_15  and  C_16 
ROOT
HETATM    1  C   UNL     1       7.723  30.113  58.370  1.00  0.00     0.259 C 
HETATM    2  N   UNL     1       8.233  30.005  59.646  1.00  0.00    -0.265 N 
HETATM    3  O   UNL     1       6.771  30.840  58.090  1.00  0.00    -0.269 OA
HETATM    4  H   UNL     1       9.023  29.402  59.876  1.00  0.00     0.190 HD
ENDROOT
BRANCH   1   5
HETATM    5  C   UNL     1       8.394  29.192  57.353  1.00  0.00     0.272 C 
BRANCH   5   6
HETATM    6  O   UNL     1       8.162  27.815  57.657  1.00  0.00    -0.373 OA
BRANCH   6   7
HETATM    7  C   UNL     1       6.809  27.432  57.428  1.00  0.00     0.271 C 
BRANCH   7   8
HETATM    8  C   UNL     1       6.595  26.350  56.359  1.00  0.00     0.245 C 
HETATM    9  N   UNL     1       7.644  25.450  56.305  1.00  0.00    -0.325 N 
HETATM   10  H   UNL     1       8.440  25.676  56.896  1.00  0.00     0.169 HD
HETATM   11  O   UNL     1       5.566  26.325  55.691  1.00  0.00    -0.271 OA
BRANCH   9  12
HETATM   12  C   UNL     1       7.737  24.279  55.525  1.00  0.00     0.036 A 
HETATM   13  C   UNL     1       7.683  22.987  56.049  1.00  0.00     0.053 A 
HETATM   14  C   UNL     1       7.816  21.874  55.209  1.00  0.00     0.042 A 
HETATM   15  C   UNL     1       7.996  22.031  53.827  1.00  0.00    -0.040 A 
HETATM   16 CL   UNL     1       7.762  20.304  55.933  1.00  0.00    -0.084 Cl
HETATM   17  C   UNL     1       8.155  20.854  52.905  1.00  0.00     0.050 C 
HETATM   18  C   UNL     1       8.041  23.330  53.306  1.00  0.00     0.011 A 
HETATM   19  C   UNL     1       7.915  24.441  54.147  1.00  0.00     0.030 A 
ENDBRANCH   9  12
ENDBRANCH   7   8
ENDBRANCH   6   7
ENDBRANCH   5   6
ENDBRANCH   1   5
BRANCH   2  20
HETATM   20  N   UNL     1       7.635  30.731  60.677  1.00  0.00    -0.262 N 
HETATM   21  C   UNL     1       8.414  31.554  61.464  1.00  0.00     0.286 C 
HETATM   22  O   UNL     1       9.608  31.740  61.231  1.00  0.00    -0.264 OA
HETATM   23  H   UNL     1       6.675  30.489  60.907  1.00  0.00     0.190 HD
BRANCH  21  24
HETATM   24  C   UNL     1       7.731  32.183  62.573  1.00  0.00     0.103 A 
HETATM   25  N   UNL     1       6.357  32.311  62.594  1.00  0.00    -0.351 N 
HETATM   26  H   UNL     1       5.752  31.986  61.850  1.00  0.00     0.166 HD
HETATM   27  C   UNL     1       5.932  32.923  63.748  1.00  0.00     0.043 A 
HETATM   28  C   UNL     1       7.070  33.210  64.497  1.00  0.00    -0.007 A 
HETATM   29  C   UNL     1       4.641  33.239  64.184  1.00  0.00     0.030 A 
HETATM   30  C   UNL     1       8.191  32.746  63.752  1.00  0.00     0.049 A 
HETATM   31  C   UNL     1       6.920  33.847  65.744  1.00  0.00     0.014 A 
HETATM   32  C   UNL     1       5.636  34.170  66.197  1.00  0.00     0.001 A 
HETATM   33  C   UNL     1       4.515  33.869  65.427  1.00  0.00     0.002 A 
ENDBRANCH  21  24
ENDBRANCH   2  20
TORSDOF 7
ENDMDL
MODEL 2
REMARK VINA RESULT:     -10.3      3.232     11.878
REMARK  7 active torsions:
REMARK  status: ('A' for Active; 'I' for Inactive)
REMARK    1  A    between atoms: C_6  and  N_7 
REMARK       I    between atoms: N_7  and  C_8 
REMARK    2  A    between atoms: C_8  and  C_9 
REMARK    3  A    between atoms: C_9  and  O_10 
REMARK    4  A    between atoms: O_10  and  C_11 
REMARK    5  A    between atoms: C_11  and  C_12 
REMARK       I    between atoms: C_12  and  N_13 
REMARK    6  A    between atoms: N_13  and  N_14 
REMARK       I    between atoms: N_14  and  C_15 
REMARK    7  A    between atoms: C_15  and  C_16 
ROOT
HETATM    1  C   UNL     1       7.509  28.581  56.735  1.00  0.00     0.259 C 
HETATM    2  N   UNL     1       6.967  27.420  57.243  1.00  0.00    -0.265 N 
HETATM    3  O   UNL     1       8.044  28.641  55.629  1.00  0.00    -0.269 OA
HETATM    4  H   UNL     1       6.522  27.373  58.160  1.00  0.00     0.190 HD
ENDROOT
BRANCH   1   5
HETATM    5  C   UNL     1       7.456  29.765  57.698  1.00  0.00     0.272 C 
BRANCH   5   6
HETATM    6  O   UNL     1       8.110  29.468  58.933  1.00  0.00    -0.373 OA
BRANCH   6   7
HETATM    7  C   UNL     1       9.080  30.453  59.280  1.00  0.00     0.271 C 
BRANCH   7   8
HETATM    8  C   UNL     1       8.574  31.602  60.164  1.00  0.00     0.245 C 
HETATM    9  N   UNL     1       7.753  31.159  61.185  1.00  0.00    -0.325 N 
HETATM   10  H   UNL     1       7.521  30.169  61.156  1.00  0.00     0.169 HD
HETATM   11  O   UNL     1       8.931  32.757  59.953  1.00  0.00    -0.271 OA
BRANCH   9  12
HETATM   12  C   UNL     1       7.201  31.916  62.238  1.00  0.00     0.036 A 
HETATM   13  C   UNL     1       5.870  32.332  62.285  1.00  0.00     0.053 A 
HETATM   14  C   UNL     1       5.406  33.112  63.353  1.00  0.00     0.042 A 
HETATM   15  C   UNL     1       6.263  33.483  64.399  1.00  0.00    -0.040 A 
HETATM   16 CL   UNL     1       3.750  33.609  63.331  1.00  0.00    -0.084 Cl
HETATM   17  C   UNL     1       5.794  34.330  65.550  1.00  0.00     0.050 C 
HETATM   18  C   UNL     1       7.595  33.056  64.351  1.00  0.00     0.011 A 
HETATM   19  C   UNL     1       8.059  32.283  63.280  1.00  0.00     0.030 A 
ENDBRANCH   9  12
ENDBRANCH   7   8
ENDBRANCH   6   7
ENDBRANCH   5   6
ENDBRANCH   1   5
BRANCH   2  20
HETATM   20  N   UNL     1       7.044  26.249  56.486  1.00  0.00    -0.262 N 
HETATM   21  C   UNL     1       7.920  25.254  56.867  1.00  0.00     0.286 C 
HETATM   22  O   UNL     1       8.574  25.325  57.907  1.00  0.00    -0.264 OA
HETATM   23  H   UNL     1       6.569  26.257  55.587  1.00  0.00     0.190 HD
BRANCH  21  24
HETATM   24  C   UNL     1       8.012  24.128  55.965  1.00  0.00     0.103 A 
HETATM   25  N   UNL     1       8.400  22.880  56.409  1.00  0.00    -0.351 N 
HETATM   26  H   UNL     1       8.643  22.677  57.370  1.00  0.00     0.166 HD
HETATM   27  C   UNL     1       8.399  21.966  55.383  1.00  0.00     0.043 A 
HETATM   28  C   UNL     1       8.008  22.646  54.233  1.00  0.00    -0.007 A 
HETATM   29  C   UNL     1       8.710  20.601  55.385  1.00  0.00     0.030 A 
HETATM   30  C   UNL     1       7.771  23.999  54.607  1.00  0.00     0.049 A 
HETATM   31  C   UNL     1       7.922  21.937  53.020  1.00  0.00     0.014 A 
HETATM   32  C   UNL     1       8.228  20.571  53.003  1.00  0.00     0.001 A 
HETATM   33  C   UNL     1       8.615  19.916  54.169  1.00  0.00     0.002 A 
ENDBRANCH  21  24
ENDBRANCH   2  20
TORSDOF 7
ENDMDL
MODEL 3
REMARK VINA RESULT:     -10.0      1.511      1.947
REMARK  7 active torsions:
REMARK  status: ('A' for Active; 'I' for Inactive)
REMARK    1  A    between atoms: C_6  and  N_7 
REMARK       I    between atoms: N_7  and  C_8 
REMARK    2  A    between atoms: C_8  and  C_9 
REMARK    3  A    between atoms: C_9  and  O_10 
REMARK    4  A    between atoms: O_10  and  C_11 
REMARK    5  A    between atoms: C_11  and  C_12 
REMARK       I    between atoms: C_12  and  N_13 
REMARK    6  A    between atoms: N_13  and  N_14 
REMARK       I    between atoms: N_14  and  C_15 
REMARK    7  A    between atoms: C_15  and  C_16 
ROOT
HETATM    1  C   UNL     1       7.765  29.420  57.673  1.00  0.00     0.259 C 
HETATM    2  N   UNL     1       7.019  30.573  57.795  1.00  0.00    -0.265 N 
HETATM    3  O   UNL     1       8.207  28.804  58.642  1.00  0.00    -0.269 OA
HETATM    4  H   UNL     1       6.652  31.081  56.991  1.00  0.00     0.190 HD
ENDROOT
BRANCH   1   5
HETATM    5  C   UNL     1       8.058  29.021  56.228  1.00  0.00     0.272 C 
BRANCH   5   6
HETATM    6  O   UNL     1       6.871  29.015  55.433  1.00  0.00    -0.373 OA
BRANCH   6   7
HETATM    7  C   UNL     1       6.917  28.032  54.402  1.00  0.00     0.271 C 
BRANCH   7   8
HETATM    8  C   UNL     1       6.684  26.583  54.854  1.00  0.00     0.245 C 
HETATM    9  N   UNL     1       7.701  25.736  54.450  1.00  0.00    -0.325 N 
HETATM   10  H   UNL     1       8.398  26.156  53.841  1.00  0.00     0.169 HD
HETATM   11  O   UNL     1       5.703  26.288  55.529  1.00  0.00    -0.271 OA
BRANCH   9  12
HETATM   12  C   UNL     1       7.869  24.375  54.775  1.00  0.00     0.036 A 
HETATM   13  C   UNL     1       7.730  23.331  53.859  1.00  0.00     0.053 A 
HETATM   14  C   UNL     1       7.881  22.001  54.269  1.00  0.00     0.042 A 
HETATM   15  C   UNL     1       8.184  21.687  55.602  1.00  0.00    -0.040 A 
HETATM   16 CL   UNL     1       7.672  20.760  53.083  1.00  0.00    -0.084 Cl
HETATM   17  C   UNL     1       8.338  20.267  56.072  1.00  0.00     0.050 C 
HETATM   18  C   UNL     1       8.330  22.739  56.515  1.00  0.00     0.011 A 
HETATM   19  C   UNL     1       8.172  24.067  56.106  1.00  0.00     0.030 A 
ENDBRANCH   9  12
ENDBRANCH   7   8
ENDBRANCH   6   7
ENDBRANCH   5   6
ENDBRANCH   1   5
BRANCH   2  20
HETATM   20  N   UNL     1       6.769  31.084  59.070  1.00  0.00    -0.262 N 
HETATM   21  C   UNL     1       7.671  31.961  59.636  1.00  0.00     0.286 C 
HETATM   22  O   UNL     1       8.648  32.381  59.015  1.00  0.00    -0.264 OA
HETATM   23  H   UNL     1       6.013  30.651  59.594  1.00  0.00     0.190 HD
BRANCH  21  24
HETATM   24  C   UNL     1       7.387  32.354  60.998  1.00  0.00     0.103 A 
HETATM   25  N   UNL     1       6.095  32.569  61.430  1.00  0.00    -0.351 N 
HETATM   26  H   UNL     1       5.281  32.473  60.837  1.00  0.00     0.166 HD
HETATM   27  C   UNL     1       6.067  32.917  62.760  1.00  0.00     0.043 A 
HETATM   28  C   UNL     1       7.388  32.938  63.201  1.00  0.00    -0.007 A 
HETATM   29  C   UNL     1       4.985  33.209  63.598  1.00  0.00     0.030 A 
HETATM   30  C   UNL     1       8.206  32.588  62.090  1.00  0.00     0.049 A 
HETATM   31  C   UNL     1       7.650  33.269  64.544  1.00  0.00     0.014 A 
HETATM   32  C   UNL     1       6.580  33.563  65.398  1.00  0.00     0.001 A 
HETATM   33  C   UNL     1       5.269  33.533  64.929  1.00  0.00     0.002 A 
ENDBRANCH  21  24
ENDBRANCH   2  20
TORSDOF 7
ENDMDL
MODEL 4
REMARK VINA RESULT:      -9.7      5.741     10.066
REMARK  7 active torsions:
REMARK  status: ('A' for Active; 'I' for Inactive)
REMARK    1  A    between atoms: C_6  and  N_7 
REMARK       I    between atoms: N_7  and  C_8 
REMARK    2  A    between atoms: C_8  and  C_9 
REMARK    3  A    between atoms: C_9  and  O_10 
REMARK    4  A    between atoms: O_10  and  C_11 
REMARK    5  A    between atoms: C_11  and  C_12 
REMARK       I    between atoms: C_12  and  N_13 
REMARK    6  A    between atoms: N_13  and  N_14 
REMARK       I    between atoms: N_14  and  C_15 
REMARK    7  A    between atoms: C_15  and  C_16 
ROOT
HETATM    1  C   UNL     1       4.750  28.427  55.515  1.00  0.00     0.259 C 
HETATM    2  N   UNL     1       4.877  27.191  54.917  1.00  0.00    -0.265 N 
HETATM    3  O   UNL     1       4.223  29.389  54.957  1.00  0.00    -0.269 OA
HETATM    4  H   UNL     1       5.313  26.395  55.383  1.00  0.00     0.190 HD
ENDROOT
BRANCH   1   5
HETATM    5  C   UNL     1       5.391  28.517  56.898  1.00  0.00     0.272 C 
BRANCH   5   6
HETATM    6  O   UNL     1       6.800  28.284  56.842  1.00  0.00    -0.373 OA
BRANCH   6   7
HETATM    7  C   UNL     1       7.186  27.134  57.589  1.00  0.00     0.271 C 
BRANCH   7   8
HETATM    8  C   UNL     1       6.831  25.780  56.957  1.00  0.00     0.245 C 
HETATM    9  N   UNL     1       7.762  25.377  56.017  1.00  0.00    -0.325 N 
HETATM   10  H   UNL     1       8.486  26.059  55.805  1.00  0.00     0.169 HD
HETATM   11  O   UNL     1       5.837  25.161  57.322  1.00  0.00    -0.271 OA
BRANCH   9  12
HETATM   12  C   UNL     1       7.813  24.151  55.323  1.00  0.00     0.036 A 
HETATM   13  C   UNL     1       7.868  22.903  55.945  1.00  0.00     0.053 A 
HETATM   14  C   UNL     1       7.949  21.731  55.182  1.00  0.00     0.042 A 
HETATM   15  C   UNL     1       7.968  21.783  53.781  1.00  0.00    -0.040 A 
HETATM   16 CL   UNL     1       8.037  20.223  56.025  1.00  0.00    -0.084 Cl
HETATM   17  C   UNL     1       8.069  20.542  52.939  1.00  0.00     0.050 C 
HETATM   18  C   UNL     1       7.905  23.038  53.162  1.00  0.00     0.011 A 
HETATM   19  C   UNL     1       7.830  24.208  53.925  1.00  0.00     0.030 A 
ENDBRANCH   9  12
ENDBRANCH   7   8
ENDBRANCH   6   7
ENDBRANCH   5   6
ENDBRANCH   1   5
BRANCH   2  20
HETATM   20  N   UNL     1       4.410  27.020  53.613  1.00  0.00    -0.262 N 
HETATM   21  C   UNL     1       5.303  27.078  52.563  1.00  0.00     0.286 C 
HETATM   22  O   UNL     1       6.516  27.185  52.744  1.00  0.00    -0.264 OA
HETATM   23  H   UNL     1       3.402  27.029  53.485  1.00  0.00     0.190 HD
BRANCH  21  24
HETATM   24  C   UNL     1       4.718  26.998  51.243  1.00  0.00     0.103 A 
HETATM   25  N   UNL     1       3.838  27.957  50.787  1.00  0.00    -0.351 N 
HETATM   26  H   UNL     1       3.548  28.758  51.334  1.00  0.00     0.166 HD
HETATM   27  C   UNL     1       3.424  27.684  49.505  1.00  0.00     0.043 A 
HETATM   28  C   UNL     1       4.050  26.501  49.121  1.00  0.00    -0.007 A 
HETATM   29  C   UNL     1       2.555  28.387  48.663  1.00  0.00     0.030 A 
HETATM   30  C   UNL     1       4.855  26.077  50.217  1.00  0.00     0.049 A 
HETATM   31  C   UNL     1       3.799  25.986  47.835  1.00  0.00     0.014 A 
HETATM   32  C   UNL     1       2.933  26.676  46.979  1.00  0.00     0.001 A 
HETATM   33  C   UNL     1       2.322  27.858  47.389  1.00  0.00     0.002 A 
ENDBRANCH  21  24
ENDBRANCH   2  20
TORSDOF 7
ENDMDL
MODEL 5
REMARK VINA RESULT:      -9.6      3.887     11.788
REMARK  7 active torsions:
REMARK  status: ('A' for Active; 'I' for Inactive)
REMARK    1  A    between atoms: C_6  and  N_7 
REMARK       I    between atoms: N_7  and  C_8 
REMARK    2  A    between atoms: C_8  and  C_9 
REMARK    3  A    between atoms: C_9  and  O_10 
REMARK    4  A    between atoms: O_10  and  C_11 
REMARK    5  A    between atoms: C_11  and  C_12 
REMARK       I    between atoms: C_12  and  N_13 
REMARK    6  A    between atoms: N_13  and  N_14 
REMARK       I    between atoms: N_14  and  C_15 
REMARK    7  A    between atoms: C_15  and  C_16 
ROOT
HETATM    1  C   UNL     1       4.218  28.351  55.649  1.00  0.00     0.259 C 
HETATM    2  N   UNL     1       4.514  27.312  56.505  1.00  0.00    -0.265 N 
HETATM    3  O   UNL     1       4.354  28.273  54.429  1.00  0.00    -0.269 OA
HETATM    4  H   UNL     1       4.399  27.379  57.516  1.00  0.00     0.190 HD
ENDROOT
BRANCH   1   5
HETATM    5  C   UNL     1       3.780  29.632  56.357  1.00  0.00     0.272 C 
BRANCH   5   6
HETATM    6  O   UNL     1       4.620  29.929  57.474  1.00  0.00    -0.373 OA
BRANCH   6   7
HETATM    7  C   UNL     1       4.696  31.328  57.735  1.00  0.00     0.271 C 
BRANCH   7   8
HETATM    8  C   UNL     1       4.644  31.732  59.216  1.00  0.00     0.245 C 
HETATM    9  N   UNL     1       5.899  31.989  59.736  1.00  0.00    -0.325 N 
HETATM   10  H   UNL     1       6.676  31.786  59.113  1.00  0.00     0.169 HD
HETATM   11  O   UNL     1       3.569  31.834  59.799  1.00  0.00    -0.271 OA
BRANCH   9  12
HETATM   12  C   UNL     1       6.217  32.482  61.018  1.00  0.00     0.036 A 
HETATM   13  C   UNL     1       5.763  33.702  61.520  1.00  0.00     0.053 A 
HETATM   14  C   UNL     1       6.152  34.136  62.794  1.00  0.00     0.042 A 
HETATM   15  C   UNL     1       6.996  33.354  63.595  1.00  0.00    -0.040 A 
HETATM   16 CL   UNL     1       5.567  35.669  63.339  1.00  0.00    -0.084 Cl
HETATM   17  C   UNL     1       7.440  33.801  64.960  1.00  0.00     0.050 C 
HETATM   18  C   UNL     1       7.443  32.127  63.090  1.00  0.00     0.011 A 
HETATM   19  C   UNL     1       7.059  31.697  61.814  1.00  0.00     0.030 A 
ENDBRANCH   9  12
ENDBRANCH   7   8
ENDBRANCH   6   7
ENDBRANCH   5   6
ENDBRANCH   1   5
BRANCH   2  20
HETATM   20  N   UNL     1       5.014  26.121  55.974  1.00  0.00    -0.262 N 
HETATM   21  C   UNL     1       6.352  25.822  56.126  1.00  0.00     0.286 C 
HETATM   22  O   UNL     1       7.106  26.529  56.795  1.00  0.00    -0.264 OA
HETATM   23  H   UNL     1       4.398  25.608  55.350  1.00  0.00     0.190 HD
BRANCH  21  24
HETATM   24  C   UNL     1       6.802  24.625  55.453  1.00  0.00     0.103 A 
HETATM   25  N   UNL     1       7.116  23.479  56.154  1.00  0.00    -0.351 N 
HETATM   26  H   UNL     1       7.058  23.404  57.161  1.00  0.00     0.166 HD
HETATM   27  C   UNL     1       7.503  22.468  55.307  1.00  0.00     0.043 A 
HETATM   28  C   UNL     1       7.448  22.980  54.013  1.00  0.00    -0.007 A 
HETATM   29  C   UNL     1       7.892  21.152  55.584  1.00  0.00     0.030 A 
HETATM   30  C   UNL     1       7.012  24.331  54.115  1.00  0.00     0.049 A 
HETATM   31  C   UNL     1       7.799  22.143  52.936  1.00  0.00     0.014 A 
HETATM   32  C   UNL     1       8.190  20.824  53.194  1.00  0.00     0.001 A 
HETATM   33  C   UNL     1       8.234  20.339  54.499  1.00  0.00     0.002 A 
ENDBRANCH  21  24
ENDBRANCH   2  20
TORSDOF 7
ENDMDL
MODEL 6
REMARK VINA RESULT:      -9.5      3.364     11.168
REMARK  7 active torsions:
REMARK  status: ('A' for Active; 'I' for Inactive)
REMARK    1  A    between atoms: C_6  and  N_7 
REMARK       I    between atoms: N_7  and  C_8 
REMARK    2  A    between atoms: C_8  and  C_9 
REMARK    3  A    between atoms: C_9  and  O_10 
REMARK    4  A    between atoms: O_10  and  C_11 
REMARK    5  A    between atoms: C_11  and  C_12 
REMARK       I    between atoms: C_12  and  N_13 
REMARK    6  A    between atoms: N_13  and  N_14 
REMARK       I    between atoms: N_14  and  C_15 
REMARK    7  A    between atoms: C_15  and  C_16 
ROOT
HETATM    1  C   UNL     1       4.833  28.473  53.619  1.00  0.00     0.259 C 
HETATM    2  N   UNL     1       4.462  27.432  54.443  1.00  0.00    -0.265 N 
HETATM    3  O   UNL     1       5.626  28.339  52.688  1.00  0.00    -0.269 OA
HETATM    4  H   UNL     1       3.803  27.545  55.213  1.00  0.00     0.190 HD
ENDROOT
BRANCH   1   5
HETATM    5  C   UNL     1       4.233  29.821  54.012  1.00  0.00     0.272 C 
BRANCH   5   6
HETATM    6  O   UNL     1       4.154  29.968  55.432  1.00  0.00    -0.373 OA
BRANCH   6   7
HETATM    7  C   UNL     1       5.234  30.735  55.955  1.00  0.00     0.271 C 
BRANCH   7   8
HETATM    8  C   UNL     1       5.405  30.688  57.481  1.00  0.00     0.245 C 
HETATM    9  N   UNL     1       6.566  31.313  57.900  1.00  0.00    -0.325 N 
HETATM   10  H   UNL     1       7.183  31.625  57.154  1.00  0.00     0.169 HD
HETATM   11  O   UNL     1       4.548  30.173  58.191  1.00  0.00    -0.271 OA
BRANCH   9  12
HETATM   12  C   UNL     1       6.988  31.552  59.223  1.00  0.00     0.036 A 
HETATM   13  C   UNL     1       7.984  30.818  59.869  1.00  0.00     0.053 A 
HETATM   14  C   UNL     1       8.322  31.096  61.200  1.00  0.00     0.042 A 
HETATM   15  C   UNL     1       7.679  32.121  61.908  1.00  0.00    -0.040 A 
HETATM   16 CL   UNL     1       9.550  30.129  61.940  1.00  0.00    -0.084 Cl
HETATM   17  C   UNL     1       8.014  32.432  63.340  1.00  0.00     0.050 C 
HETATM   18  C   UNL     1       6.686  32.860  61.252  1.00  0.00     0.011 A 
HETATM   19  C   UNL     1       6.344  32.576  59.926  1.00  0.00     0.030 A 
ENDBRANCH   9  12
ENDBRANCH   7   8
ENDBRANCH   6   7
ENDBRANCH   5   6
ENDBRANCH   1   5
BRANCH   2  20
HETATM   20  N   UNL     1       5.024  26.171  54.234  1.00  0.00    -0.262 N 
HETATM   21  C   UNL     1       5.995  25.712  55.100  1.00  0.00     0.286 C 
HETATM   22  O   UNL     1       6.320  26.341  56.107  1.00  0.00    -0.264 OA
HETATM   23  H   UNL     1       4.810  25.719  53.350  1.00  0.00     0.190 HD
BRANCH  21  24
HETATM   24  C   UNL     1       6.596  24.446  54.745  1.00  0.00     0.103 A 
HETATM   25  N   UNL     1       6.966  23.529  55.708  1.00  0.00    -0.351 N 
HETATM   26  H   UNL     1       6.847  23.681  56.701  1.00  0.00     0.166 HD
HETATM   27  C   UNL     1       7.499  22.398  55.138  1.00  0.00     0.043 A 
HETATM   28  C   UNL     1       7.484  22.593  53.760  1.00  0.00    -0.007 A 
HETATM   29  C   UNL     1       7.987  21.228  55.731  1.00  0.00     0.030 A 
HETATM   30  C   UNL     1       6.920  23.878  53.524  1.00  0.00     0.049 A 
HETATM   31  C   UNL     1       7.981  21.574  52.925  1.00  0.00     0.014 A 
HETATM   32  C   UNL     1       8.472  20.396  53.500  1.00  0.00     0.001 A 
HETATM   33  C   UNL     1       8.473  20.228  54.883  1.00  0.00     0.002 A 
ENDBRANCH  21  24
ENDBRANCH   2  20
TORSDOF 7
ENDMDL
MODEL 7
REMARK VINA RESULT:      -9.3      2.819      4.496
REMARK  7 active torsions:
REMARK  status: ('A' for Active; 'I' for Inactive)
REMARK    1  A    between atoms: C_6  and  N_7 
REMARK       I    between atoms: N_7  and  C_8 
REMARK    2  A    between atoms: C_8  and  C_9 
REMARK    3  A    between atoms: C_9  and  O_10 
REMARK    4  A    between atoms: O_10  and  C_11 
REMARK    5  A    between atoms: C_11  and  C_12 
REMARK       I    between atoms: C_12  and  N_13 
REMARK    6  A    between atoms: N_13  and  N_14 
REMARK       I    between atoms: N_14  and  C_15 
REMARK    7  A    between atoms: C_15  and  C_16 
ROOT
HETATM    1  C   UNL     1       4.688  28.319  54.872  1.00  0.00     0.259 C 
HETATM    2  N   UNL     1       5.693  27.846  55.688  1.00  0.00    -0.265 N 
HETATM    3  O   UNL     1       4.108  29.385  55.075  1.00  0.00    -0.269 OA
HETATM    4  H   UNL     1       6.174  26.963  55.517  1.00  0.00     0.190 HD
ENDROOT
BRANCH   1   5
HETATM    5  C   UNL     1       4.307  27.367  53.740  1.00  0.00     0.272 C 
BRANCH   5   6
HETATM    6  O   UNL     1       4.699  27.881  52.466  1.00  0.00    -0.373 OA
BRANCH   6   7
HETATM    7  C   UNL     1       5.748  27.117  51.875  1.00  0.00     0.271 C 
BRANCH   7   8
HETATM    8  C   UNL     1       5.799  25.636  52.277  1.00  0.00     0.245 C 
HETATM    9  N   UNL     1       6.931  25.329  53.010  1.00  0.00    -0.325 N 
HETATM   10  H   UNL     1       7.608  26.082  53.099  1.00  0.00     0.169 HD
HETATM   11  O   UNL     1       4.884  24.875  51.980  1.00  0.00    -0.271 OA
BRANCH   9  12
HETATM   12  C   UNL     1       7.252  24.103  53.629  1.00  0.00     0.036 A 
HETATM   13  C   UNL     1       7.655  22.961  52.935  1.00  0.00     0.053 A 
HETATM   14  C   UNL     1       7.924  21.770  53.623  1.00  0.00     0.042 A 
HETATM   15  C   UNL     1       7.805  21.701  55.018  1.00  0.00    -0.040 A 
HETATM   16 CL   UNL     1       8.396  20.390  52.693  1.00  0.00    -0.084 Cl
HETATM   17  C   UNL     1       8.074  20.432  55.779  1.00  0.00     0.050 C 
HETATM   18  C   UNL     1       7.408  22.852  55.709  1.00  0.00     0.011 A 
HETATM   19  C   UNL     1       7.133  24.039  55.021  1.00  0.00     0.030 A 
ENDBRANCH   9  12
ENDBRANCH   7   8
ENDBRANCH   6   7
ENDBRANCH   5   6
ENDBRANCH   1   5
BRANCH   2  20
HETATM   20  N   UNL     1       6.060  28.591  56.810  1.00  0.00    -0.262 N 
HETATM   21  C   UNL     1       7.232  29.318  56.785  1.00  0.00     0.286 C 
HETATM   22  O   UNL     1       7.924  29.405  55.771  1.00  0.00    -0.264 OA
HETATM   23  H   UNL     1       5.527  28.427  57.659  1.00  0.00     0.190 HD
BRANCH  21  24
HETATM   24  C   UNL     1       7.586  29.971  58.026  1.00  0.00     0.103 A 
HETATM   25  N   UNL     1       6.753  30.901  58.613  1.00  0.00    -0.351 N 
HETATM   26  H   UNL     1       5.864  31.184  58.222  1.00  0.00     0.166 HD
HETATM   27  C   UNL     1       7.286  31.374  59.788  1.00  0.00     0.043 A 
HETATM   28  C   UNL     1       8.512  30.736  59.963  1.00  0.00    -0.007 A 
HETATM   29  C   UNL     1       6.783  32.307  60.702  1.00  0.00     0.030 A 
HETATM   30  C   UNL     1       8.691  29.862  58.854  1.00  0.00     0.049 A 
HETATM   31  C   UNL     1       9.279  31.040  61.104  1.00  0.00     0.014 A 
HETATM   32  C   UNL     1       8.791  31.970  62.029  1.00  0.00     0.001 A 
HETATM   33  C   UNL     1       7.561  32.592  61.829  1.00  0.00     0.002 A 
ENDBRANCH  21  24
ENDBRANCH   2  20
TORSDOF 7
ENDMDL
MODEL 8
REMARK VINA RESULT:      -9.1      3.655     11.998
REMARK  7 active torsions:
REMARK  status: ('A' for Active; 'I' for Inactive)
REMARK    1  A    between atoms: C_6  and  N_7 
REMARK       I    between atoms: N_7  and  C_8 
REMARK    2  A    between atoms: C_8  and  C_9 
REMARK    3  A    between atoms: C_9  and  O_10 
REMARK    4  A    between atoms: O_10  and  C_11 
REMARK    5  A    between atoms: C_11  and  C_12 
REMARK       I    between atoms: C_12  and  N_13 
REMARK    6  A    between atoms: N_13  and  N_14 
REMARK       I    between atoms: N_14  and  C_15 
REMARK    7  A    between atoms: C_15  and  C_16 
ROOT
HETATM    1  C   UNL     1       9.063  29.736  57.976  1.00  0.00     0.259 C 
HETATM    2  N   UNL     1       7.993  28.866  57.962  1.00  0.00    -0.265 N 
HETATM    3  O   UNL     1       9.964  29.700  57.139  1.00  0.00    -0.269 OA
HETATM    4  H   UNL     1       7.246  28.899  58.656  1.00  0.00     0.190 HD
ENDROOT
BRANCH   1   5
HETATM    5  C   UNL     1       9.069  30.695  59.164  1.00  0.00     0.272 C 
BRANCH   5   6
HETATM    6  O   UNL     1       7.779  30.787  59.772  1.00  0.00    -0.373 OA
BRANCH   6   7
HETATM    7  C   UNL     1       7.224  32.096  59.665  1.00  0.00     0.271 C 
BRANCH   7   8
HETATM    8  C   UNL     1       6.346  32.544  60.842  1.00  0.00     0.245 C 
HETATM    9  N   UNL     1       7.079  32.748  61.998  1.00  0.00    -0.325 N 
HETATM   10  H   UNL     1       8.060  32.485  61.940  1.00  0.00     0.169 HD
HETATM   11  O   UNL     1       5.141  32.721  60.693  1.00  0.00    -0.271 OA
BRANCH   9  12
HETATM   12  C   UNL     1       6.624  33.259  63.230  1.00  0.00     0.036 A 
HETATM   13  C   UNL     1       5.384  33.874  63.409  1.00  0.00     0.053 A 
HETATM   14  C   UNL     1       5.019  34.387  64.660  1.00  0.00     0.042 A 
HETATM   15  C   UNL     1       5.882  34.286  65.760  1.00  0.00    -0.040 A 
HETATM   16 CL   UNL     1       3.475  35.155  64.800  1.00  0.00    -0.084 Cl
HETATM   17  C   UNL     1       5.521  34.839  67.111  1.00  0.00     0.050 C 
HETATM   18  C   UNL     1       7.122  33.661  65.577  1.00  0.00     0.011 A 
HETATM   19  C   UNL     1       7.489  33.155  64.325  1.00  0.00     0.030 A 
ENDBRANCH   9  12
ENDBRANCH   7   8
ENDBRANCH   6   7
ENDBRANCH   5   6
ENDBRANCH   1   5
BRANCH   2  20
HETATM   20  N   UNL     1       7.933  27.883  56.973  1.00  0.00    -0.262 N 
HETATM   21  C   UNL     1       7.820  26.559  57.342  1.00  0.00     0.286 C 
HETATM   22  O   UNL     1       7.679  26.220  58.517  1.00  0.00    -0.264 OA
HETATM   23  H   UNL     1       8.147  28.179  56.024  1.00  0.00     0.190 HD
BRANCH  21  24
HETATM   24  C   UNL     1       7.875  25.604  56.257  1.00  0.00     0.103 A 
HETATM   25  N   UNL     1       8.359  24.326  56.447  1.00  0.00    -0.351 N 
HETATM   26  H   UNL     1       8.703  23.982  57.334  1.00  0.00     0.166 HD
HETATM   27  C   UNL     1       8.300  23.595  55.284  1.00  0.00     0.043 A 
HETATM   28  C   UNL     1       7.769  24.432  54.306  1.00  0.00    -0.007 A 
HETATM   29  C   UNL     1       8.670  22.270  55.027  1.00  0.00     0.030 A 
HETATM   30  C   UNL     1       7.510  25.687  54.923  1.00  0.00     0.049 A 
HETATM   31  C   UNL     1       7.598  23.928  53.002  1.00  0.00     0.014 A 
HETATM   32  C   UNL     1       7.962  22.605  52.726  1.00  0.00     0.001 A 
HETATM   33  C   UNL     1       8.489  21.791  53.726  1.00  0.00     0.002 A 
ENDBRANCH  21  24
ENDBRANCH   2  20
TORSDOF 7
ENDMDL
MODEL 9
REMARK VINA RESULT:      -8.8      2.453      2.881
REMARK  7 active torsions:
REMARK  status: ('A' for Active; 'I' for Inactive)
REMARK    1  A    between atoms: C_6  and  N_7 
REMARK       I    between atoms: N_7  and  C_8 
REMARK    2  A    between atoms: C_8  and  C_9 
REMARK    3  A    between atoms: C_9  and  O_10 
REMARK    4  A    between atoms: O_10  and  C_11 
REMARK    5  A    between atoms: C_11  and  C_12 
REMARK       I    between atoms: C_12  and  N_13 
REMARK    6  A    between atoms: N_13  and  N_14 
REMARK       I    between atoms: N_14  and  C_15 
REMARK    7  A    between atoms: C_15  and  C_16 
ROOT
HETATM    1  C   UNL     1       4.088  30.474  57.154  1.00  0.00     0.259 C 
HETATM    2  N   UNL     1       3.775  31.710  57.679  1.00  0.00    -0.265 N 
HETATM    3  O   UNL     1       4.720  29.623  57.778  1.00  0.00    -0.269 OA
HETATM    4  H   UNL     1       3.249  32.414  57.160  1.00  0.00     0.190 HD
ENDROOT
BRANCH   1   5
HETATM    5  C   UNL     1       3.648  30.286  55.703  1.00  0.00     0.272 C 
BRANCH   5   6
HETATM    6  O   UNL     1       4.652  29.624  54.931  1.00  0.00    -0.373 OA
BRANCH   6   7
HETATM    7  C   UNL     1       4.340  28.252  54.706  1.00  0.00     0.271 C 
BRANCH   7   8
HETATM    8  C   UNL     1       5.496  27.264  54.921  1.00  0.00     0.245 C 
HETATM    9  N   UNL     1       5.249  26.031  54.344  1.00  0.00    -0.325 N 
HETATM   10  H   UNL     1       4.318  25.916  53.951  1.00  0.00     0.169 HD
HETATM   11  O   UNL     1       6.513  27.609  55.514  1.00  0.00    -0.271 OA
BRANCH   9  12
HETATM   12  C   UNL     1       6.124  24.930  54.253  1.00  0.00     0.036 A 
HETATM   13  C   UNL     1       6.655  24.261  55.357  1.00  0.00     0.053 A 
HETATM   14  C   UNL     1       7.546  23.195  55.181  1.00  0.00     0.042 A 
HETATM   15  C   UNL     1       7.917  22.770  53.898  1.00  0.00    -0.040 A 
HETATM   16 CL   UNL     1       8.181  22.430  56.597  1.00  0.00    -0.084 Cl
HETATM   17  C   UNL     1       8.881  21.637  53.681  1.00  0.00     0.050 C 
HETATM   18  C   UNL     1       7.375  23.438  52.793  1.00  0.00     0.011 A 
HETATM   19  C   UNL     1       6.490  24.508  52.970  1.00  0.00     0.030 A 
ENDBRANCH   9  12
ENDBRANCH   7   8
ENDBRANCH   6   7
ENDBRANCH   5   6
ENDBRANCH   1   5
BRANCH   2  20
HETATM   20  N   UNL     1       4.210  32.027  58.967  1.00  0.00    -0.262 N 
HETATM   21  C   UNL     1       5.475  32.548  59.144  1.00  0.00     0.286 C 
HETATM   22  O   UNL     1       6.203  32.828  58.191  1.00  0.00    -0.264 OA
HETATM   23  H   UNL     1       3.632  31.700  59.736  1.00  0.00     0.190 HD
BRANCH  21  24
HETATM   24  C   UNL     1       5.881  32.745  60.518  1.00  0.00     0.103 A 
HETATM   25  N   UNL     1       4.984  33.157  61.481  1.00  0.00    -0.351 N 
HETATM   26  H   UNL     1       4.008  33.349  61.294  1.00  0.00     0.166 HD
HETATM   27  C   UNL     1       5.588  33.260  62.711  1.00  0.00     0.043 A 
HETATM   28  C   UNL     1       6.925  32.913  62.536  1.00  0.00    -0.007 A 
HETATM   29  C   UNL     1       5.059  33.628  63.953  1.00  0.00     0.030 A 
HETATM   30  C   UNL     1       7.099  32.595  61.160  1.00  0.00     0.049 A 
HETATM   31  C   UNL     1       7.783  32.933  63.652  1.00  0.00     0.014 A 
HETATM   32  C   UNL     1       7.272  33.298  64.903  1.00  0.00     0.001 A 
HETATM   33  C   UNL     1       5.929  33.640  65.048  1.00  0.00     0.002 A 
ENDBRANCH  21  24
ENDBRANCH   2  20
TORSDOF 7
ENDMDL
MODEL 10
REMARK VINA RESULT:      -8.5      6.289     10.216
REMARK  7 active torsions:
REMARK  status: ('A' for Active; 'I' for Inactive)
REMARK    1  A    between atoms: C_6  and  N_7 
REMARK       I    between atoms: N_7  and  C_8 
REMARK    2  A    between atoms: C_8  and  C_9 
REMARK    3  A    between atoms: C_9  and  O_10 
REMARK    4  A    between atoms: O_10  and  C_11 
REMARK    5  A    between atoms: C_11  and  C_12 
REMARK       I    between atoms: C_12  and  N_13 
REMARK    6  A    between atoms: N_13  and  N_14 
REMARK       I    between atoms: N_14  and  C_15 
REMARK    7  A    between atoms: C_15  and  C_16 
ROOT
HETATM    1  C   UNL     1       5.002  28.674  55.927  1.00  0.00     0.259 C 
HETATM    2  N   UNL     1       6.034  28.341  55.075  1.00  0.00    -0.265 N 
HETATM    3  O   UNL     1       4.261  27.837  56.439  1.00  0.00    -0.269 OA
HETATM    4  H   UNL     1       6.648  29.037  54.653  1.00  0.00     0.190 HD
ENDROOT
BRANCH   1   5
HETATM    5  C   UNL     1       4.815  30.178  56.116  1.00  0.00     0.272 C 
BRANCH   5   6
HETATM    6  O   UNL     1       5.005  30.890  54.892  1.00  0.00    -0.373 OA
BRANCH   6   7
HETATM    7  C   UNL     1       3.800  30.999  54.138  1.00  0.00     0.271 C 
BRANCH   7   8
HETATM    8  C   UNL     1       3.900  30.589  52.662  1.00  0.00     0.245 C 
HETATM    9  N   UNL     1       3.899  29.215  52.497  1.00  0.00    -0.325 N 
HETATM   10  H   UNL     1       3.931  28.675  53.358  1.00  0.00     0.169 HD
HETATM   11  O   UNL     1       3.933  31.438  51.777  1.00  0.00    -0.271 OA
BRANCH   9  12
HETATM   12  C   UNL     1       3.871  28.492  51.287  1.00  0.00     0.036 A 
HETATM   13  C   UNL     1       2.965  28.734  50.254  1.00  0.00     0.053 A 
HETATM   14  C   UNL     1       2.982  27.947  49.095  1.00  0.00     0.042 A 
HETATM   15  C   UNL     1       3.912  26.909  48.942  1.00  0.00    -0.040 A 
HETATM   16 CL   UNL     1       1.813  28.291  47.867  1.00  0.00    -0.084 Cl
HETATM   17  C   UNL     1       3.943  26.041  47.714  1.00  0.00     0.050 C 
HETATM   18  C   UNL     1       4.824  26.676  49.978  1.00  0.00     0.011 A 
HETATM   19  C   UNL     1       4.802  27.458  51.138  1.00  0.00     0.030 A 
ENDBRANCH   9  12
ENDBRANCH   7   8
ENDBRANCH   6   7
ENDBRANCH   5   6
ENDBRANCH   1   5
BRANCH   2  20
HETATM   20  N   UNL     1       6.239  26.997  54.755  1.00  0.00    -0.262 N 
HETATM   21  C   UNL     1       7.217  26.286  55.419  1.00  0.00     0.286 C 
HETATM   22  O   UNL     1       7.857  26.772  56.351  1.00  0.00    -0.264 OA
HETATM   23  H   UNL     1       5.768  26.651  53.924  1.00  0.00     0.190 HD
BRANCH  21  24
HETATM   24  C   UNL     1       7.432  24.936  54.948  1.00  0.00     0.103 A 
HETATM   25  N   UNL     1       7.486  23.869  55.821  1.00  0.00    -0.351 N 
HETATM   26  H   UNL     1       7.386  23.959  56.824  1.00  0.00     0.166 HD
HETATM   27  C   UNL     1       7.682  22.686  55.149  1.00  0.00     0.043 A 
HETATM   28  C   UNL     1       7.768  22.999  53.795  1.00  0.00    -0.007 A 
HETATM   29  C   UNL     1       7.787  21.377  55.630  1.00  0.00     0.030 A 
HETATM   30  C   UNL     1       7.613  24.409  53.679  1.00  0.00     0.049 A 
HETATM   31  C   UNL     1       7.970  21.958  52.869  1.00  0.00     0.014 A 
HETATM   32  C   UNL     1       8.077  20.641  53.332  1.00  0.00     0.001 A 
HETATM   33  C   UNL     1       7.986  20.358  54.693  1.00  0.00     0.002 A 
ENDBRANCH  21  24
ENDBRANCH   2  20
TORSDOF 7
ENDMDL
