MODEL 1
REMARK VINA RESULT:     -10.6      0.000      0.000
REMARK  8 active torsions:
REMARK  status: ('A' for Active; 'I' for Inactive)
REMARK    1  A    between atoms: C_8  and  C_9 
REMARK    2  A    between atoms: C_9  and  C_10 
REMARK       I    between atoms: C_10  and  N_11 
REMARK    3  A    between atoms: N_11  and  C_12 
REMARK    4  A    between atoms: N_11  and  C_27 
REMARK    5  A    between atoms: C_12  and  C_13 
REMARK    6  A    between atoms: C_12  and  C_22 
REMARK       I    between atoms: C_13  and  N_14 
REMARK    7  A    between atoms: N_14  and  C_15 
REMARK    8  A    between atoms: C_27  and  C_28 
ROOT
HETATM    1  C   UNL     1       8.319  26.116  57.377  1.00  0.00     0.225 C 
HETATM    2  N   UNL     1       8.200  27.441  56.942  1.00  0.00    -0.330 N 
HETATM    3  O   UNL     1       7.820  25.732  58.439  1.00  0.00    -0.273 OA
ENDROOT
BRANCH   2   4
HETATM    4  C   UNL     1       7.458  28.377  57.818  1.00  0.00     0.219 C 
BRANCH   4   5
HETATM    5  C   UNL     1       8.391  29.464  58.422  1.00  0.00     0.246 C 
HETATM    6  N   UNL     1       7.924  30.142  59.531  1.00  0.00    -0.354 N 
HETATM    7  H   UNL     1       6.907  30.175  59.573  1.00  0.00     0.162 HD
HETATM    8  O   UNL     1       9.453  29.756  57.865  1.00  0.00    -0.271 OA
BRANCH   6   9
HETATM    9  C   UNL     1       8.619  31.294  60.101  1.00  0.00     0.084 C 
HETATM   10  C   UNL     1       7.619  32.430  60.377  1.00  0.00     0.025 C 
HETATM   11  C   UNL     1       6.697  32.129  61.561  1.00  0.00     0.002 C 
HETATM   12  C   UNL     1       7.490  31.787  62.818  1.00  0.00     0.000 C 
HETATM   13  C   UNL     1       8.475  30.651  62.568  1.00  0.00     0.002 C 
HETATM   14  C   UNL     1       9.394  30.959  61.388  1.00  0.00     0.025 C 
ENDBRANCH   6   9
ENDBRANCH   4   5
BRANCH   4  15
HETATM   15  C   UNL     1       6.171  28.902  57.192  1.00  0.00     0.014 A 
HETATM   16  S   UNL     1       6.188  30.464  56.454  1.00  0.00    -0.104 SA
HETATM   17  C   UNL     1       4.537  30.368  56.030  1.00  0.00     0.050 A 
HETATM   18  C   UNL     1       3.963  29.195  56.456  1.00  0.00     0.008 A 
HETATM   19  C   UNL     1       4.896  28.360  57.136  1.00  0.00     0.017 A 
ENDBRANCH   4  15
ENDBRANCH   2   4
BRANCH   2  20
HETATM   20  C   UNL     1       8.203  27.753  55.509  1.00  0.00     0.165 C 
BRANCH  20  21
HETATM   21  C   UNL     1       7.182  26.995  54.693  1.00  0.00    -0.037 A 
HETATM   22  C   UNL     1       7.094  27.197  53.306  1.00  0.00     0.048 A 
HETATM   23  C   UNL     1       6.186  26.438  52.598  1.00  0.00     0.105 A 
HETATM   24  C   UNL     1       5.372  25.516  53.214  1.00  0.00     0.105 A 
HETATM   25  O   UNL     1       5.992  26.483  51.252  1.00  0.00    -0.323 OA
HETATM   26  O   UNL     1       4.563  24.868  52.335  1.00  0.00    -0.323 OA
HETATM   27  C   UNL     1       5.417  25.302  54.574  1.00  0.00     0.040 A 
HETATM   28  C   UNL     1       4.980  25.468  51.091  1.00  0.00     0.352 A 
HETATM   29  C   UNL     1       6.335  26.048  55.317  1.00  0.00     0.012 A 
ENDBRANCH  20  21
ENDBRANCH   2  20
BRANCH   1  30
HETATM   30  C   UNL     1       9.201  25.165  56.582  1.00  0.00     0.144 C 
BRANCH  30  31
HETATM   31  C   UNL     1       8.723  23.754  56.411  1.00  0.00    -0.021 A 
HETATM   32  C   UNL     1       8.403  23.018  55.219  1.00  0.00    -0.001 A 
HETATM   33  C   UNL     1       8.389  23.310  53.838  1.00  0.00     0.014 A 
HETATM   34  C   UNL     1       8.063  21.719  55.612  1.00  0.00     0.042 A 
HETATM   35  C   UNL     1       8.075  22.304  52.916  1.00  0.00     0.001 A 
HETATM   36  C   UNL     1       7.756  21.021  53.344  1.00  0.00     0.002 A 
HETATM   37  C   UNL     1       7.735  20.706  54.703  1.00  0.00     0.030 A 
HETATM   38  N   UNL     1       8.124  21.677  56.983  1.00  0.00    -0.365 N 
HETATM   39  H   UNL     1       7.913  20.860  57.540  1.00  0.00     0.165 HD
HETATM   40  C   UNL     1       8.521  22.887  57.473  1.00  0.00     0.097 A 
ENDBRANCH  30  31
ENDBRANCH   1  30
TORSDOF 8
ENDMDL
MODEL 2
REMARK VINA RESULT:     -10.5      2.467      5.623
REMARK  8 active torsions:
REMARK  status: ('A' for Active; 'I' for Inactive)
REMARK    1  A    between atoms: C_8  and  C_9 
REMARK    2  A    between atoms: C_9  and  C_10 
REMARK       I    between atoms: C_10  and  N_11 
REMARK    3  A    between atoms: N_11  and  C_12 
REMARK    4  A    between atoms: N_11  and  C_27 
REMARK    5  A    between atoms: C_12  and  C_13 
REMARK    6  A    between atoms: C_12  and  C_22 
REMARK       I    between atoms: C_13  and  N_14 
REMARK    7  A    between atoms: N_14  and  C_15 
REMARK    8  A    between atoms: C_27  and  C_28 
ROOT
HETATM    1  C   UNL     1       6.579  25.939  54.802  1.00  0.00     0.225 C 
HETATM    2  N   UNL     1       6.414  27.310  54.571  1.00  0.00    -0.330 N 
HETATM    3  O   UNL     1       5.668  25.130  54.593  1.00  0.00    -0.273 OA
ENDROOT
BRANCH   2   4
HETATM    4  C   UNL     1       5.093  27.760  54.076  1.00  0.00     0.219 C 
BRANCH   4   5
HETATM    5  C   UNL     1       4.395  28.714  55.086  1.00  0.00     0.246 C 
HETATM    6  N   UNL     1       4.515  30.070  54.848  1.00  0.00    -0.354 N 
HETATM    7  H   UNL     1       5.359  30.305  54.329  1.00  0.00     0.162 HD
HETATM    8  O   UNL     1       3.845  28.265  56.095  1.00  0.00    -0.271 OA
BRANCH   6   9
HETATM    9  C   UNL     1       4.053  31.080  55.797  1.00  0.00     0.084 C 
HETATM   10  C   UNL     1       4.962  32.319  55.733  1.00  0.00     0.025 C 
HETATM   11  C   UNL     1       4.768  33.128  54.449  1.00  0.00     0.002 C 
HETATM   12  C   UNL     1       3.308  33.516  54.243  1.00  0.00     0.000 C 
HETATM   13  C   UNL     1       2.392  32.298  54.287  1.00  0.00     0.002 C 
HETATM   14  C   UNL     1       2.588  31.497  55.572  1.00  0.00     0.025 C 
ENDBRANCH   6   9
ENDBRANCH   4   5
BRANCH   4  15
HETATM   15  C   UNL     1       5.121  28.249  52.633  1.00  0.00     0.014 A 
HETATM   16  S   UNL     1       5.325  27.087  51.370  1.00  0.00    -0.104 SA
HETATM   17  C   UNL     1       5.272  28.285  50.154  1.00  0.00     0.050 A 
HETATM   18  C   UNL     1       5.131  29.547  50.679  1.00  0.00     0.008 A 
HETATM   19  C   UNL     1       5.060  29.528  52.102  1.00  0.00     0.017 A 
ENDBRANCH   4  15
ENDBRANCH   2   4
BRANCH   2  20
HETATM   20  C   UNL     1       7.565  28.141  54.205  1.00  0.00     0.165 C 
BRANCH  20  21
HETATM   21  C   UNL     1       8.241  28.835  55.365  1.00  0.00    -0.037 A 
HETATM   22  C   UNL     1       7.538  29.066  56.558  1.00  0.00     0.048 A 
HETATM   23  C   UNL     1       8.218  29.649  57.607  1.00  0.00     0.105 A 
HETATM   24  C   UNL     1       9.539  30.013  57.504  1.00  0.00     0.105 A 
HETATM   25  O   UNL     1       7.701  29.916  58.837  1.00  0.00    -0.323 OA
HETATM   26  O   UNL     1      10.020  30.557  58.653  1.00  0.00    -0.323 OA
HETATM   27  C   UNL     1      10.259  29.818  56.345  1.00  0.00     0.040 A 
HETATM   28  C   UNL     1       8.856  30.468  59.501  1.00  0.00     0.352 A 
HETATM   29  C   UNL     1       9.600  29.219  55.268  1.00  0.00     0.012 A 
ENDBRANCH  20  21
ENDBRANCH   2  20
BRANCH   1  30
HETATM   30  C   UNL     1       7.867  25.459  55.453  1.00  0.00     0.144 C 
BRANCH  30  31
HETATM   31  C   UNL     1       8.009  23.988  55.709  1.00  0.00    -0.021 A 
HETATM   32  C   UNL     1       8.022  22.881  54.793  1.00  0.00    -0.001 A 
HETATM   33  C   UNL     1       7.895  22.741  53.394  1.00  0.00     0.014 A 
HETATM   34  C   UNL     1       8.243  21.723  55.545  1.00  0.00     0.042 A 
HETATM   35  C   UNL     1       8.024  21.476  52.805  1.00  0.00     0.001 A 
HETATM   36  C   UNL     1       8.256  20.349  53.585  1.00  0.00     0.002 A 
HETATM   37  C   UNL     1       8.361  20.450  54.973  1.00  0.00     0.030 A 
HETATM   38  N   UNL     1       8.310  22.097  56.864  1.00  0.00    -0.365 N 
HETATM   39  H   UNL     1       8.451  21.457  57.634  1.00  0.00     0.165 HD
HETATM   40  C   UNL     1       8.175  23.451  56.975  1.00  0.00     0.097 A 
ENDBRANCH  30  31
ENDBRANCH   1  30
TORSDOF 8
ENDMDL
MODEL 3
REMARK VINA RESULT:     -10.3      3.040      4.793
REMARK  8 active torsions:
REMARK  status: ('A' for Active; 'I' for Inactive)
REMARK    1  A    between atoms: C_8  and  C_9 
REMARK    2  A    between atoms: C_9  and  C_10 
REMARK       I    between atoms: C_10  and  N_11 
REMARK    3  A    between atoms: N_11  and  C_12 
REMARK    4  A    between atoms: N_11  and  C_27 
REMARK    5  A    between atoms: C_12  and  C_13 
REMARK    6  A    between atoms: C_12  and  C_22 
REMARK       I    between atoms: C_13  and  N_14 
REMARK    7  A    between atoms: N_14  and  C_15 
REMARK    8  A    between atoms: C_27  and  C_28 
ROOT
HETATM    1  C   UNL     1       5.368  25.617  53.136  1.00  0.00     0.225 C 
HETATM    2  N   UNL     1       5.374  27.014  53.047  1.00  0.00    -0.330 N 
HETATM    3  O   UNL     1       4.433  25.003  53.660  1.00  0.00    -0.273 OA
ENDROOT
BRANCH   2   4
HETATM    4  C   UNL     1       4.215  27.735  53.623  1.00  0.00     0.219 C 
BRANCH   4   5
HETATM    5  C   UNL     1       4.483  28.179  55.088  1.00  0.00     0.246 C 
HETATM    6  N   UNL     1       5.747  27.940  55.592  1.00  0.00    -0.354 N 
HETATM    7  H   UNL     1       6.208  27.153  55.140  1.00  0.00     0.162 HD
HETATM    8  O   UNL     1       3.569  28.634  55.781  1.00  0.00    -0.271 OA
BRANCH   6   9
HETATM    9  C   UNL     1       6.089  28.154  56.996  1.00  0.00     0.084 C 
HETATM   10  C   UNL     1       7.085  27.080  57.466  1.00  0.00     0.025 C 
HETATM   11  C   UNL     1       8.483  27.272  56.873  1.00  0.00     0.002 C 
HETATM   12  C   UNL     1       9.024  28.671  57.150  1.00  0.00     0.000 C 
HETATM   13  C   UNL     1       8.057  29.750  56.675  1.00  0.00     0.002 C 
HETATM   14  C   UNL     1       6.665  29.555  57.273  1.00  0.00     0.025 C 
ENDBRANCH   6   9
ENDBRANCH   4   5
BRANCH   4  15
HETATM   15  C   UNL     1       3.661  28.819  52.706  1.00  0.00     0.014 A 
HETATM   16  S   UNL     1       4.293  30.422  52.846  1.00  0.00    -0.104 SA
HETATM   17  C   UNL     1       3.267  31.017  51.618  1.00  0.00     0.050 A 
HETATM   18  C   UNL     1       2.437  30.041  51.121  1.00  0.00     0.008 A 
HETATM   19  C   UNL     1       2.652  28.784  51.756  1.00  0.00     0.017 A 
ENDBRANCH   4  15
ENDBRANCH   2   4
BRANCH   2  20
HETATM   20  C   UNL     1       6.077  27.682  51.947  1.00  0.00     0.165 C 
BRANCH  20  21
HETATM   21  C   UNL     1       5.469  27.465  50.581  1.00  0.00    -0.037 A 
HETATM   22  C   UNL     1       4.760  26.287  50.302  1.00  0.00     0.048 A 
HETATM   23  C   UNL     1       4.174  26.163  49.059  1.00  0.00     0.105 A 
HETATM   24  C   UNL     1       4.280  27.146  48.105  1.00  0.00     0.105 A 
HETATM   25  O   UNL     1       3.430  25.106  48.634  1.00  0.00    -0.323 OA
HETATM   26  O   UNL     1       3.620  26.832  46.959  1.00  0.00    -0.323 OA
HETATM   27  C   UNL     1       4.982  28.310  48.335  1.00  0.00     0.040 A 
HETATM   28  C   UNL     1       3.062  25.549  47.312  1.00  0.00     0.352 A 
HETATM   29  C   UNL     1       5.577  28.469  49.589  1.00  0.00     0.012 A 
ENDBRANCH  20  21
ENDBRANCH   2  20
BRANCH   1  30
HETATM   30  C   UNL     1       6.608  24.853  52.695  1.00  0.00     0.144 C 
BRANCH  30  31
HETATM   31  C   UNL     1       7.335  24.053  53.733  1.00  0.00    -0.021 A 
HETATM   32  C   UNL     1       7.783  22.687  53.710  1.00  0.00    -0.001 A 
HETATM   33  C   UNL     1       7.706  21.627  52.781  1.00  0.00     0.014 A 
HETATM   34  C   UNL     1       8.463  22.453  54.909  1.00  0.00     0.042 A 
HETATM   35  C   UNL     1       8.327  20.404  53.066  1.00  0.00     0.001 A 
HETATM   36  C   UNL     1       9.005  20.212  54.264  1.00  0.00     0.002 A 
HETATM   37  C   UNL     1       9.078  21.233  55.214  1.00  0.00     0.030 A 
HETATM   38  N   UNL     1       8.390  23.604  55.653  1.00  0.00    -0.365 N 
HETATM   39  H   UNL     1       8.787  23.715  56.576  1.00  0.00     0.165 HD
HETATM   40  C   UNL     1       7.721  24.571  54.959  1.00  0.00     0.097 A 
ENDBRANCH  30  31
ENDBRANCH   1  30
TORSDOF 8
ENDMDL
MODEL 4
REMARK VINA RESULT:      -9.9      2.825      5.523
REMARK  8 active torsions:
REMARK  status: ('A' for Active; 'I' for Inactive)
REMARK    1  A    between atoms: C_8  and  C_9 
REMARK    2  A    between atoms: C_9  and  C_10 
REMARK       I    between atoms: C_10  and  N_11 
REMARK    3  A    between atoms: N_11  and  C_12 
REMARK    4  A    between atoms: N_11  and  C_27 
REMARK    5  A    between atoms: C_12  and  C_13 
REMARK    6  A    between atoms: C_12  and  C_22 
REMARK       I    between atoms: C_13  and  N_14 
REMARK    7  A    between atoms: N_14  and  C_15 
REMARK    8  A    between atoms: C_27  and  C_28 
ROOT
HETATM    1  C   UNL     1       5.654  25.786  53.843  1.00  0.00     0.225 C 
HETATM    2  N   UNL     1       5.793  27.157  53.592  1.00  0.00    -0.330 N 
HETATM    3  O   UNL     1       4.673  25.149  53.446  1.00  0.00    -0.273 OA
ENDROOT
BRANCH   2   4
HETATM    4  C   UNL     1       4.704  27.821  52.839  1.00  0.00     0.219 C 
BRANCH   4   5
HETATM    5  C   UNL     1       4.392  29.234  53.406  1.00  0.00     0.246 C 
HETATM    6  N   UNL     1       4.097  29.316  54.754  1.00  0.00    -0.354 N 
HETATM    7  H   UNL     1       3.704  28.452  55.123  1.00  0.00     0.162 HD
HETATM    8  O   UNL     1       4.322  30.209  52.653  1.00  0.00    -0.271 OA
BRANCH   6   9
HETATM    9  C   UNL     1       3.627  30.547  55.384  1.00  0.00     0.084 C 
HETATM   10  C   UNL     1       3.124  30.251  56.808  1.00  0.00     0.025 C 
HETATM   11  C   UNL     1       4.262  29.932  57.781  1.00  0.00     0.002 C 
HETATM   12  C   UNL     1       5.315  31.036  57.796  1.00  0.00     0.000 C 
HETATM   13  C   UNL     1       5.837  31.331  56.394  1.00  0.00     0.002 C 
HETATM   14  C   UNL     1       4.698  31.652  55.429  1.00  0.00     0.025 C 
ENDBRANCH   6   9
ENDBRANCH   4   5
BRANCH   4  15
HETATM   15  C   UNL     1       4.884  27.753  51.327  1.00  0.00     0.014 A 
HETATM   16  S   UNL     1       5.477  29.151  50.501  1.00  0.00    -0.104 SA
HETATM   17  C   UNL     1       5.403  28.380  48.980  1.00  0.00     0.050 A 
HETATM   18  C   UNL     1       4.916  27.099  49.074  1.00  0.00     0.008 A 
HETATM   19  C   UNL     1       4.604  26.745  50.419  1.00  0.00     0.017 A 
ENDBRANCH   4  15
ENDBRANCH   2   4
BRANCH   2  20
HETATM   20  C   UNL     1       7.126  27.756  53.475  1.00  0.00     0.165 C 
BRANCH  20  21
HETATM   21  C   UNL     1       7.743  28.191  54.784  1.00  0.00    -0.037 A 
HETATM   22  C   UNL     1       8.943  28.919  54.793  1.00  0.00     0.048 A 
HETATM   23  C   UNL     1       9.433  29.344  56.010  1.00  0.00     0.105 A 
HETATM   24  C   UNL     1       8.789  29.063  57.192  1.00  0.00     0.105 A 
HETATM   25  O   UNL     1      10.561  30.082  56.198  1.00  0.00    -0.323 OA
HETATM   26  O   UNL     1       9.430  29.584  58.271  1.00  0.00    -0.323 OA
HETATM   27  C   UNL     1       7.618  28.337  57.225  1.00  0.00     0.040 A 
HETATM   28  C   UNL     1      10.538  30.250  57.631  1.00  0.00     0.352 A 
HETATM   29  C   UNL     1       7.091  27.902  56.007  1.00  0.00     0.012 A 
ENDBRANCH  20  21
ENDBRANCH   2  20
BRANCH   1  30
HETATM   30  C   UNL     1       6.674  25.103  54.741  1.00  0.00     0.144 C 
BRANCH  30  31
HETATM   31  C   UNL     1       7.268  23.813  54.260  1.00  0.00    -0.021 A 
HETATM   32  C   UNL     1       7.760  22.683  54.999  1.00  0.00    -0.001 A 
HETATM   33  C   UNL     1       7.893  22.366  56.368  1.00  0.00     0.014 A 
HETATM   34  C   UNL     1       8.151  21.716  54.068  1.00  0.00     0.042 A 
HETATM   35  C   UNL     1       8.371  21.106  56.749  1.00  0.00     0.001 A 
HETATM   36  C   UNL     1       8.738  20.165  55.793  1.00  0.00     0.002 A 
HETATM   37  C   UNL     1       8.643  20.457  54.432  1.00  0.00     0.030 A 
HETATM   38  N   UNL     1       7.955  22.249  52.818  1.00  0.00    -0.365 N 
HETATM   39  H   UNL     1       8.166  21.771  51.952  1.00  0.00     0.165 HD
HETATM   40  C   UNL     1       7.423  23.502  52.919  1.00  0.00     0.097 A 
ENDBRANCH  30  31
ENDBRANCH   1  30
TORSDOF 8
ENDMDL
MODEL 5
REMARK VINA RESULT:      -9.5      2.647      6.619
REMARK  8 active torsions:
REMARK  status: ('A' for Active; 'I' for Inactive)
REMARK    1  A    between atoms: C_8  and  C_9 
REMARK    2  A    between atoms: C_9  and  C_10 
REMARK       I    between atoms: C_10  and  N_11 
REMARK    3  A    between atoms: N_11  and  C_12 
REMARK    4  A    between atoms: N_11  and  C_27 
REMARK    5  A    between atoms: C_12  and  C_13 
REMARK    6  A    between atoms: C_12  and  C_22 
REMARK       I    between atoms: C_13  and  N_14 
REMARK    7  A    between atoms: N_14  and  C_15 
REMARK    8  A    between atoms: C_27  and  C_28 
ROOT
HETATM    1  C   UNL     1       7.303  28.201  55.834  1.00  0.00     0.225 C 
HETATM    2  N   UNL     1       6.581  27.073  55.426  1.00  0.00    -0.330 N 
HETATM    3  O   UNL     1       6.854  29.344  55.699  1.00  0.00    -0.273 OA
ENDROOT
BRANCH   2   4
HETATM    4  C   UNL     1       5.255  27.303  54.808  1.00  0.00     0.219 C 
BRANCH   4   5
HETATM    5  C   UNL     1       4.340  28.171  55.717  1.00  0.00     0.246 C 
HETATM    6  N   UNL     1       3.994  29.422  55.242  1.00  0.00    -0.354 N 
HETATM    7  H   UNL     1       4.682  29.801  54.595  1.00  0.00     0.162 HD
HETATM    8  O   UNL     1       4.028  27.782  56.846  1.00  0.00    -0.271 OA
BRANCH   6   9
HETATM    9  C   UNL     1       3.279  30.403  56.054  1.00  0.00     0.084 C 
HETATM   10  C   UNL     1       4.228  31.012  57.101  1.00  0.00     0.025 C 
HETATM   11  C   UNL     1       5.260  31.958  56.483  1.00  0.00     0.002 C 
HETATM   12  C   UNL     1       4.595  33.051  55.652  1.00  0.00     0.000 C 
HETATM   13  C   UNL     1       3.663  32.465  54.597  1.00  0.00     0.002 C 
HETATM   14  C   UNL     1       2.633  31.525  55.222  1.00  0.00     0.025 C 
ENDBRANCH   6   9
ENDBRANCH   4   5
BRANCH   4  15
HETATM   15  C   UNL     1       5.334  27.748  53.353  1.00  0.00     0.014 A 
HETATM   16  S   UNL     1       5.045  26.579  52.114  1.00  0.00    -0.104 SA
HETATM   17  C   UNL     1       5.300  27.719  50.869  1.00  0.00     0.050 A 
HETATM   18  C   UNL     1       5.626  28.959  51.364  1.00  0.00     0.008 A 
HETATM   19  C   UNL     1       5.661  28.972  52.789  1.00  0.00     0.017 A 
ENDBRANCH   4  15
ENDBRANCH   2   4
BRANCH   2  20
HETATM   20  C   UNL     1       6.769  25.788  56.109  1.00  0.00     0.165 C 
BRANCH  20  21
HETATM   21  C   UNL     1       7.236  24.659  55.221  1.00  0.00    -0.037 A 
HETATM   22  C   UNL     1       7.229  23.338  55.695  1.00  0.00     0.048 A 
HETATM   23  C   UNL     1       7.609  22.337  54.826  1.00  0.00     0.105 A 
HETATM   24  C   UNL     1       7.999  22.604  53.535  1.00  0.00     0.105 A 
HETATM   25  O   UNL     1       7.633  21.006  55.108  1.00  0.00    -0.323 OA
HETATM   26  O   UNL     1       8.320  21.478  52.844  1.00  0.00    -0.323 OA
HETATM   27  C   UNL     1       8.035  23.889  53.038  1.00  0.00     0.040 A 
HETATM   28  C   UNL     1       8.060  20.468  53.840  1.00  0.00     0.352 A 
HETATM   29  C   UNL     1       7.645  24.924  53.892  1.00  0.00     0.012 A 
ENDBRANCH  20  21
ENDBRANCH   2  20
BRANCH   1  30
HETATM   30  C   UNL     1       8.729  28.014  56.331  1.00  0.00     0.144 C 
BRANCH  30  31
HETATM   31  C   UNL     1       9.405  29.196  56.958  1.00  0.00    -0.021 A 
HETATM   32  C   UNL     1       8.977  30.052  58.030  1.00  0.00    -0.001 A 
HETATM   33  C   UNL     1       7.828  30.132  58.847  1.00  0.00     0.014 A 
HETATM   34  C   UNL     1      10.008  30.967  58.268  1.00  0.00     0.042 A 
HETATM   35  C   UNL     1       7.767  31.083  59.873  1.00  0.00     0.001 A 
HETATM   36  C   UNL     1       8.817  31.968  60.087  1.00  0.00     0.002 A 
HETATM   37  C   UNL     1       9.957  31.932  59.281  1.00  0.00     0.030 A 
HETATM   38  N   UNL     1      10.998  30.715  57.351  1.00  0.00    -0.365 N 
HETATM   39  H   UNL     1      11.861  31.237  57.283  1.00  0.00     0.165 HD
HETATM   40  C   UNL     1      10.651  29.656  56.563  1.00  0.00     0.097 A 
ENDBRANCH  30  31
ENDBRANCH   1  30
TORSDOF 8
ENDMDL
MODEL 6
REMARK VINA RESULT:      -9.5      3.414      8.000
REMARK  8 active torsions:
REMARK  status: ('A' for Active; 'I' for Inactive)
REMARK    1  A    between atoms: C_8  and  C_9 
REMARK    2  A    between atoms: C_9  and  C_10 
REMARK       I    between atoms: C_10  and  N_11 
REMARK    3  A    between atoms: N_11  and  C_12 
REMARK    4  A    between atoms: N_11  and  C_27 
REMARK    5  A    between atoms: C_12  and  C_13 
REMARK    6  A    between atoms: C_12  and  C_22 
REMARK       I    between atoms: C_13  and  N_14 
REMARK    7  A    between atoms: N_14  and  C_15 
REMARK    8  A    between atoms: C_27  and  C_28 
ROOT
HETATM    1  C   UNL     1       5.278  26.667  52.359  1.00  0.00     0.225 C 
HETATM    2  N   UNL     1       4.508  27.835  52.429  1.00  0.00    -0.330 N 
HETATM    3  O   UNL     1       6.261  26.579  51.616  1.00  0.00    -0.273 OA
ENDROOT
BRANCH   2   4
HETATM    4  C   UNL     1       4.913  28.965  51.562  1.00  0.00     0.219 C 
BRANCH   4   5
HETATM    5  C   UNL     1       4.977  28.548  50.066  1.00  0.00     0.246 C 
HETATM    6  N   UNL     1       4.005  27.672  49.619  1.00  0.00    -0.354 N 
HETATM    7  H   UNL     1       3.637  27.081  50.362  1.00  0.00     0.162 HD
HETATM    8  O   UNL     1       5.913  28.918  49.352  1.00  0.00    -0.271 OA
BRANCH   6   9
HETATM    9  C   UNL     1       4.038  27.071  48.289  1.00  0.00     0.084 C 
HETATM   10  C   UNL     1       2.882  26.066  48.135  1.00  0.00     0.025 C 
HETATM   11  C   UNL     1       1.518  26.749  48.028  1.00  0.00     0.002 C 
HETATM   12  C   UNL     1       1.491  27.782  46.905  1.00  0.00     0.000 C 
HETATM   13  C   UNL     1       2.620  28.796  47.050  1.00  0.00     0.002 C 
HETATM   14  C   UNL     1       3.980  28.108  47.153  1.00  0.00     0.025 C 
ENDBRANCH   6   9
ENDBRANCH   4   5
BRANCH   4  15
HETATM   15  C   UNL     1       4.144  30.251  51.845  1.00  0.00     0.014 A 
HETATM   16  S   UNL     1       2.675  30.543  50.983  1.00  0.00    -0.104 SA
HETATM   17  C   UNL     1       2.426  32.043  51.760  1.00  0.00     0.050 A 
HETATM   18  C   UNL     1       3.440  32.344  52.636  1.00  0.00     0.008 A 
HETATM   19  C   UNL     1       4.434  31.323  52.674  1.00  0.00     0.017 A 
ENDBRANCH   4  15
ENDBRANCH   2   4
BRANCH   2  20
HETATM   20  C   UNL     1       3.803  28.182  53.667  1.00  0.00     0.165 C 
BRANCH  20  21
HETATM   21  C   UNL     1       4.699  28.482  54.846  1.00  0.00    -0.037 A 
HETATM   22  C   UNL     1       6.077  28.668  54.657  1.00  0.00     0.048 A 
HETATM   23  C   UNL     1       6.843  28.998  55.756  1.00  0.00     0.105 A 
HETATM   24  C   UNL     1       6.294  29.133  57.009  1.00  0.00     0.105 A 
HETATM   25  O   UNL     1       8.181  29.241  55.747  1.00  0.00    -0.323 OA
HETATM   26  O   UNL     1       7.217  29.474  57.947  1.00  0.00    -0.323 OA
HETATM   27  C   UNL     1       4.948  28.943  57.238  1.00  0.00     0.040 A 
HETATM   28  C   UNL     1       8.405  29.566  57.135  1.00  0.00     0.352 A 
HETATM   29  C   UNL     1       4.145  28.618  56.142  1.00  0.00     0.012 A 
ENDBRANCH  20  21
ENDBRANCH   2  20
BRANCH   1  30
HETATM   30  C   UNL     1       4.806  25.437  53.119  1.00  0.00     0.144 C 
BRANCH  30  31
HETATM   31  C   UNL     1       5.723  24.871  54.161  1.00  0.00    -0.021 A 
HETATM   32  C   UNL     1       6.801  23.929  54.038  1.00  0.00    -0.001 A 
HETATM   33  C   UNL     1       7.373  23.199  52.974  1.00  0.00     0.014 A 
HETATM   34  C   UNL     1       7.373  23.785  55.306  1.00  0.00     0.042 A 
HETATM   35  C   UNL     1       8.495  22.392  53.206  1.00  0.00     0.001 A 
HETATM   36  C   UNL     1       9.043  22.284  54.478  1.00  0.00     0.002 A 
HETATM   37  C   UNL     1       8.486  22.974  55.557  1.00  0.00     0.030 A 
HETATM   38  N   UNL     1       6.647  24.563  56.174  1.00  0.00    -0.365 N 
HETATM   39  H   UNL     1       6.831  24.640  57.165  1.00  0.00     0.165 HD
HETATM   40  C   UNL     1       5.658  25.220  55.500  1.00  0.00     0.097 A 
ENDBRANCH  30  31
ENDBRANCH   1  30
TORSDOF 8
ENDMDL
MODEL 7
REMARK VINA RESULT:      -9.5      2.519      6.828
REMARK  8 active torsions:
REMARK  status: ('A' for Active; 'I' for Inactive)
REMARK    1  A    between atoms: C_8  and  C_9 
REMARK    2  A    between atoms: C_9  and  C_10 
REMARK       I    between atoms: C_10  and  N_11 
REMARK    3  A    between atoms: N_11  and  C_12 
REMARK    4  A    between atoms: N_11  and  C_27 
REMARK    5  A    between atoms: C_12  and  C_13 
REMARK    6  A    between atoms: C_12  and  C_22 
REMARK       I    between atoms: C_13  and  N_14 
REMARK    7  A    between atoms: N_14  and  C_15 
REMARK    8  A    between atoms: C_27  and  C_28 
ROOT
HETATM    1  C   UNL     1       7.291  26.605  54.659  1.00  0.00     0.225 C 
HETATM    2  N   UNL     1       6.405  27.420  55.374  1.00  0.00    -0.330 N 
HETATM    3  O   UNL     1       7.494  26.768  53.451  1.00  0.00    -0.273 OA
ENDROOT
BRANCH   2   4
HETATM    4  C   UNL     1       5.704  28.484  54.620  1.00  0.00     0.219 C 
BRANCH   4   5
HETATM    5  C   UNL     1       4.997  27.922  53.354  1.00  0.00     0.246 C 
HETATM    6  N   UNL     1       5.269  28.553  52.155  1.00  0.00    -0.354 N 
HETATM    7  H   UNL     1       5.536  29.528  52.276  1.00  0.00     0.162 HD
HETATM    8  O   UNL     1       4.164  27.017  53.452  1.00  0.00    -0.271 OA
BRANCH   6   9
HETATM    9  C   UNL     1       4.556  28.239  50.920  1.00  0.00     0.084 C 
HETATM   10  C   UNL     1       3.315  29.138  50.784  1.00  0.00     0.025 C 
HETATM   11  C   UNL     1       3.671  30.591  50.462  1.00  0.00     0.002 C 
HETATM   12  C   UNL     1       4.552  30.692  49.221  1.00  0.00     0.000 C 
HETATM   13  C   UNL     1       5.797  29.820  49.344  1.00  0.00     0.002 C 
HETATM   14  C   UNL     1       5.434  28.371  49.662  1.00  0.00     0.025 C 
ENDBRANCH   6   9
ENDBRANCH   4   5
BRANCH   4  15
HETATM   15  C   UNL     1       4.842  29.383  55.499  1.00  0.00     0.014 A 
HETATM   16  S   UNL     1       5.208  31.070  55.566  1.00  0.00    -0.104 SA
HETATM   17  C   UNL     1       3.937  31.382  56.663  1.00  0.00     0.050 A 
HETATM   18  C   UNL     1       3.257  30.237  57.003  1.00  0.00     0.008 A 
HETATM   19  C   UNL     1       3.786  29.088  56.347  1.00  0.00     0.017 A 
ENDBRANCH   4  15
ENDBRANCH   2   4
BRANCH   2  20
HETATM   20  C   UNL     1       6.617  27.665  56.804  1.00  0.00     0.165 C 
BRANCH  20  21
HETATM   21  C   UNL     1       7.670  28.701  57.121  1.00  0.00    -0.037 A 
HETATM   22  C   UNL     1       7.488  29.590  58.192  1.00  0.00     0.048 A 
HETATM   23  C   UNL     1       8.505  30.477  58.477  1.00  0.00     0.105 A 
HETATM   24  C   UNL     1       9.665  30.515  57.738  1.00  0.00     0.105 A 
HETATM   25  O   UNL     1       8.508  31.383  59.492  1.00  0.00    -0.323 OA
HETATM   26  O   UNL     1      10.540  31.450  58.193  1.00  0.00    -0.323 OA
HETATM   27  C   UNL     1       9.873  29.670  56.670  1.00  0.00     0.040 A 
HETATM   28  C   UNL     1       9.811  31.978  59.320  1.00  0.00     0.352 A 
HETATM   29  C   UNL     1       8.865  28.753  56.364  1.00  0.00     0.012 A 
ENDBRANCH  20  21
ENDBRANCH   2  20
BRANCH   1  30
HETATM   30  C   UNL     1       7.912  25.409  55.364  1.00  0.00     0.144 C 
BRANCH  30  31
HETATM   31  C   UNL     1       7.947  24.107  54.621  1.00  0.00    -0.021 A 
HETATM   32  C   UNL     1       8.127  22.765  55.103  1.00  0.00    -0.001 A 
HETATM   33  C   UNL     1       8.347  22.180  56.369  1.00  0.00     0.014 A 
HETATM   34  C   UNL     1       8.016  21.910  54.002  1.00  0.00     0.042 A 
HETATM   35  C   UNL     1       8.415  20.786  56.490  1.00  0.00     0.001 A 
HETATM   36  C   UNL     1       8.287  19.968  55.374  1.00  0.00     0.002 A 
HETATM   37  C   UNL     1       8.094  20.516  54.105  1.00  0.00     0.030 A 
HETATM   38  N   UNL     1       7.829  22.695  52.892  1.00  0.00    -0.365 N 
HETATM   39  H   UNL     1       7.730  22.340  51.950  1.00  0.00     0.165 HD
HETATM   40  C   UNL     1       7.782  24.012  53.249  1.00  0.00     0.097 A 
ENDBRANCH  30  31
ENDBRANCH   1  30
TORSDOF 8
ENDMDL
MODEL 8
REMARK VINA RESULT:      -9.4      3.353      9.495
REMARK  8 active torsions:
REMARK  status: ('A' for Active; 'I' for Inactive)
REMARK    1  A    between atoms: C_8  and  C_9 
REMARK    2  A    between atoms: C_9  and  C_10 
REMARK       I    between atoms: C_10  and  N_11 
REMARK    3  A    between atoms: N_11  and  C_12 
REMARK    4  A    between atoms: N_11  and  C_27 
REMARK    5  A    between atoms: C_12  and  C_13 
REMARK    6  A    between atoms: C_12  and  C_22 
REMARK       I    between atoms: C_13  and  N_14 
REMARK    7  A    between atoms: N_14  and  C_15 
REMARK    8  A    between atoms: C_27  and  C_28 
ROOT
HETATM    1  C   UNL     1       3.919  28.230  54.188  1.00  0.00     0.225 C 
HETATM    2  N   UNL     1       4.972  27.308  54.137  1.00  0.00    -0.330 N 
HETATM    3  O   UNL     1       3.095  28.328  53.273  1.00  0.00    -0.273 OA
ENDROOT
BRANCH   2   4
HETATM    4  C   UNL     1       5.070  26.458  52.929  1.00  0.00     0.219 C 
BRANCH   4   5
HETATM    5  C   UNL     1       5.160  27.310  51.631  1.00  0.00     0.246 C 
HETATM    6  N   UNL     1       4.406  26.888  50.553  1.00  0.00    -0.354 N 
HETATM    7  H   UNL     1       4.225  25.886  50.568  1.00  0.00     0.162 HD
HETATM    8  O   UNL     1       5.947  28.258  51.559  1.00  0.00    -0.271 OA
BRANCH   6   9
HETATM    9  C   UNL     1       4.518  27.493  49.228  1.00  0.00     0.084 C 
HETATM   10  C   UNL     1       4.527  26.397  48.148  1.00  0.00     0.025 C 
HETATM   11  C   UNL     1       3.160  25.736  47.966  1.00  0.00     0.002 C 
HETATM   12  C   UNL     1       2.070  26.766  47.685  1.00  0.00     0.000 C 
HETATM   13  C   UNL     1       2.034  27.851  48.756  1.00  0.00     0.002 C 
HETATM   14  C   UNL     1       3.401  28.509  48.929  1.00  0.00     0.025 C 
ENDBRANCH   6   9
ENDBRANCH   4   5
BRANCH   4  15
HETATM   15  C   UNL     1       6.108  25.349  53.051  1.00  0.00     0.014 A 
HETATM   16  S   UNL     1       7.608  25.524  52.210  1.00  0.00    -0.104 SA
HETATM   17  C   UNL     1       8.187  24.019  52.770  1.00  0.00     0.050 A 
HETATM   18  C   UNL     1       7.265  23.372  53.557  1.00  0.00     0.008 A 
HETATM   19  C   UNL     1       6.067  24.128  53.705  1.00  0.00     0.017 A 
ENDBRANCH   4  15
ENDBRANCH   2   4
BRANCH   2  20
HETATM   20  C   UNL     1       5.526  26.749  55.375  1.00  0.00     0.165 C 
BRANCH  20  21
HETATM   21  C   UNL     1       6.649  27.553  55.987  1.00  0.00    -0.037 A 
HETATM   22  C   UNL     1       7.683  28.053  55.179  1.00  0.00     0.048 A 
HETATM   23  C   UNL     1       8.652  28.831  55.776  1.00  0.00     0.105 A 
HETATM   24  C   UNL     1       8.634  29.109  57.123  1.00  0.00     0.105 A 
HETATM   25  O   UNL     1       9.703  29.417  55.141  1.00  0.00    -0.323 OA
HETATM   26  O   UNL     1       9.670  29.901  57.505  1.00  0.00    -0.323 OA
HETATM   27  C   UNL     1       7.646  28.623  57.951  1.00  0.00     0.040 A 
HETATM   28  C   UNL     1      10.328  30.114  56.238  1.00  0.00     0.352 A 
HETATM   29  C   UNL     1       6.643  27.840  57.373  1.00  0.00     0.012 A 
ENDBRANCH  20  21
ENDBRANCH   2  20
BRANCH   1  30
HETATM   30  C   UNL     1       3.874  29.222  55.340  1.00  0.00     0.144 C 
BRANCH  30  31
HETATM   31  C   UNL     1       4.163  30.660  55.029  1.00  0.00    -0.021 A 
HETATM   32  C   UNL     1       4.319  31.788  55.905  1.00  0.00    -0.001 A 
HETATM   33  C   UNL     1       4.248  31.987  57.301  1.00  0.00     0.014 A 
HETATM   34  C   UNL     1       4.639  32.892  55.108  1.00  0.00     0.042 A 
HETATM   35  C   UNL     1       4.526  33.248  57.841  1.00  0.00     0.001 A 
HETATM   36  C   UNL     1       4.853  34.319  57.017  1.00  0.00     0.002 A 
HETATM   37  C   UNL     1       4.907  34.162  55.631  1.00  0.00     0.030 A 
HETATM   38  N   UNL     1       4.629  32.470  53.801  1.00  0.00    -0.365 N 
HETATM   39  H   UNL     1       4.814  33.066  53.006  1.00  0.00     0.165 HD
HETATM   40  C   UNL     1       4.349  31.135  53.741  1.00  0.00     0.097 A 
ENDBRANCH  30  31
ENDBRANCH   1  30
TORSDOF 8
ENDMDL
MODEL 9
REMARK VINA RESULT:      -9.2      3.353      8.311
REMARK  8 active torsions:
REMARK  status: ('A' for Active; 'I' for Inactive)
REMARK    1  A    between atoms: C_8  and  C_9 
REMARK    2  A    between atoms: C_9  and  C_10 
REMARK       I    between atoms: C_10  and  N_11 
REMARK    3  A    between atoms: N_11  and  C_12 
REMARK    4  A    between atoms: N_11  and  C_27 
REMARK    5  A    between atoms: C_12  and  C_13 
REMARK    6  A    between atoms: C_12  and  C_22 
REMARK       I    between atoms: C_13  and  N_14 
REMARK    7  A    between atoms: N_14  and  C_15 
REMARK    8  A    between atoms: C_27  and  C_28 
ROOT
HETATM    1  C   UNL     1       5.407  26.475  51.819  1.00  0.00     0.225 C 
HETATM    2  N   UNL     1       6.355  26.370  52.843  1.00  0.00    -0.330 N 
HETATM    3  O   UNL     1       4.580  25.583  51.604  1.00  0.00    -0.273 OA
ENDROOT
BRANCH   2   4
HETATM    4  C   UNL     1       6.339  25.133  53.657  1.00  0.00     0.219 C 
BRANCH   4   5
HETATM    5  C   UNL     1       7.413  24.115  53.179  1.00  0.00     0.246 C 
HETATM    6  N   UNL     1       7.386  22.861  53.758  1.00  0.00    -0.354 N 
HETATM    7  H   UNL     1       6.980  22.868  54.692  1.00  0.00     0.162 HD
HETATM    8  O   UNL     1       8.295  24.461  52.389  1.00  0.00    -0.271 OA
BRANCH   6   9
HETATM    9  C   UNL     1       8.428  21.863  53.526  1.00  0.00     0.084 C 
HETATM   10  C   UNL     1       9.648  22.159  54.415  1.00  0.00     0.025 C 
HETATM   11  C   UNL     1       9.388  21.858  55.893  1.00  0.00     0.002 C 
HETATM   12  C   UNL     1       8.902  20.427  56.098  1.00  0.00     0.000 C 
HETATM   13  C   UNL     1       7.682  20.120  55.237  1.00  0.00     0.002 C 
HETATM   14  C   UNL     1       7.949  20.420  53.763  1.00  0.00     0.025 C 
ENDBRANCH   6   9
ENDBRANCH   4   5
BRANCH   4  15
HETATM   15  C   UNL     1       6.318  25.396  55.158  1.00  0.00     0.014 A 
HETATM   16  S   UNL     1       7.823  25.546  55.993  1.00  0.00    -0.104 SA
HETATM   17  C   UNL     1       7.054  25.795  57.497  1.00  0.00     0.050 A 
HETATM   18  C   UNL     1       5.685  25.741  57.391  1.00  0.00     0.008 A 
HETATM   19  C   UNL     1       5.263  25.496  56.052  1.00  0.00     0.017 A 
ENDBRANCH   4  15
ENDBRANCH   2   4
BRANCH   2  20
HETATM   20  C   UNL     1       6.872  27.576  53.499  1.00  0.00     0.165 C 
BRANCH  20  21
HETATM   21  C   UNL     1       5.864  28.320  54.343  1.00  0.00    -0.037 A 
HETATM   22  C   UNL     1       6.272  28.980  55.514  1.00  0.00     0.048 A 
HETATM   23  C   UNL     1       5.325  29.694  56.217  1.00  0.00     0.105 A 
HETATM   24  C   UNL     1       4.013  29.761  55.809  1.00  0.00     0.105 A 
HETATM   25  O   UNL     1       5.552  30.413  57.350  1.00  0.00    -0.323 OA
HETATM   26  O   UNL     1       3.250  30.525  56.634  1.00  0.00    -0.323 OA
HETATM   27  C   UNL     1       3.572  29.114  54.675  1.00  0.00     0.040 A 
HETATM   28  C   UNL     1       4.238  30.956  57.593  1.00  0.00     0.352 A 
HETATM   29  C   UNL     1       4.511  28.390  53.935  1.00  0.00     0.012 A 
ENDBRANCH  20  21
ENDBRANCH   2  20
BRANCH   1  30
HETATM   30  C   UNL     1       5.490  27.659  50.867  1.00  0.00     0.144 C 
BRANCH  30  31
HETATM   31  C   UNL     1       4.246  28.037  50.120  1.00  0.00    -0.021 A 
HETATM   32  C   UNL     1       3.600  27.399  49.006  1.00  0.00    -0.001 A 
HETATM   33  C   UNL     1       3.867  26.261  48.214  1.00  0.00     0.014 A 
HETATM   34  C   UNL     1       2.437  28.124  48.729  1.00  0.00     0.042 A 
HETATM   35  C   UNL     1       2.963  25.879  47.215  1.00  0.00     0.001 A 
HETATM   36  C   UNL     1       1.810  26.618  46.978  1.00  0.00     0.002 A 
HETATM   37  C   UNL     1       1.529  27.763  47.727  1.00  0.00     0.030 A 
HETATM   38  N   UNL     1       2.399  29.185  49.600  1.00  0.00    -0.365 N 
HETATM   39  H   UNL     1       1.671  29.886  49.617  1.00  0.00     0.165 HD
HETATM   40  C   UNL     1       3.474  29.142  50.440  1.00  0.00     0.097 A 
ENDBRANCH  30  31
ENDBRANCH   1  30
TORSDOF 8
ENDMDL
MODEL 10
REMARK VINA RESULT:      -9.1      4.202      8.115
REMARK  8 active torsions:
REMARK  status: ('A' for Active; 'I' for Inactive)
REMARK    1  A    between atoms: C_8  and  C_9 
REMARK    2  A    between atoms: C_9  and  C_10 
REMARK       I    between atoms: C_10  and  N_11 
REMARK    3  A    between atoms: N_11  and  C_12 
REMARK    4  A    between atoms: N_11  and  C_27 
REMARK    5  A    between atoms: C_12  and  C_13 
REMARK    6  A    between atoms: C_12  and  C_22 
REMARK       I    between atoms: C_13  and  N_14 
REMARK    7  A    between atoms: N_14  and  C_15 
REMARK    8  A    between atoms: C_27  and  C_28 
ROOT
HETATM    1  C   UNL     1       4.688  28.869  53.214  1.00  0.00     0.225 C 
HETATM    2  N   UNL     1       4.658  28.061  52.070  1.00  0.00    -0.330 N 
HETATM    3  O   UNL     1       4.403  30.070  53.169  1.00  0.00    -0.273 OA
ENDROOT
BRANCH   2   4
HETATM    4  C   UNL     1       4.282  28.709  50.793  1.00  0.00     0.219 C 
BRANCH   4   5
HETATM    5  C   UNL     1       5.361  29.725  50.323  1.00  0.00     0.246 C 
HETATM    6  N   UNL     1       5.048  31.066  50.437  1.00  0.00    -0.354 N 
HETATM    7  H   UNL     1       4.046  31.240  50.402  1.00  0.00     0.162 HD
HETATM    8  O   UNL     1       6.401  29.330  49.789  1.00  0.00    -0.271 OA
BRANCH   6   9
HETATM    9  C   UNL     1       5.895  32.122  49.887  1.00  0.00     0.084 C 
HETATM   10  C   UNL     1       5.535  32.371  48.412  1.00  0.00     0.025 C 
HETATM   11  C   UNL     1       4.185  33.070  48.244  1.00  0.00     0.002 C 
HETATM   12  C   UNL     1       4.119  34.367  49.045  1.00  0.00     0.000 C 
HETATM   13  C   UNL     1       4.457  34.136  50.514  1.00  0.00     0.002 C 
HETATM   14  C   UNL     1       5.807  33.442  50.674  1.00  0.00     0.025 C 
ENDBRANCH   6   9
ENDBRANCH   4   5
BRANCH   4  15
HETATM   15  C   UNL     1       3.811  27.724  49.730  1.00  0.00     0.014 A 
HETATM   16  S   UNL     1       2.228  27.921  49.063  1.00  0.00    -0.104 SA
HETATM   17  C   UNL     1       2.403  26.561  48.046  1.00  0.00     0.050 A 
HETATM   18  C   UNL     1       3.618  25.943  48.215  1.00  0.00     0.008 A 
HETATM   19  C   UNL     1       4.420  26.601  49.192  1.00  0.00     0.017 A 
ENDBRANCH   4  15
ENDBRANCH   2   4
BRANCH   2  20
HETATM   20  C   UNL     1       4.369  26.628  52.185  1.00  0.00     0.165 C 
BRANCH  20  21
HETATM   21  C   UNL     1       5.556  25.768  52.551  1.00  0.00    -0.037 A 
HETATM   22  C   UNL     1       5.534  24.993  53.721  1.00  0.00     0.048 A 
HETATM   23  C   UNL     1       6.618  24.180  53.980  1.00  0.00     0.105 A 
HETATM   24  C   UNL     1       7.703  24.126  53.137  1.00  0.00     0.105 A 
HETATM   25  O   UNL     1       6.749  23.346  55.047  1.00  0.00    -0.323 OA
HETATM   26  O   UNL     1       8.653  23.255  53.568  1.00  0.00    -0.323 OA
HETATM   27  C   UNL     1       7.769  24.884  51.988  1.00  0.00     0.040 A 
HETATM   28  C   UNL     1       8.029  22.745  54.765  1.00  0.00     0.352 A 
HETATM   29  C   UNL     1       6.681  25.709  51.693  1.00  0.00     0.012 A 
ENDBRANCH  20  21
ENDBRANCH   2  20
BRANCH   1  30
HETATM   30  C   UNL     1       5.216  28.275  54.511  1.00  0.00     0.144 C 
BRANCH  30  31
HETATM   31  C   UNL     1       6.637  28.575  54.884  1.00  0.00    -0.021 A 
HETATM   32  C   UNL     1       7.190  29.081  56.110  1.00  0.00    -0.001 A 
HETATM   33  C   UNL     1       6.658  29.489  57.353  1.00  0.00     0.014 A 
HETATM   34  C   UNL     1       8.579  29.121  55.954  1.00  0.00     0.042 A 
HETATM   35  C   UNL     1       7.519  29.881  58.385  1.00  0.00     0.001 A 
HETATM   36  C   UNL     1       8.896  29.895  58.196  1.00  0.00     0.002 A 
HETATM   37  C   UNL     1       9.453  29.522  56.972  1.00  0.00     0.030 A 
HETATM   38  N   UNL     1       8.859  28.707  54.676  1.00  0.00    -0.365 N 
HETATM   39  H   UNL     1       9.789  28.649  54.284  1.00  0.00     0.165 HD
HETATM   40  C   UNL     1       7.706  28.374  54.026  1.00  0.00     0.097 A 
ENDBRANCH  30  31
ENDBRANCH   1  30
TORSDOF 8
ENDMDL
