MODEL 1
REMARK VINA RESULT:      -9.8      0.000      0.000
REMARK  7 active torsions:
REMARK  status: ('A' for Active; 'I' for Inactive)
REMARK    1  A    between atoms: C_7  and  C_8 
REMARK    2  A    between atoms: C_8  and  N_9 
REMARK    3  A    between atoms: C_13  and  C_14 
REMARK    4  A    between atoms: C_14  and  C_15 
REMARK    5  A    between atoms: C_15  and  C_16 
REMARK    6  A    between atoms: N_26  and  C_27 
REMARK    7  A    between atoms: C_27  and  C_28 
ROOT
HETATM    1  C   UNL     1       6.724  25.523  54.517  1.00  0.00     0.123 C 
HETATM    2  N   UNL     1       6.469  25.585  55.947  1.00  0.00    -0.324 N 
HETATM    3  C   UNL     1       6.993  26.707  56.547  1.00  0.00     0.326 C 
HETATM    4  O   UNL     1       7.034  26.879  57.750  1.00  0.00    -0.247 OA
HETATM    5  N   UNL     1       7.400  27.555  55.571  1.00  0.00    -0.268 N 
HETATM    6  C   UNL     1       7.187  26.992  54.352  1.00  0.00     0.257 C 
HETATM    7  O   UNL     1       7.351  27.553  53.276  1.00  0.00    -0.270 OA
HETATM    8  H   UNL     1       6.289  24.773  56.534  1.00  0.00     0.165 HD
ENDROOT
BRANCH   1   9
HETATM    9  C   UNL     1       5.421  25.143  53.740  1.00  0.00     0.027 C 
HETATM   10  C   UNL     1       5.554  24.800  52.249  1.00  0.00     0.035 C 
HETATM   11  C   UNL     1       5.629  25.974  51.280  1.00  0.00     0.235 C 
HETATM   12  N   UNL     1       4.658  27.088  51.593  1.00  0.00    -0.067 N 
HETATM   13  H   UNL     1       3.764  26.818  51.166  1.00  0.00     0.280 HD
HETATM   14  C   UNL     1       4.394  27.389  53.044  1.00  0.00     0.235 C 
HETATM   15  C   UNL     1       4.248  26.130  53.877  1.00  0.00     0.035 C 
BRANCH  12  16
HETATM   16  C   UNL     1       5.072  28.386  50.901  1.00  0.00     0.277 C 
BRANCH  16  17
HETATM   17  C   UNL     1       4.548  28.561  49.528  1.00  0.00     0.011 A 
HETATM   18  C   UNL     1       3.242  28.768  49.102  1.00  0.00     0.035 A 
HETATM   19  C   UNL     1       1.974  28.887  49.869  1.00  0.00     0.070 C 
HETATM   20  N   UNL     1       3.318  28.945  47.739  1.00  0.00    -0.278 N 
HETATM   21  C   UNL     1       2.270  29.309  46.811  1.00  0.00     0.179 C 
HETATM   22  N   UNL     1       4.570  28.821  47.265  1.00  0.00    -0.185 NA
HETATM   23  C   UNL     1       5.317  28.636  48.346  1.00  0.00     0.149 A 
ENDBRANCH  16  17
ENDBRANCH  12  16
ENDBRANCH   1   9
BRANCH   1  24
HETATM   24  C   UNL     1       7.994  24.667  54.214  1.00  0.00     0.082 C 
BRANCH  24  25
HETATM   25  C   UNL     1       7.982  23.153  54.348  1.00  0.00    -0.034 A 
HETATM   26  C   UNL     1       8.161  22.438  55.545  1.00  0.00     0.040 A 
HETATM   27 CL   UNL     1       8.363  23.202  57.075  1.00  0.00    -0.084 Cl
HETATM   28  C   UNL     1       8.228  21.038  55.543  1.00  0.00     0.024 A 
HETATM   29  C   UNL     1       8.145  20.324  54.350  1.00  0.00     0.002 A 
HETATM   30  C   UNL     1       7.993  21.008  53.152  1.00  0.00     0.001 A 
HETATM   31  C   UNL     1       7.913  22.404  53.151  1.00  0.00     0.009 A 
ENDBRANCH  24  25
ENDBRANCH   1  24
BRANCH   5  32
HETATM   32  C   UNL     1       7.958  28.870  55.800  1.00  0.00     0.141 C 
BRANCH  32  33
HETATM   33  C   UNL     1       9.264  28.757  56.526  1.00  0.00     0.004 A 
HETATM   34  C   UNL     1      10.391  29.728  56.275  1.00  0.00     0.007 A 
HETATM   35  C   UNL     1       9.638  29.773  57.575  1.00  0.00     0.007 A 
ENDBRANCH  32  33
ENDBRANCH   5  32
TORSDOF 7
ENDMDL
MODEL 2
REMARK VINA RESULT:      -9.7      2.693      7.193
REMARK  7 active torsions:
REMARK  status: ('A' for Active; 'I' for Inactive)
REMARK    1  A    between atoms: C_7  and  C_8 
REMARK    2  A    between atoms: C_8  and  N_9 
REMARK    3  A    between atoms: C_13  and  C_14 
REMARK    4  A    between atoms: C_14  and  C_15 
REMARK    5  A    between atoms: C_15  and  C_16 
REMARK    6  A    between atoms: N_26  and  C_27 
REMARK    7  A    between atoms: C_27  and  C_28 
ROOT
HETATM    1  C   UNL     1       6.978  26.050  54.916  1.00  0.00     0.123 C 
HETATM    2  N   UNL     1       7.170  27.413  54.447  1.00  0.00    -0.324 N 
HETATM    3  C   UNL     1       6.453  27.705  53.309  1.00  0.00     0.326 C 
HETATM    4  O   UNL     1       6.588  28.726  52.664  1.00  0.00    -0.247 OA
HETATM    5  N   UNL     1       5.584  26.689  53.088  1.00  0.00    -0.268 N 
HETATM    6  C   UNL     1       5.747  25.727  54.034  1.00  0.00     0.257 C 
HETATM    7  O   UNL     1       5.037  24.738  54.166  1.00  0.00    -0.270 OA
HETATM    8  H   UNL     1       7.990  27.980  54.650  1.00  0.00     0.165 HD
ENDROOT
BRANCH   1   9
HETATM    9  C   UNL     1       6.719  26.028  56.458  1.00  0.00     0.027 C 
HETATM   10  C   UNL     1       5.422  26.668  56.973  1.00  0.00     0.035 C 
HETATM   11  C   UNL     1       5.420  28.182  57.131  1.00  0.00     0.235 C 
HETATM   12  N   UNL     1       6.687  28.736  57.739  1.00  0.00    -0.067 N 
HETATM   13  H   UNL     1       6.579  28.650  58.757  1.00  0.00     0.280 HD
HETATM   14  C   UNL     1       7.984  28.068  57.365  1.00  0.00     0.235 C 
HETATM   15  C   UNL     1       7.868  26.556  57.337  1.00  0.00     0.035 C 
BRANCH  12  16
HETATM   16  C   UNL     1       6.821  30.232  57.462  1.00  0.00     0.277 C 
BRANCH  16  17
HETATM   17  C   UNL     1       6.691  31.106  58.651  1.00  0.00     0.011 A 
HETATM   18  C   UNL     1       7.535  31.234  59.747  1.00  0.00     0.035 A 
HETATM   19  C   UNL     1       8.819  30.560  60.073  1.00  0.00     0.070 C 
HETATM   20  N   UNL     1       6.993  32.237  60.519  1.00  0.00    -0.278 N 
HETATM   21  C   UNL     1       7.529  32.855  61.711  1.00  0.00     0.179 C 
HETATM   22  N   UNL     1       5.844  32.720  60.016  1.00  0.00    -0.185 NA
HETATM   23  C   UNL     1       5.686  32.073  58.869  1.00  0.00     0.149 A 
ENDBRANCH  16  17
ENDBRANCH  12  16
ENDBRANCH   1   9
BRANCH   1  24
HETATM   24  C   UNL     1       8.109  25.114  54.384  1.00  0.00     0.082 C 
BRANCH  24  25
HETATM   25  C   UNL     1       7.931  23.606  54.327  1.00  0.00    -0.034 A 
HETATM   26  C   UNL     1       7.992  22.735  55.429  1.00  0.00     0.040 A 
HETATM   27 CL   UNL     1       8.224  23.279  57.045  1.00  0.00    -0.084 Cl
HETATM   28  C   UNL     1       7.909  21.347  55.253  1.00  0.00     0.024 A 
HETATM   29  C   UNL     1       7.791  20.798  53.978  1.00  0.00     0.002 A 
HETATM   30  C   UNL     1       7.752  21.636  52.873  1.00  0.00     0.001 A 
HETATM   31  C   UNL     1       7.823  23.021  53.045  1.00  0.00     0.009 A 
ENDBRANCH  24  25
ENDBRANCH   1  24
BRANCH   5  32
HETATM   32  C   UNL     1       4.615  26.651  52.014  1.00  0.00     0.141 C 
BRANCH  32  33
HETATM   33  C   UNL     1       5.313  26.502  50.696  1.00  0.00     0.004 A 
HETATM   34  C   UNL     1       4.541  26.291  49.416  1.00  0.00     0.007 A 
HETATM   35  C   UNL     1       5.232  27.602  49.667  1.00  0.00     0.007 A 
ENDBRANCH  32  33
ENDBRANCH   5  32
TORSDOF 7
ENDMDL
MODEL 3
REMARK VINA RESULT:      -9.5      3.052      7.564
REMARK  7 active torsions:
REMARK  status: ('A' for Active; 'I' for Inactive)
REMARK    1  A    between atoms: C_7  and  C_8 
REMARK    2  A    between atoms: C_8  and  N_9 
REMARK    3  A    between atoms: C_13  and  C_14 
REMARK    4  A    between atoms: C_14  and  C_15 
REMARK    5  A    between atoms: C_15  and  C_16 
REMARK    6  A    between atoms: N_26  and  C_27 
REMARK    7  A    between atoms: C_27  and  C_28 
ROOT
HETATM    1  C   UNL     1       6.578  26.548  54.961  1.00  0.00     0.123 C 
HETATM    2  N   UNL     1       6.588  27.929  54.507  1.00  0.00    -0.324 N 
HETATM    3  C   UNL     1       5.934  28.115  53.310  1.00  0.00     0.326 C 
HETATM    4  O   UNL     1       5.958  29.152  52.676  1.00  0.00    -0.247 OA
HETATM    5  N   UNL     1       5.261  26.976  53.017  1.00  0.00    -0.268 N 
HETATM    6  C   UNL     1       5.494  26.041  53.976  1.00  0.00     0.257 C 
HETATM    7  O   UNL     1       4.944  24.950  54.049  1.00  0.00    -0.270 OA
HETATM    8  H   UNL     1       7.286  28.618  54.779  1.00  0.00     0.165 HD
ENDROOT
BRANCH   1   9
HETATM    9  C   UNL     1       6.193  26.467  56.475  1.00  0.00     0.027 C 
HETATM   10  C   UNL     1       5.098  27.415  56.985  1.00  0.00     0.035 C 
HETATM   11  C   UNL     1       5.523  28.841  57.307  1.00  0.00     0.235 C 
HETATM   12  N   UNL     1       6.839  28.937  58.041  1.00  0.00    -0.067 N 
HETATM   13  H   UNL     1       6.625  28.798  59.036  1.00  0.00     0.280 HD
HETATM   14  C   UNL     1       7.913  27.950  57.667  1.00  0.00     0.235 C 
HETATM   15  C   UNL     1       7.367  26.550  57.468  1.00  0.00     0.035 C 
BRANCH  12  16
HETATM   16  C   UNL     1       7.424  30.345  57.937  1.00  0.00     0.277 C 
BRANCH  16  17
HETATM   17  C   UNL     1       7.644  31.031  59.231  1.00  0.00     0.011 A 
HETATM   18  C   UNL     1       6.878  32.009  59.852  1.00  0.00     0.035 A 
HETATM   19  C   UNL     1       5.611  32.666  59.436  1.00  0.00     0.070 C 
HETATM   20  N   UNL     1       7.483  32.241  61.067  1.00  0.00    -0.278 N 
HETATM   21  C   UNL     1       7.036  33.077  62.158  1.00  0.00     0.179 C 
HETATM   22  N   UNL     1       8.601  31.514  61.240  1.00  0.00    -0.185 NA
HETATM   23  C   UNL     1       8.673  30.752  60.157  1.00  0.00     0.149 A 
ENDBRANCH  16  17
ENDBRANCH  12  16
ENDBRANCH   1   9
BRANCH   1  24
HETATM   24  C   UNL     1       7.885  25.810  54.531  1.00  0.00     0.082 C 
BRANCH  24  25
HETATM   25  C   UNL     1       7.920  24.304  54.334  1.00  0.00    -0.034 A 
HETATM   26  C   UNL     1       7.886  23.642  53.094  1.00  0.00     0.040 A 
HETATM   27 CL   UNL     1       7.861  24.472  51.586  1.00  0.00    -0.084 Cl
HETATM   28  C   UNL     1       7.827  22.243  53.028  1.00  0.00     0.024 A 
HETATM   29  C   UNL     1       7.773  21.478  54.190  1.00  0.00     0.002 A 
HETATM   30  C   UNL     1       7.780  22.109  55.426  1.00  0.00     0.001 A 
HETATM   31  C   UNL     1       7.852  23.503  55.497  1.00  0.00     0.009 A 
ENDBRANCH  24  25
ENDBRANCH   1  24
BRANCH   5  32
HETATM   32  C   UNL     1       4.407  26.795  51.863  1.00  0.00     0.141 C 
BRANCH  32  33
HETATM   33  C   UNL     1       5.239  26.666  50.622  1.00  0.00     0.004 A 
HETATM   34  C   UNL     1       4.613  26.351  49.285  1.00  0.00     0.007 A 
HETATM   35  C   UNL     1       5.167  27.724  49.549  1.00  0.00     0.007 A 
ENDBRANCH  32  33
ENDBRANCH   5  32
TORSDOF 7
ENDMDL
MODEL 4
REMARK VINA RESULT:      -9.0      2.704      8.045
REMARK  7 active torsions:
REMARK  status: ('A' for Active; 'I' for Inactive)
REMARK    1  A    between atoms: C_7  and  C_8 
REMARK    2  A    between atoms: C_8  and  N_9 
REMARK    3  A    between atoms: C_13  and  C_14 
REMARK    4  A    between atoms: C_14  and  C_15 
REMARK    5  A    between atoms: C_15  and  C_16 
REMARK    6  A    between atoms: N_26  and  C_27 
REMARK    7  A    between atoms: C_27  and  C_28 
ROOT
HETATM    1  C   UNL     1       5.074  27.364  53.337  1.00  0.00     0.123 C 
HETATM    2  N   UNL     1       4.270  26.199  53.004  1.00  0.00    -0.324 N 
HETATM    3  C   UNL     1       5.013  25.141  52.531  1.00  0.00     0.326 C 
HETATM    4  O   UNL     1       4.532  24.134  52.049  1.00  0.00    -0.247 OA
HETATM    5  N   UNL     1       6.323  25.421  52.737  1.00  0.00    -0.268 N 
HETATM    6  C   UNL     1       6.449  26.653  53.298  1.00  0.00     0.257 C 
HETATM    7  O   UNL     1       7.497  27.142  53.701  1.00  0.00    -0.270 OA
HETATM    8  H   UNL     1       3.283  26.232  52.760  1.00  0.00     0.165 HD
ENDROOT
BRANCH   1   9
HETATM    9  C   UNL     1       4.660  27.940  54.731  1.00  0.00     0.027 C 
HETATM   10  C   UNL     1       5.270  29.283  55.158  1.00  0.00     0.035 C 
HETATM   11  C   UNL     1       6.676  29.241  55.742  1.00  0.00     0.235 C 
HETATM   12  N   UNL     1       6.904  28.103  56.709  1.00  0.00    -0.067 N 
HETATM   13  H   UNL     1       6.556  28.426  57.620  1.00  0.00     0.280 HD
HETATM   14  C   UNL     1       6.228  26.792  56.406  1.00  0.00     0.235 C 
HETATM   15  C   UNL     1       4.803  26.975  55.923  1.00  0.00     0.035 C 
BRANCH  12  16
HETATM   16  C   UNL     1       8.396  27.841  56.905  1.00  0.00     0.277 C 
BRANCH  16  17
HETATM   17  C   UNL     1       9.209  29.038  57.220  1.00  0.00     0.011 A 
HETATM   18  C   UNL     1       9.026  29.991  58.214  1.00  0.00     0.035 A 
HETATM   19  C   UNL     1       7.985  30.114  59.268  1.00  0.00     0.070 C 
HETATM   20  N   UNL     1      10.106  30.840  58.118  1.00  0.00    -0.278 N 
HETATM   21  C   UNL     1      10.477  31.937  58.984  1.00  0.00     0.179 C 
HETATM   22  N   UNL     1      10.934  30.520  57.108  1.00  0.00    -0.185 NA
HETATM   23  C   UNL     1      10.420  29.409  56.597  1.00  0.00     0.149 A 
ENDBRANCH  16  17
ENDBRANCH  12  16
ENDBRANCH   1   9
BRANCH   1  24
HETATM   24  C   UNL     1       5.110  28.374  52.147  1.00  0.00     0.082 C 
BRANCH  24  25
HETATM   25  C   UNL     1       3.935  28.523  51.194  1.00  0.00    -0.034 A 
HETATM   26  C   UNL     1       3.815  27.894  49.943  1.00  0.00     0.040 A 
HETATM   27 CL   UNL     1       4.985  26.791  49.329  1.00  0.00    -0.084 Cl
HETATM   28  C   UNL     1       2.732  28.175  49.099  1.00  0.00     0.024 A 
HETATM   29  C   UNL     1       1.764  29.106  49.470  1.00  0.00     0.002 A 
HETATM   30  C   UNL     1       1.874  29.758  50.690  1.00  0.00     0.001 A 
HETATM   31  C   UNL     1       2.946  29.471  51.540  1.00  0.00     0.009 A 
ENDBRANCH  24  25
ENDBRANCH   1  24
BRANCH   5  32
HETATM   32  C   UNL     1       7.417  24.528  52.423  1.00  0.00     0.141 C 
BRANCH  32  33
HETATM   33  C   UNL     1       7.548  23.481  53.488  1.00  0.00     0.004 A 
HETATM   34  C   UNL     1       7.640  22.014  53.141  1.00  0.00     0.007 A 
HETATM   35  C   UNL     1       8.849  22.739  53.664  1.00  0.00     0.007 A 
ENDBRANCH  32  33
ENDBRANCH   5  32
TORSDOF 7
ENDMDL
MODEL 5
REMARK VINA RESULT:      -8.8      1.566      2.236
REMARK  7 active torsions:
REMARK  status: ('A' for Active; 'I' for Inactive)
REMARK    1  A    between atoms: C_7  and  C_8 
REMARK    2  A    between atoms: C_8  and  N_9 
REMARK    3  A    between atoms: C_13  and  C_14 
REMARK    4  A    between atoms: C_14  and  C_15 
REMARK    5  A    between atoms: C_15  and  C_16 
REMARK    6  A    between atoms: N_26  and  C_27 
REMARK    7  A    between atoms: C_27  and  C_28 
ROOT
HETATM    1  C   UNL     1       6.855  24.842  54.576  1.00  0.00     0.123 C 
HETATM    2  N   UNL     1       6.113  24.757  55.823  1.00  0.00    -0.324 N 
HETATM    3  C   UNL     1       6.268  25.863  56.627  1.00  0.00     0.326 C 
HETATM    4  O   UNL     1       5.868  25.933  57.773  1.00  0.00    -0.247 OA
HETATM    5  N   UNL     1       6.895  26.824  55.904  1.00  0.00    -0.268 N 
HETATM    6  C   UNL     1       7.183  26.353  54.662  1.00  0.00     0.257 C 
HETATM    7  O   UNL     1       7.649  27.017  53.745  1.00  0.00    -0.270 OA
HETATM    8  H   UNL     1       5.829  23.885  56.264  1.00  0.00     0.165 HD
ENDROOT
BRANCH   1   9
HETATM    9  C   UNL     1       5.955  24.422  53.367  1.00  0.00     0.027 C 
HETATM   10  C   UNL     1       6.540  24.572  51.955  1.00  0.00     0.035 C 
HETATM   11  C   UNL     1       6.490  25.963  51.337  1.00  0.00     0.235 C 
HETATM   12  N   UNL     1       5.184  26.687  51.564  1.00  0.00    -0.067 N 
HETATM   13  H   UNL     1       4.543  26.360  50.831  1.00  0.00     0.280 HD
HETATM   14  C   UNL     1       4.499  26.480  52.889  1.00  0.00     0.235 C 
HETATM   15  C   UNL     1       4.542  25.034  53.341  1.00  0.00     0.035 C 
BRANCH  12  16
HETATM   16  C   UNL     1       5.342  28.189  51.334  1.00  0.00     0.277 C 
BRANCH  16  17
HETATM   17  C   UNL     1       4.410  28.775  50.343  1.00  0.00     0.011 A 
HETATM   18  C   UNL     1       4.346  28.578  48.970  1.00  0.00     0.035 A 
HETATM   19  C   UNL     1       5.165  27.726  48.068  1.00  0.00     0.070 C 
HETATM   20  N   UNL     1       3.251  29.294  48.542  1.00  0.00    -0.278 N 
HETATM   21  C   UNL     1       2.658  29.344  47.224  1.00  0.00     0.179 C 
HETATM   22  N   UNL     1       2.645  29.967  49.537  1.00  0.00    -0.185 NA
HETATM   23  C   UNL     1       3.314  29.618  50.628  1.00  0.00     0.149 A 
ENDBRANCH  16  17
ENDBRANCH  12  16
ENDBRANCH   1   9
BRANCH   1  24
HETATM   24  C   UNL     1       8.236  24.124  54.700  1.00  0.00     0.082 C 
BRANCH  24  25
HETATM   25  C   UNL     1       8.344  22.684  55.172  1.00  0.00    -0.034 A 
HETATM   26  C   UNL     1       8.300  21.549  54.344  1.00  0.00     0.040 A 
HETATM   27 CL   UNL     1       8.176  21.639  52.630  1.00  0.00    -0.084 Cl
HETATM   28  C   UNL     1       8.313  20.259  54.893  1.00  0.00     0.024 A 
HETATM   29  C   UNL     1       8.342  20.073  56.273  1.00  0.00     0.002 A 
HETATM   30  C   UNL     1       8.360  21.179  57.112  1.00  0.00     0.001 A 
HETATM   31  C   UNL     1       8.361  22.466  56.568  1.00  0.00     0.009 A 
ENDBRANCH  24  25
ENDBRANCH   1  24
BRANCH   5  32
HETATM   32  C   UNL     1       7.190  28.157  56.383  1.00  0.00     0.141 C 
BRANCH  32  33
HETATM   33  C   UNL     1       5.994  29.043  56.210  1.00  0.00     0.004 A 
HETATM   34  C   UNL     1       5.156  29.475  57.389  1.00  0.00     0.007 A 
HETATM   35  C   UNL     1       6.035  30.473  56.688  1.00  0.00     0.007 A 
ENDBRANCH  32  33
ENDBRANCH   5  32
TORSDOF 7
ENDMDL
MODEL 6
REMARK VINA RESULT:      -8.3      2.280      3.644
REMARK  7 active torsions:
REMARK  status: ('A' for Active; 'I' for Inactive)
REMARK    1  A    between atoms: C_7  and  C_8 
REMARK    2  A    between atoms: C_8  and  N_9 
REMARK    3  A    between atoms: C_13  and  C_14 
REMARK    4  A    between atoms: C_14  and  C_15 
REMARK    5  A    between atoms: C_15  and  C_16 
REMARK    6  A    between atoms: N_26  and  C_27 
REMARK    7  A    between atoms: C_27  and  C_28 
ROOT
HETATM    1  C   UNL     1       5.427  27.734  52.721  1.00  0.00     0.123 C 
HETATM    2  N   UNL     1       4.352  28.579  53.214  1.00  0.00    -0.324 N 
HETATM    3  C   UNL     1       4.619  29.142  54.441  1.00  0.00     0.326 C 
HETATM    4  O   UNL     1       3.801  29.749  55.104  1.00  0.00    -0.247 OA
HETATM    5  N   UNL     1       5.926  28.924  54.729  1.00  0.00    -0.268 N 
HETATM    6  C   UNL     1       6.503  28.199  53.734  1.00  0.00     0.257 C 
HETATM    7  O   UNL     1       7.696  27.936  53.652  1.00  0.00    -0.270 OA
HETATM    8  H   UNL     1       3.378  28.491  52.935  1.00  0.00     0.165 HD
ENDROOT
BRANCH   1   9
HETATM    9  C   UNL     1       5.739  28.054  51.222  1.00  0.00     0.027 C 
HETATM   10  C   UNL     1       5.601  29.512  50.761  1.00  0.00     0.035 C 
HETATM   11  C   UNL     1       4.195  29.997  50.433  1.00  0.00     0.235 C 
HETATM   12  N   UNL     1       3.372  29.002  49.650  1.00  0.00    -0.067 N 
HETATM   13  H   UNL     1       3.625  29.132  48.663  1.00  0.00     0.280 HD
HETATM   14  C   UNL     1       3.555  27.543  49.976  1.00  0.00     0.235 C 
HETATM   15  C   UNL     1       5.011  27.178  50.186  1.00  0.00     0.035 C 
BRANCH  12  16
HETATM   16  C   UNL     1       1.882  29.330  49.742  1.00  0.00     0.277 C 
BRANCH  16  17
HETATM   17  C   UNL     1       1.181  29.437  48.441  1.00  0.00     0.011 A 
HETATM   18  C   UNL     1       0.878  28.444  47.519  1.00  0.00     0.035 A 
HETATM   19  C   UNL     1       1.143  26.981  47.539  1.00  0.00     0.070 C 
HETATM   20  N   UNL     1       0.152  29.065  46.528  1.00  0.00    -0.278 N 
HETATM   21  C   UNL     1      -0.513  28.477  45.386  1.00  0.00     0.179 C 
HETATM   22  N   UNL     1       0.013  30.387  46.733  1.00  0.00    -0.185 NA
HETATM   23  C   UNL     1       0.592  30.603  47.907  1.00  0.00     0.149 A 
ENDBRANCH  16  17
ENDBRANCH  12  16
ENDBRANCH   1   9
BRANCH   1  24
HETATM   24  C   UNL     1       5.166  26.236  53.076  1.00  0.00     0.082 C 
BRANCH  24  25
HETATM   25  C   UNL     1       6.139  25.439  53.929  1.00  0.00    -0.034 A 
HETATM   26  C   UNL     1       7.293  24.789  53.459  1.00  0.00     0.040 A 
HETATM   27 CL   UNL     1       7.810  24.860  51.818  1.00  0.00    -0.084 Cl
HETATM   28  C   UNL     1       8.072  23.999  54.316  1.00  0.00     0.024 A 
HETATM   29  C   UNL     1       7.704  23.819  55.647  1.00  0.00     0.002 A 
HETATM   30  C   UNL     1       6.555  24.430  56.128  1.00  0.00     0.001 A 
HETATM   31  C   UNL     1       5.782  25.228  55.280  1.00  0.00     0.009 A 
ENDBRANCH  24  25
ENDBRANCH   1  24
BRANCH   5  32
HETATM   32  C   UNL     1       6.604  29.411  55.910  1.00  0.00     0.141 C 
BRANCH  32  33
HETATM   33  C   UNL     1       6.830  28.286  56.875  1.00  0.00     0.004 A 
HETATM   34  C   UNL     1       8.189  27.652  57.041  1.00  0.00     0.007 A 
HETATM   35  C   UNL     1       7.626  28.517  58.135  1.00  0.00     0.007 A 
ENDBRANCH  32  33
ENDBRANCH   5  32
TORSDOF 7
ENDMDL
MODEL 7
REMARK VINA RESULT:      -8.2      1.885      2.758
REMARK  7 active torsions:
REMARK  status: ('A' for Active; 'I' for Inactive)
REMARK    1  A    between atoms: C_7  and  C_8 
REMARK    2  A    between atoms: C_8  and  N_9 
REMARK    3  A    between atoms: C_13  and  C_14 
REMARK    4  A    between atoms: C_14  and  C_15 
REMARK    5  A    between atoms: C_15  and  C_16 
REMARK    6  A    between atoms: N_26  and  C_27 
REMARK    7  A    between atoms: C_27  and  C_28 
ROOT
HETATM    1  C   UNL     1       5.509  27.069  53.680  1.00  0.00     0.123 C 
HETATM    2  N   UNL     1       4.403  27.861  54.195  1.00  0.00    -0.324 N 
HETATM    3  C   UNL     1       4.560  28.226  55.512  1.00  0.00     0.326 C 
HETATM    4  O   UNL     1       3.691  28.750  56.181  1.00  0.00    -0.247 OA
HETATM    5  N   UNL     1       5.831  27.931  55.882  1.00  0.00    -0.268 N 
HETATM    6  C   UNL     1       6.490  27.348  54.846  1.00  0.00     0.257 C 
HETATM    7  O   UNL     1       7.681  27.067  54.835  1.00  0.00    -0.270 OA
HETATM    8  H   UNL     1       3.458  27.843  53.816  1.00  0.00     0.165 HD
ENDROOT
BRANCH   1   9
HETATM    9  C   UNL     1       5.965  27.602  52.282  1.00  0.00     0.027 C 
HETATM   10  C   UNL     1       5.786  29.100  51.996  1.00  0.00     0.035 C 
HETATM   11  C   UNL     1       4.398  29.554  51.565  1.00  0.00     0.235 C 
HETATM   12  N   UNL     1       3.734  28.632  50.570  1.00  0.00    -0.067 N 
HETATM   13  H   UNL     1       4.088  28.905  49.645  1.00  0.00     0.280 HD
HETATM   14  C   UNL     1       3.974  27.154  50.728  1.00  0.00     0.235 C 
HETATM   15  C   UNL     1       5.418  26.836  51.063  1.00  0.00     0.035 C 
BRANCH  12  16
HETATM   16  C   UNL     1       2.225  28.871  50.522  1.00  0.00     0.277 C 
BRANCH  16  17
HETATM   17  C   UNL     1       1.633  28.880  49.165  1.00  0.00     0.011 A 
HETATM   18  C   UNL     1       1.244  29.958  48.380  1.00  0.00     0.035 A 
HETATM   19  C   UNL     1       1.302  31.422  48.635  1.00  0.00     0.070 C 
HETATM   20  N   UNL     1       0.834  29.418  47.182  1.00  0.00    -0.278 N 
HETATM   21  C   UNL     1       0.440  30.097  45.968  1.00  0.00     0.179 C 
HETATM   22  N   UNL     1       0.892  28.074  47.168  1.00  0.00    -0.185 NA
HETATM   23  C   UNL     1       1.416  27.753  48.343  1.00  0.00     0.149 A 
ENDBRANCH  16  17
ENDBRANCH  12  16
ENDBRANCH   1   9
BRANCH   1  24
HETATM   24  C   UNL     1       5.194  25.543  53.778  1.00  0.00     0.082 C 
BRANCH  24  25
HETATM   25  C   UNL     1       6.297  24.514  53.963  1.00  0.00    -0.034 A 
HETATM   26  C   UNL     1       6.774  24.043  55.199  1.00  0.00     0.040 A 
HETATM   27 CL   UNL     1       6.115  24.536  56.711  1.00  0.00    -0.084 Cl
HETATM   28  C   UNL     1       7.862  23.163  55.260  1.00  0.00     0.024 A 
HETATM   29  C   UNL     1       8.513  22.755  54.098  1.00  0.00     0.002 A 
HETATM   30  C   UNL     1       8.076  23.226  52.868  1.00  0.00     0.001 A 
HETATM   31  C   UNL     1       6.983  24.094  52.802  1.00  0.00     0.009 A 
ENDBRANCH  24  25
ENDBRANCH   1  24
BRANCH   5  32
HETATM   32  C   UNL     1       6.399  28.217  57.181  1.00  0.00     0.141 C 
BRANCH  32  33
HETATM   33  C   UNL     1       7.180  29.496  57.131  1.00  0.00     0.004 A 
HETATM   34  C   UNL     1       7.851  30.057  58.362  1.00  0.00     0.007 A 
HETATM   35  C   UNL     1       8.683  29.471  57.255  1.00  0.00     0.007 A 
ENDBRANCH  32  33
ENDBRANCH   5  32
TORSDOF 7
ENDMDL
MODEL 8
REMARK VINA RESULT:      -8.2      4.495      7.477
REMARK  7 active torsions:
REMARK  status: ('A' for Active; 'I' for Inactive)
REMARK    1  A    between atoms: C_7  and  C_8 
REMARK    2  A    between atoms: C_8  and  N_9 
REMARK    3  A    between atoms: C_13  and  C_14 
REMARK    4  A    between atoms: C_14  and  C_15 
REMARK    5  A    between atoms: C_15  and  C_16 
REMARK    6  A    between atoms: N_26  and  C_27 
REMARK    7  A    between atoms: C_27  and  C_28 
ROOT
HETATM    1  C   UNL     1       6.058  28.674  56.817  1.00  0.00     0.123 C 
HETATM    2  N   UNL     1       6.590  29.241  55.589  1.00  0.00    -0.324 N 
HETATM    3  C   UNL     1       6.840  28.300  54.617  1.00  0.00     0.326 C 
HETATM    4  O   UNL     1       7.430  28.533  53.579  1.00  0.00    -0.247 OA
HETATM    5  N   UNL     1       6.290  27.127  55.015  1.00  0.00    -0.268 N 
HETATM    6  C   UNL     1       5.722  27.276  56.241  1.00  0.00     0.257 C 
HETATM    7  O   UNL     1       5.055  26.428  56.819  1.00  0.00    -0.270 OA
HETATM    8  H   UNL     1       7.091  30.125  55.534  1.00  0.00     0.165 HD
ENDROOT
BRANCH   1   9
HETATM    9  C   UNL     1       4.830  29.501  57.321  1.00  0.00     0.027 C 
HETATM   10  C   UNL     1       3.634  29.654  56.369  1.00  0.00     0.035 C 
HETATM   11  C   UNL     1       3.747  30.729  55.296  1.00  0.00     0.235 C 
HETATM   12  N   UNL     1       4.338  32.028  55.790  1.00  0.00    -0.067 N 
HETATM   13  H   UNL     1       3.562  32.556  56.208  1.00  0.00     0.280 HD
HETATM   14  C   UNL     1       5.434  31.943  56.819  1.00  0.00     0.235 C 
HETATM   15  C   UNL     1       5.149  30.899  57.881  1.00  0.00     0.035 C 
BRANCH  12  16
HETATM   16  C   UNL     1       4.837  32.881  54.625  1.00  0.00     0.277 C 
BRANCH  16  17
HETATM   17  C   UNL     1       5.143  34.290  54.964  1.00  0.00     0.011 A 
HETATM   18  C   UNL     1       5.904  35.219  54.266  1.00  0.00     0.035 A 
HETATM   19  C   UNL     1       6.636  35.110  52.977  1.00  0.00     0.070 C 
HETATM   20  N   UNL     1       5.799  36.395  54.976  1.00  0.00    -0.278 N 
HETATM   21  C   UNL     1       6.298  37.708  54.635  1.00  0.00     0.179 C 
HETATM   22  N   UNL     1       5.066  36.265  56.096  1.00  0.00    -0.185 NA
HETATM   23  C   UNL     1       4.633  35.012  56.065  1.00  0.00     0.149 A 
ENDBRANCH  16  17
ENDBRANCH  12  16
ENDBRANCH   1   9
BRANCH   1  24
HETATM   24  C   UNL     1       7.199  28.417  57.852  1.00  0.00     0.082 C 
BRANCH  24  25
HETATM   25  C   UNL     1       8.497  29.208  57.816  1.00  0.00    -0.034 A 
HETATM   26  C   UNL     1       8.781  30.344  58.594  1.00  0.00     0.040 A 
HETATM   27 CL   UNL     1       7.692  30.978  59.767  1.00  0.00    -0.084 Cl
HETATM   28  C   UNL     1       9.975  31.057  58.414  1.00  0.00     0.024 A 
HETATM   29  C   UNL     1      10.894  30.671  57.443  1.00  0.00     0.002 A 
HETATM   30  C   UNL     1      10.625  29.566  56.646  1.00  0.00     0.001 A 
HETATM   31  C   UNL     1       9.442  28.846  56.830  1.00  0.00     0.009 A 
ENDBRANCH  24  25
ENDBRANCH   1  24
BRANCH   5  32
HETATM   32  C   UNL     1       6.293  25.907  54.237  1.00  0.00     0.141 C 
BRANCH  32  33
HETATM   33  C   UNL     1       5.135  25.900  53.285  1.00  0.00     0.004 A 
HETATM   34  C   UNL     1       5.344  25.946  51.791  1.00  0.00     0.007 A 
HETATM   35  C   UNL     1       4.855  24.682  52.442  1.00  0.00     0.007 A 
ENDBRANCH  32  33
ENDBRANCH   5  32
TORSDOF 7
ENDMDL
MODEL 9
REMARK VINA RESULT:      -8.2      3.142      4.976
REMARK  7 active torsions:
REMARK  status: ('A' for Active; 'I' for Inactive)
REMARK    1  A    between atoms: C_7  and  C_8 
REMARK    2  A    between atoms: C_8  and  N_9 
REMARK    3  A    between atoms: C_13  and  C_14 
REMARK    4  A    between atoms: C_14  and  C_15 
REMARK    5  A    between atoms: C_15  and  C_16 
REMARK    6  A    between atoms: N_26  and  C_27 
REMARK    7  A    between atoms: C_27  and  C_28 
ROOT
HETATM    1  C   UNL     1       5.465  28.137  56.487  1.00  0.00     0.123 C 
HETATM    2  N   UNL     1       4.516  27.138  56.951  1.00  0.00    -0.324 N 
HETATM    3  C   UNL     1       5.092  25.915  57.208  1.00  0.00     0.326 C 
HETATM    4  O   UNL     1       4.462  24.904  57.450  1.00  0.00    -0.247 OA
HETATM    5  N   UNL     1       6.438  26.069  57.174  1.00  0.00    -0.268 N 
HETATM    6  C   UNL     1       6.749  27.355  56.863  1.00  0.00     0.257 C 
HETATM    7  O   UNL     1       7.877  27.830  56.863  1.00  0.00    -0.270 OA
HETATM    8  H   UNL     1       3.517  27.162  56.756  1.00  0.00     0.165 HD
ENDROOT
BRANCH   1   9
HETATM    9  C   UNL     1       5.261  29.489  57.248  1.00  0.00     0.027 C 
HETATM   10  C   UNL     1       3.838  29.841  57.707  1.00  0.00     0.035 C 
HETATM   11  C   UNL     1       2.911  30.444  56.660  1.00  0.00     0.235 C 
HETATM   12  N   UNL     1       3.570  31.480  55.781  1.00  0.00    -0.067 N 
HETATM   13  H   UNL     1       3.528  32.366  56.300  1.00  0.00     0.280 HD
HETATM   14  C   UNL     1       5.008  31.249  55.398  1.00  0.00     0.235 C 
HETATM   15  C   UNL     1       5.839  30.738  56.558  1.00  0.00     0.035 C 
BRANCH  12  16
HETATM   16  C   UNL     1       2.764  31.710  54.504  1.00  0.00     0.277 C 
BRANCH  16  17
HETATM   17  C   UNL     1       3.547  31.651  53.248  1.00  0.00     0.011 A 
HETATM   18  C   UNL     1       3.731  30.589  52.373  1.00  0.00     0.035 A 
HETATM   19  C   UNL     1       3.208  29.198  52.404  1.00  0.00     0.070 C 
HETATM   20  N   UNL     1       4.474  31.091  51.328  1.00  0.00    -0.278 N 
HETATM   21  C   UNL     1       4.851  30.447  50.090  1.00  0.00     0.179 C 
HETATM   22  N   UNL     1       4.812  32.381  51.501  1.00  0.00    -0.185 NA
HETATM   23  C   UNL     1       4.216  32.732  52.633  1.00  0.00     0.149 A 
ENDBRANCH  16  17
ENDBRANCH  12  16
ENDBRANCH   1   9
BRANCH   1  24
HETATM   24  C   UNL     1       5.482  28.208  54.928  1.00  0.00     0.082 C 
BRANCH  24  25
HETATM   25  C   UNL     1       6.042  27.073  54.086  1.00  0.00    -0.034 A 
HETATM   26  C   UNL     1       7.349  27.006  53.573  1.00  0.00     0.040 A 
HETATM   27 CL   UNL     1       8.545  28.203  53.887  1.00  0.00    -0.084 Cl
HETATM   28  C   UNL     1       7.735  25.957  52.726  1.00  0.00     0.024 A 
HETATM   29  C   UNL     1       6.823  24.973  52.352  1.00  0.00     0.002 A 
HETATM   30  C   UNL     1       5.520  25.032  52.826  1.00  0.00     0.001 A 
HETATM   31  C   UNL     1       5.135  26.068  53.681  1.00  0.00     0.009 A 
ENDBRANCH  24  25
ENDBRANCH   1  24
BRANCH   5  32
HETATM   32  C   UNL     1       7.396  25.020  57.450  1.00  0.00     0.141 C 
BRANCH  32  33
HETATM   33  C   UNL     1       7.907  24.439  56.165  1.00  0.00     0.004 A 
HETATM   34  C   UNL     1       8.622  23.111  56.132  1.00  0.00     0.007 A 
HETATM   35  C   UNL     1       7.237  23.232  55.560  1.00  0.00     0.007 A 
ENDBRANCH  32  33
ENDBRANCH   5  32
TORSDOF 7
ENDMDL
MODEL 10
REMARK VINA RESULT:      -8.1      2.650      5.800
REMARK  7 active torsions:
REMARK  status: ('A' for Active; 'I' for Inactive)
REMARK    1  A    between atoms: C_7  and  C_8 
REMARK    2  A    between atoms: C_8  and  N_9 
REMARK    3  A    between atoms: C_13  and  C_14 
REMARK    4  A    between atoms: C_14  and  C_15 
REMARK    5  A    between atoms: C_15  and  C_16 
REMARK    6  A    between atoms: N_26  and  C_27 
REMARK    7  A    between atoms: C_27  and  C_28 
ROOT
HETATM    1  C   UNL     1       6.335  28.513  56.518  1.00  0.00     0.123 C 
HETATM    2  N   UNL     1       7.060  29.099  55.402  1.00  0.00    -0.324 N 
HETATM    3  C   UNL     1       7.731  28.170  54.640  1.00  0.00     0.326 C 
HETATM    4  O   UNL     1       8.521  28.455  53.761  1.00  0.00    -0.247 OA
HETATM    5  N   UNL     1       7.322  26.936  55.023  1.00  0.00    -0.268 N 
HETATM    6  C   UNL     1       6.430  27.042  56.044  1.00  0.00     0.257 C 
HETATM    7  O   UNL     1       5.801  26.112  56.532  1.00  0.00    -0.270 OA
HETATM    8  H   UNL     1       7.385  30.063  55.371  1.00  0.00     0.165 HD
ENDROOT
BRANCH   1   9
HETATM    9  C   UNL     1       4.885  29.096  56.601  1.00  0.00     0.027 C 
HETATM   10  C   UNL     1       3.839  28.548  55.618  1.00  0.00     0.035 C 
HETATM   11  C   UNL     1       3.849  29.133  54.212  1.00  0.00     0.235 C 
HETATM   12  N   UNL     1       4.036  30.631  54.173  1.00  0.00    -0.067 N 
HETATM   13  H   UNL     1       3.105  31.041  54.315  1.00  0.00     0.280 HD
HETATM   14  C   UNL     1       4.959  31.240  55.195  1.00  0.00     0.235 C 
HETATM   15  C   UNL     1       4.778  30.631  56.571  1.00  0.00     0.035 C 
BRANCH  12  16
HETATM   16  C   UNL     1       4.484  31.092  52.787  1.00  0.00     0.277 C 
BRANCH  16  17
HETATM   17  C   UNL     1       3.748  30.485  51.654  1.00  0.00     0.011 A 
HETATM   18  C   UNL     1       4.121  29.439  50.820  1.00  0.00     0.035 A 
HETATM   19  C   UNL     1       5.347  28.600  50.796  1.00  0.00     0.070 C 
HETATM   20  N   UNL     1       3.043  29.221  49.991  1.00  0.00    -0.278 N 
HETATM   21  C   UNL     1       2.848  28.176  49.012  1.00  0.00     0.179 C 
HETATM   22  N   UNL     1       2.034  30.083  50.210  1.00  0.00    -0.185 NA
HETATM   23  C   UNL     1       2.438  30.813  51.240  1.00  0.00     0.149 A 
ENDBRANCH  16  17
ENDBRANCH  12  16
ENDBRANCH   1   9
BRANCH   1  24
HETATM   24  C   UNL     1       7.186  28.569  57.826  1.00  0.00     0.082 C 
BRANCH  24  25
HETATM   25  C   UNL     1       8.414  29.457  57.939  1.00  0.00    -0.034 A 
HETATM   26  C   UNL     1       8.448  30.729  58.536  1.00  0.00     0.040 A 
HETATM   27 CL   UNL     1       7.082  31.449  59.296  1.00  0.00    -0.084 Cl
HETATM   28  C   UNL     1       9.614  31.507  58.502  1.00  0.00     0.024 A 
HETATM   29  C   UNL     1      10.756  31.048  57.851  1.00  0.00     0.002 A 
HETATM   30  C   UNL     1      10.739  29.806  57.233  1.00  0.00     0.001 A 
HETATM   31  C   UNL     1       9.583  29.022  57.275  1.00  0.00     0.009 A 
ENDBRANCH  24  25
ENDBRANCH   1  24
BRANCH   5  32
HETATM   32  C   UNL     1       7.758  25.697  54.418  1.00  0.00     0.141 C 
BRANCH  32  33
HETATM   33  C   UNL     1       7.129  25.533  53.068  1.00  0.00     0.004 A 
HETATM   34  C   UNL     1       7.340  24.284  52.247  1.00  0.00     0.007 A 
HETATM   35  C   UNL     1       5.999  24.554  52.872  1.00  0.00     0.007 A 
ENDBRANCH  32  33
ENDBRANCH   5  32
TORSDOF 7
ENDMDL
