MODEL 1
REMARK VINA RESULT:      -9.4      0.000      0.000
REMARK  6 active torsions:
REMARK  status: ('A' for Active; 'I' for Inactive)
REMARK    1  A    between atoms: C_6  and  C_7 
REMARK    2  A    between atoms: C_7  and  N_8 
REMARK    3  A    between atoms: C_12  and  C_13 
REMARK    4  A    between atoms: C_13  and  C_14 
REMARK    5  A    between atoms: N_23  and  C_24 
REMARK    6  A    between atoms: C_24  and  C_25 
ROOT
HETATM    1  C   UNL     1       6.946  24.448  54.701  1.00  0.00     0.149 C 
HETATM    2  N   UNL     1       8.028  25.243  54.135  1.00  0.00    -0.220 NA
HETATM    3  C   UNL     1       7.701  25.702  52.875  1.00  0.00     0.304 C 
HETATM    4  O   UNL     1       8.513  26.247  52.148  1.00  0.00    -0.253 OA
HETATM    5  N   UNL     1       6.391  25.456  52.631  1.00  0.00    -0.270 N 
HETATM    6  C   UNL     1       5.839  24.761  53.668  1.00  0.00     0.257 C 
HETATM    7  O   UNL     1       4.664  24.440  53.775  1.00  0.00    -0.270 OA
HETATM    8  H   UNL     1       8.964  24.842  54.157  1.00  0.00     0.134 HD
ENDROOT
BRANCH   1   9
HETATM    9  C   UNL     1       6.544  24.918  56.136  1.00  0.00     0.028 C 
HETATM   10  C   UNL     1       5.413  25.969  56.169  1.00  0.00     0.035 C 
HETATM   11  C   UNL     1       5.847  27.393  55.830  1.00  0.00     0.235 C 
HETATM   12  N   UNL     1       7.027  27.806  56.676  1.00  0.00    -0.067 N 
HETATM   13  H   UNL     1       6.696  27.840  57.646  1.00  0.00     0.280 HD
HETATM   14  C   UNL     1       8.180  26.835  56.613  1.00  0.00     0.235 C 
HETATM   15  C   UNL     1       7.706  25.444  57.002  1.00  0.00     0.035 C 
BRANCH  12  16
HETATM   16  C   UNL     1       7.509  29.213  56.352  1.00  0.00     0.273 C 
BRANCH  16  17
HETATM   17  C   UNL     1       8.105  29.944  57.528  1.00  0.00    -0.027 A 
HETATM   18  C   UNL     1       9.491  30.169  57.664  1.00  0.00    -0.054 A 
HETATM   19  C   UNL     1       9.971  30.814  58.819  1.00  0.00     0.014 A 
HETATM   20  C   UNL     1      10.489  29.755  56.614  1.00  0.00     0.049 C 
HETATM   21  C   UNL     1       9.100  31.260  59.820  1.00  0.00    -0.061 A 
HETATM   22  C   UNL     1       9.631  31.930  61.054  1.00  0.00     0.048 C 
HETATM   23  C   UNL     1       7.731  31.037  59.677  1.00  0.00     0.007 A 
HETATM   24  C   UNL     1       7.238  30.394  58.543  1.00  0.00     0.010 A 
ENDBRANCH  16  17
ENDBRANCH  12  16
ENDBRANCH   1   9
BRANCH   1  25
HETATM   25  C   UNL     1       7.335  22.970  54.658  1.00  0.00     0.067 A 
HETATM   26  N   UNL     1       7.375  22.340  55.870  1.00  0.00    -0.263 NA
HETATM   27  C   UNL     1       7.738  21.036  55.883  1.00  0.00     0.117 A 
HETATM   28  C   UNL     1       8.024  20.308  54.742  1.00  0.00     0.019 A 
HETATM   29  C   UNL     1       7.937  20.951  53.513  1.00  0.00     0.003 A 
HETATM   30  C   UNL     1       7.585  22.297  53.464  1.00  0.00     0.030 A 
ENDBRANCH   1  25
BRANCH   5  31
HETATM   31  C   UNL     1       5.708  25.792  51.397  1.00  0.00     0.168 C 
BRANCH  31  32
HETATM   32  C   UNL     1       5.447  27.289  51.222  1.00  0.00     0.140 C 
HETATM   33  O   UNL     1       4.853  27.804  52.430  1.00  0.00    -0.384 OA
HETATM   34  C   UNL     1       3.666  28.530  52.086  1.00  0.00     0.168 C 
HETATM   35  C   UNL     1       3.791  28.859  50.617  1.00  0.00     0.029 C 
HETATM   36  C   UNL     1       4.488  27.630  50.088  1.00  0.00     0.036 C 
ENDBRANCH  31  32
ENDBRANCH   5  31
TORSDOF 6
ENDMDL
MODEL 2
REMARK VINA RESULT:      -9.4      2.572      7.453
REMARK  6 active torsions:
REMARK  status: ('A' for Active; 'I' for Inactive)
REMARK    1  A    between atoms: C_6  and  C_7 
REMARK    2  A    between atoms: C_7  and  N_8 
REMARK    3  A    between atoms: C_12  and  C_13 
REMARK    4  A    between atoms: C_13  and  C_14 
REMARK    5  A    between atoms: N_23  and  C_24 
REMARK    6  A    between atoms: C_24  and  C_25 
ROOT
HETATM    1  C   UNL     1       5.320  27.935  52.776  1.00  0.00     0.149 C 
HETATM    2  N   UNL     1       6.771  27.890  52.887  1.00  0.00    -0.220 NA
HETATM    3  C   UNL     1       7.197  28.442  54.079  1.00  0.00     0.304 C 
HETATM    4  O   UNL     1       8.372  28.660  54.314  1.00  0.00    -0.253 OA
HETATM    5  N   UNL     1       6.127  28.666  54.879  1.00  0.00    -0.270 N 
HETATM    6  C   UNL     1       4.971  28.354  54.222  1.00  0.00     0.257 C 
HETATM    7  O   UNL     1       3.843  28.391  54.693  1.00  0.00    -0.270 OA
HETATM    8  H   UNL     1       7.313  28.238  52.097  1.00  0.00     0.134 HD
ENDROOT
BRANCH   1   9
HETATM    9  C   UNL     1       4.702  26.545  52.415  1.00  0.00     0.028 C 
HETATM   10  C   UNL     1       4.734  25.515  53.565  1.00  0.00     0.035 C 
HETATM   11  C   UNL     1       6.088  24.848  53.794  1.00  0.00     0.235 C 
HETATM   12  N   UNL     1       6.624  24.273  52.506  1.00  0.00    -0.067 N 
HETATM   13  H   UNL     1       5.984  23.518  52.232  1.00  0.00     0.280 HD
HETATM   14  C   UNL     1       6.672  25.272  51.377  1.00  0.00     0.235 C 
HETATM   15  C   UNL     1       5.293  25.874  51.159  1.00  0.00     0.035 C 
BRANCH  12  16
HETATM   16  C   UNL     1       7.986  23.619  52.685  1.00  0.00     0.273 C 
BRANCH  16  17
HETATM   17  C   UNL     1       8.160  22.912  54.005  1.00  0.00    -0.027 A 
HETATM   18  C   UNL     1       8.015  21.516  54.148  1.00  0.00    -0.054 A 
HETATM   19  C   UNL     1       8.142  20.942  55.427  1.00  0.00     0.014 A 
HETATM   20  C   UNL     1       7.739  20.603  52.983  1.00  0.00     0.049 C 
HETATM   21  C   UNL     1       8.434  21.722  56.552  1.00  0.00    -0.061 A 
HETATM   22  C   UNL     1       8.547  21.095  57.911  1.00  0.00     0.048 C 
HETATM   23  C   UNL     1       8.578  23.101  56.401  1.00  0.00     0.007 A 
HETATM   24  C   UNL     1       8.449  23.689  55.144  1.00  0.00     0.010 A 
ENDBRANCH  16  17
ENDBRANCH  12  16
ENDBRANCH   1   9
BRANCH   1  25
HETATM   25  C   UNL     1       4.928  29.025  51.779  1.00  0.00     0.067 A 
HETATM   26  N   UNL     1       5.968  29.615  51.118  1.00  0.00    -0.263 NA
HETATM   27  C   UNL     1       5.670  30.604  50.243  1.00  0.00     0.117 A 
HETATM   28  C   UNL     1       4.380  31.011  49.956  1.00  0.00     0.019 A 
HETATM   29  C   UNL     1       3.329  30.372  50.602  1.00  0.00     0.003 A 
HETATM   30  C   UNL     1       3.600  29.364  51.524  1.00  0.00     0.030 A 
ENDBRANCH   1  25
BRANCH   5  31
HETATM   31  C   UNL     1       6.199  29.253  56.203  1.00  0.00     0.168 C 
BRANCH  31  32
HETATM   32  C   UNL     1       6.522  28.246  57.308  1.00  0.00     0.140 C 
HETATM   33  O   UNL     1       7.954  28.147  57.447  1.00  0.00    -0.384 OA
HETATM   34  C   UNL     1       8.328  26.765  57.395  1.00  0.00     0.168 C 
HETATM   35  C   UNL     1       7.071  25.983  57.699  1.00  0.00     0.029 C 
HETATM   36  C   UNL     1       6.016  26.834  57.038  1.00  0.00     0.036 C 
ENDBRANCH  31  32
ENDBRANCH   5  31
TORSDOF 6
ENDMDL
MODEL 3
REMARK VINA RESULT:      -9.3      1.617      2.347
REMARK  6 active torsions:
REMARK  status: ('A' for Active; 'I' for Inactive)
REMARK    1  A    between atoms: C_6  and  C_7 
REMARK    2  A    between atoms: C_7  and  N_8 
REMARK    3  A    between atoms: C_12  and  C_13 
REMARK    4  A    between atoms: C_13  and  C_14 
REMARK    5  A    between atoms: N_23  and  C_24 
REMARK    6  A    between atoms: C_24  and  C_25 
ROOT
HETATM    1  C   UNL     1       6.893  25.943  55.062  1.00  0.00     0.149 C 
HETATM    2  N   UNL     1       7.558  27.115  54.508  1.00  0.00    -0.220 NA
HETATM    3  C   UNL     1       6.788  27.708  53.528  1.00  0.00     0.304 C 
HETATM    4  O   UNL     1       7.212  28.602  52.816  1.00  0.00    -0.253 OA
HETATM    5  N   UNL     1       5.554  27.149  53.525  1.00  0.00    -0.270 N 
HETATM    6  C   UNL     1       5.494  26.128  54.428  1.00  0.00     0.257 C 
HETATM    7  O   UNL     1       4.503  25.466  54.703  1.00  0.00    -0.270 OA
HETATM    8  H   UNL     1       8.526  27.006  54.210  1.00  0.00     0.134 HD
ENDROOT
BRANCH   1   9
HETATM    9  C   UNL     1       6.826  25.972  56.623  1.00  0.00     0.028 C 
HETATM   10  C   UNL     1       5.730  26.897  57.197  1.00  0.00     0.035 C 
HETATM   11  C   UNL     1       6.073  28.384  57.189  1.00  0.00     0.235 C 
HETATM   12  N   UNL     1       7.414  28.626  57.839  1.00  0.00    -0.067 N 
HETATM   13  H   UNL     1       7.312  28.370  58.827  1.00  0.00     0.280 HD
HETATM   14  C   UNL     1       8.524  27.788  57.255  1.00  0.00     0.235 C 
HETATM   15  C   UNL     1       8.154  26.316  57.327  1.00  0.00     0.035 C 
BRANCH  12  16
HETATM   16  C   UNL     1       7.806  30.096  57.830  1.00  0.00     0.273 C 
BRANCH  16  17
HETATM   17  C   UNL     1       7.823  30.736  59.195  1.00  0.00    -0.027 A 
HETATM   18  C   UNL     1       6.860  31.681  59.606  1.00  0.00    -0.054 A 
HETATM   19  C   UNL     1       6.979  32.271  60.878  1.00  0.00     0.014 A 
HETATM   20  C   UNL     1       5.694  32.084  58.743  1.00  0.00     0.049 C 
HETATM   21  C   UNL     1       8.016  31.920  61.752  1.00  0.00    -0.061 A 
HETATM   22  C   UNL     1       8.138  32.573  63.098  1.00  0.00     0.048 C 
HETATM   23  C   UNL     1       8.962  30.983  61.338  1.00  0.00     0.007 A 
HETATM   24  C   UNL     1       8.865  30.393  60.079  1.00  0.00     0.010 A 
ENDBRANCH  16  17
ENDBRANCH  12  16
ENDBRANCH   1   9
BRANCH   1  25
HETATM   25  C   UNL     1       7.574  24.682  54.530  1.00  0.00     0.067 A 
HETATM   26  N   UNL     1       8.288  23.970  55.451  1.00  0.00    -0.263 NA
HETATM   27  C   UNL     1       8.929  22.858  55.020  1.00  0.00     0.117 A 
HETATM   28  C   UNL     1       8.862  22.390  53.720  1.00  0.00     0.019 A 
HETATM   29  C   UNL     1       8.096  23.101  52.804  1.00  0.00     0.003 A 
HETATM   30  C   UNL     1       7.440  24.260  53.208  1.00  0.00     0.030 A 
ENDBRANCH   1  25
BRANCH   5  31
HETATM   31  C   UNL     1       4.486  27.518  52.616  1.00  0.00     0.168 C 
BRANCH  31  32
HETATM   32  C   UNL     1       4.908  27.546  51.146  1.00  0.00     0.140 C 
HETATM   33  O   UNL     1       3.950  28.322  50.398  1.00  0.00    -0.384 OA
HETATM   34  C   UNL     1       3.516  27.554  49.269  1.00  0.00     0.168 C 
HETATM   35  C   UNL     1       4.566  26.487  49.063  1.00  0.00     0.029 C 
HETATM   36  C   UNL     1       4.964  26.174  50.484  1.00  0.00     0.036 C 
ENDBRANCH  31  32
ENDBRANCH   5  31
TORSDOF 6
ENDMDL
MODEL 4
REMARK VINA RESULT:      -9.1      2.284      7.402
REMARK  6 active torsions:
REMARK  status: ('A' for Active; 'I' for Inactive)
REMARK    1  A    between atoms: C_6  and  C_7 
REMARK    2  A    between atoms: C_7  and  N_8 
REMARK    3  A    between atoms: C_12  and  C_13 
REMARK    4  A    between atoms: C_13  and  C_14 
REMARK    5  A    between atoms: N_23  and  C_24 
REMARK    6  A    between atoms: C_24  and  C_25 
ROOT
HETATM    1  C   UNL     1       5.573  27.878  53.975  1.00  0.00     0.149 C 
HETATM    2  N   UNL     1       6.889  28.348  53.567  1.00  0.00    -0.220 NA
HETATM    3  C   UNL     1       7.801  28.234  54.597  1.00  0.00     0.304 C 
HETATM    4  O   UNL     1       8.918  28.716  54.537  1.00  0.00    -0.253 OA
HETATM    5  N   UNL     1       7.249  27.521  55.609  1.00  0.00    -0.270 N 
HETATM    6  C   UNL     1       5.950  27.219  55.322  1.00  0.00     0.257 C 
HETATM    7  O   UNL     1       5.201  26.536  56.006  1.00  0.00    -0.270 OA
HETATM    8  H   UNL     1       6.942  29.263  53.119  1.00  0.00     0.134 HD
ENDROOT
BRANCH   1   9
HETATM    9  C   UNL     1       4.970  26.839  52.975  1.00  0.00     0.028 C 
HETATM   10  C   UNL     1       4.700  25.447  53.588  1.00  0.00     0.035 C 
HETATM   11  C   UNL     1       5.936  24.565  53.752  1.00  0.00     0.235 C 
HETATM   12  N   UNL     1       6.700  24.472  52.454  1.00  0.00    -0.067 N 
HETATM   13  H   UNL     1       6.093  23.979  51.789  1.00  0.00     0.280 HD
HETATM   14  C   UNL     1       7.042  25.817  51.861  1.00  0.00     0.235 C 
HETATM   15  C   UNL     1       5.776  26.637  51.676  1.00  0.00     0.035 C 
BRANCH  12  16
HETATM   16  C   UNL     1       7.955  23.621  52.580  1.00  0.00     0.273 C 
BRANCH  16  17
HETATM   17  C   UNL     1       8.120  22.964  53.927  1.00  0.00    -0.027 A 
HETATM   18  C   UNL     1       8.012  21.570  54.115  1.00  0.00    -0.054 A 
HETATM   19  C   UNL     1       8.128  21.044  55.415  1.00  0.00     0.014 A 
HETATM   20  C   UNL     1       7.788  20.611  52.977  1.00  0.00     0.049 C 
HETATM   21  C   UNL     1       8.373  21.869  56.519  1.00  0.00    -0.061 A 
HETATM   22  C   UNL     1       8.474  21.292  57.901  1.00  0.00     0.048 C 
HETATM   23  C   UNL     1       8.481  23.246  56.324  1.00  0.00     0.007 A 
HETATM   24  C   UNL     1       8.363  23.787  55.045  1.00  0.00     0.010 A 
ENDBRANCH  16  17
ENDBRANCH  12  16
ENDBRANCH   1   9
BRANCH   1  25
HETATM   25  C   UNL     1       4.655  29.081  54.190  1.00  0.00     0.067 A 
HETATM   26  N   UNL     1       4.341  29.787  53.063  1.00  0.00    -0.263 NA
HETATM   27  C   UNL     1       3.550  30.876  53.209  1.00  0.00     0.117 A 
HETATM   28  C   UNL     1       3.016  31.279  54.419  1.00  0.00     0.019 A 
HETATM   29  C   UNL     1       3.308  30.526  55.550  1.00  0.00     0.003 A 
HETATM   30  C   UNL     1       4.134  29.411  55.440  1.00  0.00     0.030 A 
ENDBRANCH   1  25
BRANCH   5  31
HETATM   31  C   UNL     1       7.917  27.218  56.860  1.00  0.00     0.168 C 
BRANCH  31  32
HETATM   32  C   UNL     1       7.794  28.322  57.910  1.00  0.00     0.140 C 
HETATM   33  O   UNL     1       6.543  29.014  57.718  1.00  0.00    -0.384 OA
HETATM   34  C   UNL     1       6.800  30.422  57.652  1.00  0.00     0.168 C 
HETATM   35  C   UNL     1       8.159  30.626  58.280  1.00  0.00     0.029 C 
HETATM   36  C   UNL     1       8.888  29.381  57.838  1.00  0.00     0.036 C 
ENDBRANCH  31  32
ENDBRANCH   5  31
TORSDOF 6
ENDMDL
MODEL 5
REMARK VINA RESULT:      -8.9      2.343      8.302
REMARK  6 active torsions:
REMARK  status: ('A' for Active; 'I' for Inactive)
REMARK    1  A    between atoms: C_6  and  C_7 
REMARK    2  A    between atoms: C_7  and  N_8 
REMARK    3  A    between atoms: C_12  and  C_13 
REMARK    4  A    between atoms: C_13  and  C_14 
REMARK    5  A    between atoms: N_23  and  C_24 
REMARK    6  A    between atoms: C_24  and  C_25 
ROOT
HETATM    1  C   UNL     1       6.339  27.130  54.361  1.00  0.00     0.149 C 
HETATM    2  N   UNL     1       7.124  27.037  53.137  1.00  0.00    -0.220 NA
HETATM    3  C   UNL     1       7.545  25.742  52.912  1.00  0.00     0.304 C 
HETATM    4  O   UNL     1       8.348  25.458  52.040  1.00  0.00    -0.253 OA
HETATM    5  N   UNL     1       6.922  24.909  53.781  1.00  0.00    -0.270 N 
HETATM    6  C   UNL     1       6.149  25.623  54.650  1.00  0.00     0.257 C 
HETATM    7  O   UNL     1       5.419  25.158  55.514  1.00  0.00    -0.270 OA
HETATM    8  H   UNL     1       7.884  27.705  53.017  1.00  0.00     0.134 HD
ENDROOT
BRANCH   1   9
HETATM    9  C   UNL     1       4.970  27.851  54.143  1.00  0.00     0.028 C 
HETATM   10  C   UNL     1       3.982  27.083  53.238  1.00  0.00     0.035 C 
HETATM   11  C   UNL     1       4.268  27.184  51.741  1.00  0.00     0.235 C 
HETATM   12  N   UNL     1       4.413  28.626  51.322  1.00  0.00    -0.067 N 
HETATM   13  H   UNL     1       3.497  29.067  51.461  1.00  0.00     0.280 HD
HETATM   14  C   UNL     1       5.423  29.391  52.142  1.00  0.00     0.235 C 
HETATM   15  C   UNL     1       5.069  29.297  53.617  1.00  0.00     0.035 C 
BRANCH  12  16
HETATM   16  C   UNL     1       4.724  28.772  49.840  1.00  0.00     0.273 C 
BRANCH  16  17
HETATM   17  C   UNL     1       3.586  28.378  48.932  1.00  0.00    -0.027 A 
HETATM   18  C   UNL     1       3.704  27.365  47.957  1.00  0.00    -0.054 A 
HETATM   19  C   UNL     1       2.610  27.096  47.114  1.00  0.00     0.014 A 
HETATM   20  C   UNL     1       4.954  26.544  47.783  1.00  0.00     0.049 C 
HETATM   21  C   UNL     1       1.402  27.792  47.240  1.00  0.00    -0.061 A 
HETATM   22  C   UNL     1       0.251  27.504  46.320  1.00  0.00     0.048 C 
HETATM   23  C   UNL     1       1.293  28.790  48.208  1.00  0.00     0.007 A 
HETATM   24  C   UNL     1       2.368  29.076  49.048  1.00  0.00     0.010 A 
ENDBRANCH  16  17
ENDBRANCH  12  16
ENDBRANCH   1   9
BRANCH   1  25
HETATM   25  C   UNL     1       7.183  27.795  55.448  1.00  0.00     0.067 A 
HETATM   26  N   UNL     1       8.217  28.566  54.996  1.00  0.00    -0.263 NA
HETATM   27  C   UNL     1       9.007  29.155  55.924  1.00  0.00     0.117 A 
HETATM   28  C   UNL     1       8.796  29.054  57.287  1.00  0.00     0.019 A 
HETATM   29  C   UNL     1       7.715  28.303  57.731  1.00  0.00     0.003 A 
HETATM   30  C   UNL     1       6.893  27.666  56.805  1.00  0.00     0.030 A 
ENDBRANCH   1  25
BRANCH   5  31
HETATM   31  C   UNL     1       7.135  23.476  53.842  1.00  0.00     0.168 C 
BRANCH  31  32
HETATM   32  C   UNL     1       8.167  23.048  54.886  1.00  0.00     0.140 C 
HETATM   33  O   UNL     1       9.079  22.107  54.284  1.00  0.00    -0.384 OA
HETATM   34  C   UNL     1       9.162  20.946  55.120  1.00  0.00     0.168 C 
HETATM   35  C   UNL     1       8.660  21.375  56.479  1.00  0.00     0.029 C 
HETATM   36  C   UNL     1       7.574  22.354  56.106  1.00  0.00     0.036 C 
ENDBRANCH  31  32
ENDBRANCH   5  31
TORSDOF 6
ENDMDL
MODEL 6
REMARK VINA RESULT:      -8.7      3.926      7.479
REMARK  6 active torsions:
REMARK  status: ('A' for Active; 'I' for Inactive)
REMARK    1  A    between atoms: C_6  and  C_7 
REMARK    2  A    between atoms: C_7  and  N_8 
REMARK    3  A    between atoms: C_12  and  C_13 
REMARK    4  A    between atoms: C_13  and  C_14 
REMARK    5  A    between atoms: N_23  and  C_24 
REMARK    6  A    between atoms: C_24  and  C_25 
ROOT
HETATM    1  C   UNL     1       4.304  28.897  50.629  1.00  0.00     0.149 C 
HETATM    2  N   UNL     1       5.686  29.328  50.464  1.00  0.00    -0.220 NA
HETATM    3  C   UNL     1       5.751  30.623  49.991  1.00  0.00     0.304 C 
HETATM    4  O   UNL     1       6.795  31.133  49.624  1.00  0.00    -0.253 OA
HETATM    5  N   UNL     1       4.515  31.177  50.025  1.00  0.00    -0.270 N 
HETATM    6  C   UNL     1       3.594  30.257  50.433  1.00  0.00     0.257 C 
HETATM    7  O   UNL     1       2.403  30.463  50.622  1.00  0.00    -0.270 OA
HETATM    8  H   UNL     1       6.311  28.709  49.951  1.00  0.00     0.134 HD
ENDROOT
BRANCH   1   9
HETATM    9  C   UNL     1       4.026  28.301  52.047  1.00  0.00     0.028 C 
HETATM   10  C   UNL     1       4.927  28.869  53.165  1.00  0.00     0.035 C 
HETATM   11  C   UNL     1       6.341  28.295  53.207  1.00  0.00     0.235 C 
HETATM   12  N   UNL     1       6.303  26.786  53.223  1.00  0.00    -0.067 N 
HETATM   13  H   UNL     1       5.866  26.512  54.110  1.00  0.00     0.280 HD
HETATM   14  C   UNL     1       5.487  26.194  52.101  1.00  0.00     0.235 C 
HETATM   15  C   UNL     1       4.078  26.763  52.130  1.00  0.00     0.035 C 
BRANCH  12  16
HETATM   16  C   UNL     1       7.695  26.172  53.239  1.00  0.00     0.273 C 
BRANCH  16  17
HETATM   17  C   UNL     1       7.722  24.720  53.646  1.00  0.00    -0.027 A 
HETATM   18  C   UNL     1       7.650  24.304  54.992  1.00  0.00    -0.054 A 
HETATM   19  C   UNL     1       7.734  22.931  55.290  1.00  0.00     0.014 A 
HETATM   20  C   UNL     1       7.473  25.269  56.134  1.00  0.00     0.049 C 
HETATM   21  C   UNL     1       7.862  21.971  54.279  1.00  0.00    -0.061 A 
HETATM   22  C   UNL     1       7.969  20.512  54.616  1.00  0.00     0.048 C 
HETATM   23  C   UNL     1       7.930  22.391  52.950  1.00  0.00     0.007 A 
HETATM   24  C   UNL     1       7.854  23.747  52.637  1.00  0.00     0.010 A 
ENDBRANCH  16  17
ENDBRANCH  12  16
ENDBRANCH   1   9
BRANCH   1  25
HETATM   25  C   UNL     1       3.946  27.924  49.506  1.00  0.00     0.067 A 
HETATM   26  N   UNL     1       2.616  27.848  49.199  1.00  0.00    -0.263 NA
HETATM   27  C   UNL     1       2.249  26.981  48.227  1.00  0.00     0.117 A 
HETATM   28  C   UNL     1       3.145  26.211  47.508  1.00  0.00     0.019 A 
HETATM   29  C   UNL     1       4.498  26.331  47.800  1.00  0.00     0.003 A 
HETATM   30  C   UNL     1       4.910  27.198  48.808  1.00  0.00     0.030 A 
ENDBRANCH   1  25
BRANCH   5  31
HETATM   31  C   UNL     1       4.206  32.525  49.587  1.00  0.00     0.168 C 
BRANCH  31  32
HETATM   32  C   UNL     1       3.998  32.652  48.077  1.00  0.00     0.140 C 
HETATM   33  O   UNL     1       3.699  31.349  47.535  1.00  0.00    -0.384 OA
HETATM   34  C   UNL     1       4.576  31.098  46.429  1.00  0.00     0.168 C 
HETATM   35  C   UNL     1       5.096  32.449  45.996  1.00  0.00     0.029 C 
HETATM   36  C   UNL     1       5.215  33.167  47.317  1.00  0.00     0.036 C 
ENDBRANCH  31  32
ENDBRANCH   5  31
TORSDOF 6
ENDMDL
MODEL 7
REMARK VINA RESULT:      -8.7      4.126      9.268
REMARK  6 active torsions:
REMARK  status: ('A' for Active; 'I' for Inactive)
REMARK    1  A    between atoms: C_6  and  C_7 
REMARK    2  A    between atoms: C_7  and  N_8 
REMARK    3  A    between atoms: C_12  and  C_13 
REMARK    4  A    between atoms: C_13  and  C_14 
REMARK    5  A    between atoms: N_23  and  C_24 
REMARK    6  A    between atoms: C_24  and  C_25 
ROOT
HETATM    1  C   UNL     1       5.913  31.559  58.251  1.00  0.00     0.149 C 
HETATM    2  N   UNL     1       4.847  30.706  58.757  1.00  0.00    -0.220 NA
HETATM    3  C   UNL     1       3.715  31.441  59.047  1.00  0.00     0.304 C 
HETATM    4  O   UNL     1       2.759  30.964  59.633  1.00  0.00    -0.253 OA
HETATM    5  N   UNL     1       3.864  32.702  58.574  1.00  0.00    -0.270 N 
HETATM    6  C   UNL     1       5.110  32.864  58.041  1.00  0.00     0.257 C 
HETATM    7  O   UNL     1       5.530  33.867  57.482  1.00  0.00    -0.270 OA
HETATM    8  H   UNL     1       5.081  30.062  59.512  1.00  0.00     0.134 HD
ENDROOT
BRANCH   1   9
HETATM    9  C   UNL     1       6.518  31.034  56.909  1.00  0.00     0.028 C 
HETATM   10  C   UNL     1       5.474  30.498  55.906  1.00  0.00     0.035 C 
HETATM   11  C   UNL     1       4.947  29.098  56.211  1.00  0.00     0.235 C 
HETATM   12  N   UNL     1       6.088  28.130  56.410  1.00  0.00    -0.067 N 
HETATM   13  H   UNL     1       6.570  28.055  55.507  1.00  0.00     0.280 HD
HETATM   14  C   UNL     1       7.093  28.590  57.436  1.00  0.00     0.235 C 
HETATM   15  C   UNL     1       7.620  29.967  57.063  1.00  0.00     0.035 C 
BRANCH  12  16
HETATM   16  C   UNL     1       5.606  26.725  56.741  1.00  0.00     0.273 C 
BRANCH  16  17
HETATM   17  C   UNL     1       6.165  25.655  55.838  1.00  0.00    -0.027 A 
HETATM   18  C   UNL     1       7.313  24.904  56.165  1.00  0.00    -0.054 A 
HETATM   19  C   UNL     1       7.800  23.960  55.241  1.00  0.00     0.014 A 
HETATM   20  C   UNL     1       8.043  25.060  57.473  1.00  0.00     0.049 C 
HETATM   21  C   UNL     1       7.154  23.732  54.020  1.00  0.00    -0.061 A 
HETATM   22  C   UNL     1       7.697  22.734  53.040  1.00  0.00     0.048 C 
HETATM   23  C   UNL     1       6.017  24.477  53.706  1.00  0.00     0.007 A 
HETATM   24  C   UNL     1       5.524  25.422  54.605  1.00  0.00     0.010 A 
ENDBRANCH  16  17
ENDBRANCH  12  16
ENDBRANCH   1   9
BRANCH   1  25
HETATM   25  C   UNL     1       6.972  31.736  59.339  1.00  0.00     0.067 A 
HETATM   26  N   UNL     1       8.225  32.046  58.892  1.00  0.00    -0.263 NA
HETATM   27  C   UNL     1       9.201  32.188  59.819  1.00  0.00     0.117 A 
HETATM   28  C   UNL     1       8.987  32.079  61.181  1.00  0.00     0.019 A 
HETATM   29  C   UNL     1       7.698  31.808  61.624  1.00  0.00     0.003 A 
HETATM   30  C   UNL     1       6.674  31.636  60.697  1.00  0.00     0.030 A 
ENDBRANCH   1  25
BRANCH   5  31
HETATM   31  C   UNL     1       2.876  33.754  58.714  1.00  0.00     0.168 C 
BRANCH  31  32
HETATM   32  C   UNL     1       2.965  34.513  60.039  1.00  0.00     0.140 C 
HETATM   33  O   UNL     1       3.877  33.822  60.915  1.00  0.00    -0.384 OA
HETATM   34  C   UNL     1       3.233  33.610  62.178  1.00  0.00     0.168 C 
HETATM   35  C   UNL     1       2.089  34.595  62.230  1.00  0.00     0.029 C 
HETATM   36  C   UNL     1       1.642  34.620  60.790  1.00  0.00     0.036 C 
ENDBRANCH  31  32
ENDBRANCH   5  31
TORSDOF 6
ENDMDL
MODEL 8
REMARK VINA RESULT:      -8.6      3.095      8.626
REMARK  6 active torsions:
REMARK  status: ('A' for Active; 'I' for Inactive)
REMARK    1  A    between atoms: C_6  and  C_7 
REMARK    2  A    between atoms: C_7  and  N_8 
REMARK    3  A    between atoms: C_12  and  C_13 
REMARK    4  A    between atoms: C_13  and  C_14 
REMARK    5  A    between atoms: N_23  and  C_24 
REMARK    6  A    between atoms: C_24  and  C_25 
ROOT
HETATM    1  C   UNL     1       5.189  29.815  55.984  1.00  0.00     0.149 C 
HETATM    2  N   UNL     1       6.635  29.808  55.809  1.00  0.00    -0.220 NA
HETATM    3  C   UNL     1       7.269  30.415  56.874  1.00  0.00     0.304 C 
HETATM    4  O   UNL     1       8.461  30.669  56.866  1.00  0.00    -0.253 OA
HETATM    5  N   UNL     1       6.370  30.644  57.862  1.00  0.00    -0.270 N 
HETATM    6  C   UNL     1       5.119  30.281  57.457  1.00  0.00     0.257 C 
HETATM    7  O   UNL     1       4.104  30.309  58.139  1.00  0.00    -0.270 OA
HETATM    8  H   UNL     1       7.000  30.139  54.916  1.00  0.00     0.134 HD
ENDROOT
BRANCH   1   9
HETATM    9  C   UNL     1       4.555  28.399  55.797  1.00  0.00     0.028 C 
HETATM   10  C   UNL     1       4.898  27.394  56.918  1.00  0.00     0.035 C 
HETATM   11  C   UNL     1       6.291  26.776  56.825  1.00  0.00     0.235 C 
HETATM   12  N   UNL     1       6.526  26.194  55.453  1.00  0.00    -0.067 N 
HETATM   13  H   UNL     1       5.868  25.413  55.349  1.00  0.00     0.280 HD
HETATM   14  C   UNL     1       6.267  27.171  54.334  1.00  0.00     0.235 C 
HETATM   15  C   UNL     1       4.854  27.722  54.445  1.00  0.00     0.035 C 
BRANCH  12  16
HETATM   16  C   UNL     1       7.914  25.589  55.309  1.00  0.00     0.273 C 
BRANCH  16  17
HETATM   17  C   UNL     1       7.926  24.219  54.679  1.00  0.00    -0.027 A 
HETATM   18  C   UNL     1       7.969  24.023  53.282  1.00  0.00    -0.054 A 
HETATM   19  C   UNL     1       7.923  22.712  52.774  1.00  0.00     0.014 A 
HETATM   20  C   UNL     1       8.073  25.163  52.303  1.00  0.00     0.049 C 
HETATM   21  C   UNL     1       7.864  21.601  53.623  1.00  0.00    -0.061 A 
HETATM   22  C   UNL     1       7.797  20.210  53.062  1.00  0.00     0.048 C 
HETATM   23  C   UNL     1       7.825  21.803  55.002  1.00  0.00     0.007 A 
HETATM   24  C   UNL     1       7.862  23.095  55.524  1.00  0.00     0.010 A 
ENDBRANCH  16  17
ENDBRANCH  12  16
ENDBRANCH   1   9
BRANCH   1  25
HETATM   25  C   UNL     1       4.576  30.858  55.049  1.00  0.00     0.067 A 
HETATM   26  N   UNL     1       4.732  32.158  55.440  1.00  0.00    -0.263 NA
HETATM   27  C   UNL     1       4.183  33.115  54.655  1.00  0.00     0.117 A 
HETATM   28  C   UNL     1       3.521  32.849  53.471  1.00  0.00     0.019 A 
HETATM   29  C   UNL     1       3.409  31.525  53.063  1.00  0.00     0.003 A 
HETATM   30  C   UNL     1       3.944  30.514  53.855  1.00  0.00     0.030 A 
ENDBRANCH   1  25
BRANCH   5  31
HETATM   31  C   UNL     1       6.683  31.282  59.126  1.00  0.00     0.168 C 
BRANCH  31  32
HETATM   32  C   UNL     1       8.175  31.290  59.462  1.00  0.00     0.140 C 
HETATM   33  O   UNL     1       8.489  30.110  60.228  1.00  0.00    -0.384 OA
HETATM   34  C   UNL     1       9.196  30.503  61.411  1.00  0.00     0.168 C 
HETATM   35  C   UNL     1       9.731  31.888  61.135  1.00  0.00     0.029 C 
HETATM   36  C   UNL     1       8.623  32.481  60.300  1.00  0.00     0.036 C 
ENDBRANCH  31  32
ENDBRANCH   5  31
TORSDOF 6
ENDMDL
MODEL 9
REMARK VINA RESULT:      -8.4      3.875      9.128
REMARK  6 active torsions:
REMARK  status: ('A' for Active; 'I' for Inactive)
REMARK    1  A    between atoms: C_6  and  C_7 
REMARK    2  A    between atoms: C_7  and  N_8 
REMARK    3  A    between atoms: C_12  and  C_13 
REMARK    4  A    between atoms: C_13  and  C_14 
REMARK    5  A    between atoms: N_23  and  C_24 
REMARK    6  A    between atoms: C_24  and  C_25 
ROOT
HETATM    1  C   UNL     1       4.561  30.726  56.883  1.00  0.00     0.149 C 
HETATM    2  N   UNL     1       6.010  30.845  56.960  1.00  0.00    -0.220 NA
HETATM    3  C   UNL     1       6.392  31.573  58.069  1.00  0.00     0.304 C 
HETATM    4  O   UNL     1       7.541  31.938  58.247  1.00  0.00    -0.253 OA
HETATM    5  N   UNL     1       5.316  31.775  58.867  1.00  0.00    -0.270 N 
HETATM    6  C   UNL     1       4.191  31.271  58.282  1.00  0.00     0.257 C 
HETATM    7  O   UNL     1       3.072  31.244  58.776  1.00  0.00    -0.270 OA
HETATM    8  H   UNL     1       6.499  31.155  56.121  1.00  0.00     0.134 HD
ENDROOT
BRANCH   1   9
HETATM    9  C   UNL     1       4.089  29.247  56.698  1.00  0.00     0.028 C 
HETATM   10  C   UNL     1       4.894  28.215  57.517  1.00  0.00     0.035 C 
HETATM   11  C   UNL     1       6.255  27.848  56.931  1.00  0.00     0.235 C 
HETATM   12  N   UNL     1       6.121  27.441  55.484  1.00  0.00    -0.067 N 
HETATM   13  H   UNL     1       5.571  26.575  55.472  1.00  0.00     0.280 HD
HETATM   14  C   UNL     1       5.399  28.461  54.638  1.00  0.00     0.235 C 
HETATM   15  C   UNL     1       4.034  28.757  55.238  1.00  0.00     0.035 C 
BRANCH  12  16
HETATM   16  C   UNL     1       7.461  27.091  54.853  1.00  0.00     0.273 C 
BRANCH  16  17
HETATM   17  C   UNL     1       7.581  25.650  54.426  1.00  0.00    -0.027 A 
HETATM   18  C   UNL     1       7.904  24.612  55.326  1.00  0.00    -0.054 A 
HETATM   19  C   UNL     1       8.049  23.301  54.835  1.00  0.00     0.014 A 
HETATM   20  C   UNL     1       8.091  24.844  56.802  1.00  0.00     0.049 C 
HETATM   21  C   UNL     1       7.855  23.002  53.481  1.00  0.00    -0.061 A 
HETATM   22  C   UNL     1       8.032  21.601  52.972  1.00  0.00     0.048 C 
HETATM   23  C   UNL     1       7.533  24.034  52.599  1.00  0.00     0.007 A 
HETATM   24  C   UNL     1       7.392  25.340  53.065  1.00  0.00     0.010 A 
ENDBRANCH  16  17
ENDBRANCH  12  16
ENDBRANCH   1   9
BRANCH   1  25
HETATM   25  C   UNL     1       4.040  31.647  55.780  1.00  0.00     0.067 A 
HETATM   26  N   UNL     1       5.001  32.301  55.061  1.00  0.00    -0.263 NA
HETATM   27  C   UNL     1       4.585  33.147  54.090  1.00  0.00     0.117 A 
HETATM   28  C   UNL     1       3.256  33.347  53.764  1.00  0.00     0.019 A 
HETATM   29  C   UNL     1       2.291  32.642  54.474  1.00  0.00     0.003 A 
HETATM   30  C   UNL     1       2.682  31.778  55.493  1.00  0.00     0.030 A 
ENDBRANCH   1  25
BRANCH   5  31
HETATM   31  C   UNL     1       5.345  32.514  60.115  1.00  0.00     0.168 C 
BRANCH  31  32
HETATM   32  C   UNL     1       6.256  31.899  61.177  1.00  0.00     0.140 C 
HETATM   33  O   UNL     1       5.532  31.811  62.421  1.00  0.00    -0.384 OA
HETATM   34  C   UNL     1       6.323  32.407  63.458  1.00  0.00     0.168 C 
HETATM   35  C   UNL     1       7.740  32.437  62.934  1.00  0.00     0.029 C 
HETATM   36  C   UNL     1       7.517  32.706  61.467  1.00  0.00     0.036 C 
ENDBRANCH  31  32
ENDBRANCH   5  31
TORSDOF 6
ENDMDL
MODEL 10
REMARK VINA RESULT:      -8.4      1.847      2.802
REMARK  6 active torsions:
REMARK  status: ('A' for Active; 'I' for Inactive)
REMARK    1  A    between atoms: C_6  and  C_7 
REMARK    2  A    between atoms: C_7  and  N_8 
REMARK    3  A    between atoms: C_12  and  C_13 
REMARK    4  A    between atoms: C_13  and  C_14 
REMARK    5  A    between atoms: N_23  and  C_24 
REMARK    6  A    between atoms: C_24  and  C_25 
ROOT
HETATM    1  C   UNL     1       5.710  27.026  53.904  1.00  0.00     0.149 C 
HETATM    2  N   UNL     1       6.395  28.223  53.436  1.00  0.00    -0.220 NA
HETATM    3  C   UNL     1       5.760  28.762  52.335  1.00  0.00     0.304 C 
HETATM    4  O   UNL     1       6.245  29.667  51.679  1.00  0.00    -0.253 OA
HETATM    5  N   UNL     1       4.571  28.139  52.151  1.00  0.00    -0.270 N 
HETATM    6  C   UNL     1       4.421  27.128  53.056  1.00  0.00     0.257 C 
HETATM    7  O   UNL     1       3.434  26.418  53.186  1.00  0.00    -0.270 OA
HETATM    8  H   UNL     1       7.402  28.162  53.296  1.00  0.00     0.134 HD
ENDROOT
BRANCH   1   9
HETATM    9  C   UNL     1       5.397  27.072  55.435  1.00  0.00     0.028 C 
HETATM   10  C   UNL     1       4.518  28.265  55.869  1.00  0.00     0.035 C 
HETATM   11  C   UNL     1       5.253  29.599  55.984  1.00  0.00     0.235 C 
HETATM   12  N   UNL     1       6.481  29.457  56.849  1.00  0.00    -0.067 N 
HETATM   13  H   UNL     1       6.151  29.240  57.796  1.00  0.00     0.280 HD
HETATM   14  C   UNL     1       7.399  28.343  56.411  1.00  0.00     0.235 C 
HETATM   15  C   UNL     1       6.632  27.032  56.356  1.00  0.00     0.035 C 
BRANCH  12  16
HETATM   16  C   UNL     1       7.259  30.760  56.970  1.00  0.00     0.273 C 
BRANCH  16  17
HETATM   17  C   UNL     1       7.650  31.114  58.383  1.00  0.00    -0.027 A 
HETATM   18  C   UNL     1       8.944  30.886  58.896  1.00  0.00    -0.054 A 
HETATM   19  C   UNL     1       9.211  31.197  60.242  1.00  0.00     0.014 A 
HETATM   20  C   UNL     1      10.065  30.331  58.058  1.00  0.00     0.049 C 
HETATM   21  C   UNL     1       8.229  31.750  61.073  1.00  0.00    -0.061 A 
HETATM   22  C   UNL     1       8.527  32.058  62.511  1.00  0.00     0.048 C 
HETATM   23  C   UNL     1       6.953  31.974  60.557  1.00  0.00     0.007 A 
HETATM   24  C   UNL     1       6.668  31.667  59.228  1.00  0.00     0.010 A 
ENDBRANCH  16  17
ENDBRANCH  12  16
ENDBRANCH   1   9
BRANCH   1  25
HETATM   25  C   UNL     1       6.529  25.796  53.513  1.00  0.00     0.067 A 
HETATM   26  N   UNL     1       6.233  24.653  54.201  1.00  0.00    -0.263 NA
HETATM   27  C   UNL     1       6.950  23.543  53.905  1.00  0.00     0.117 A 
HETATM   28  C   UNL     1       7.923  23.499  52.923  1.00  0.00     0.019 A 
HETATM   29  C   UNL     1       8.183  24.657  52.201  1.00  0.00     0.003 A 
HETATM   30  C   UNL     1       7.478  25.822  52.493  1.00  0.00     0.030 A 
ENDBRANCH   1  25
BRANCH   5  31
HETATM   31  C   UNL     1       3.643  28.439  51.078  1.00  0.00     0.168 C 
BRANCH  31  32
HETATM   32  C   UNL     1       4.124  27.984  49.700  1.00  0.00     0.140 C 
HETATM   33  O   UNL     1       3.055  28.160  48.748  1.00  0.00    -0.384 OA
HETATM   34  C   UNL     1       2.868  26.933  48.032  1.00  0.00     0.168 C 
HETATM   35  C   UNL     1       4.143  26.144  48.218  1.00  0.00     0.029 C 
HETATM   36  C   UNL     1       4.527  26.515  49.629  1.00  0.00     0.036 C 
ENDBRANCH  31  32
ENDBRANCH   5  31
TORSDOF 6
ENDMDL
