MODEL 1
REMARK VINA RESULT:      -8.9      0.000      0.000
REMARK  7 active torsions:
REMARK  status: ('A' for Active; 'I' for Inactive)
REMARK    1  A    between atoms: C_3  and  C_4 
REMARK    2  A    between atoms: C_4  and  N_5 
REMARK    3  A    between atoms: N_5  and  C_6 
REMARK    4  A    between atoms: C_13  and  C_14 
REMARK       I    between atoms: C_14  and  N_15 
REMARK    5  A    between atoms: C_19  and  O_20 
REMARK    6  A    between atoms: O_20  and  C_21 
REMARK    7  A    between atoms: C_21  and  C_22 
ROOT
HETATM    1  C   UNL     1       7.057  25.180  57.159  1.00  0.00     0.029 A 
HETATM    2  C   UNL     1       7.598  26.401  57.603  1.00  0.00     0.045 A 
HETATM    3  C   UNL     1       6.870  27.600  57.473  1.00  0.00     0.030 A 
HETATM    4  C   UNL     1       5.613  27.556  56.887  1.00  0.00     0.063 A 
HETATM    5  N   UNL     1       5.161  28.845  56.901  1.00  0.00    -0.277 N 
HETATM    6  H   UNL     1       4.272  29.184  56.552  1.00  0.00     0.189 HD
HETATM    7  N   UNL     1       6.020  29.732  57.429  1.00  0.00    -0.168 NA
HETATM    8  C   UNL     1       7.084  28.976  57.786  1.00  0.00     0.156 A 
HETATM    9  C   UNL     1       5.044  26.376  56.409  1.00  0.00     0.034 A 
HETATM   10  C   UNL     1       5.801  25.200  56.542  1.00  0.00     0.031 A 
ENDROOT
BRANCH   1  11
HETATM   11  N   UNL     1       7.855  24.044  57.247  1.00  0.00    -0.386 N 
HETATM   12  H   UNL     1       7.396  23.239  57.659  1.00  0.00     0.160 HD
BRANCH  11  13
HETATM   13  C   UNL     1       8.906  23.717  56.289  1.00  0.00     0.161 C 
BRANCH  13  14
HETATM   14  C   UNL     1       8.511  22.670  55.265  1.00  0.00    -0.007 A 
HETATM   15  C   UNL     1       8.542  21.299  55.578  1.00  0.00     0.011 A 
HETATM   16  C   UNL     1       8.220  20.337  54.621  1.00  0.00     0.001 A 
HETATM   17  C   UNL     1       7.882  20.729  53.330  1.00  0.00     0.003 A 
HETATM   18  C   UNL     1       7.865  22.084  52.993  1.00  0.00     0.037 A 
HETATM   19  C   UNL     1       8.173  23.057  53.951  1.00  0.00     0.076 A 
BRANCH  19  20
HETATM   20  O   UNL     1       8.201  24.403  53.696  1.00  0.00    -0.350 OA
BRANCH  20  21
HETATM   21  C   UNL     1       7.712  24.845  52.431  1.00  0.00     0.180 C 
BRANCH  21  22
HETATM   22  C   UNL     1       6.410  25.546  52.668  1.00  0.00     0.010 A 
HETATM   23  C   UNL     1       5.506  25.910  51.517  1.00  0.00     0.007 A 
HETATM   24  C   UNL     1       5.105  24.816  52.470  1.00  0.00     0.007 A 
ENDBRANCH  21  22
ENDBRANCH  20  21
ENDBRANCH  19  20
ENDBRANCH  13  14
ENDBRANCH  11  13
ENDBRANCH   1  11
BRANCH   8  25
HETATM   25  C   UNL     1       8.275  29.574  58.406  1.00  0.00     0.270 C 
HETATM   26  N   UNL     1       8.059  30.077  59.660  1.00  0.00    -0.365 N 
HETATM   27  H   UNL     1       7.126  30.014  60.051  1.00  0.00     0.159 HD
HETATM   28  H   UNL     1       8.810  30.525  60.158  1.00  0.00     0.159 HD
HETATM   29  O   UNL     1       9.380  29.637  57.876  1.00  0.00    -0.266 OA
ENDBRANCH   8  25
TORSDOF 7
ENDMDL
MODEL 2
REMARK VINA RESULT:      -8.4      2.056      4.433
REMARK  7 active torsions:
REMARK  status: ('A' for Active; 'I' for Inactive)
REMARK    1  A    between atoms: C_3  and  C_4 
REMARK    2  A    between atoms: C_4  and  N_5 
REMARK    3  A    between atoms: N_5  and  C_6 
REMARK    4  A    between atoms: C_13  and  C_14 
REMARK       I    between atoms: C_14  and  N_15 
REMARK    5  A    between atoms: C_19  and  O_20 
REMARK    6  A    between atoms: O_20  and  C_21 
REMARK    7  A    between atoms: C_21  and  C_22 
ROOT
HETATM    1  C   UNL     1       8.064  28.343  57.302  1.00  0.00     0.029 A 
HETATM    2  C   UNL     1       7.616  29.297  58.235  1.00  0.00     0.045 A 
HETATM    3  C   UNL     1       8.416  30.408  58.568  1.00  0.00     0.030 A 
HETATM    4  C   UNL     1       9.660  30.537  57.967  1.00  0.00     0.063 A 
HETATM    5  N   UNL     1      10.191  31.688  58.475  1.00  0.00    -0.277 N 
HETATM    6  H   UNL     1      11.093  32.095  58.255  1.00  0.00     0.189 HD
HETATM    7  N   UNL     1       9.409  32.315  59.370  1.00  0.00    -0.168 NA
HETATM    8  C   UNL     1       8.308  31.533  59.440  1.00  0.00     0.156 A 
HETATM    9  C   UNL     1      10.158  29.606  57.055  1.00  0.00     0.034 A 
HETATM   10  C   UNL     1       9.342  28.504  56.755  1.00  0.00     0.031 A 
ENDROOT
BRANCH   1  11
HETATM   11  N   UNL     1       7.261  27.231  57.072  1.00  0.00    -0.386 N 
HETATM   12  H   UNL     1       6.269  27.435  57.004  1.00  0.00     0.160 HD
BRANCH  11  13
HETATM   13  C   UNL     1       7.692  26.065  56.308  1.00  0.00     0.161 C 
BRANCH  13  14
HETATM   14  C   UNL     1       6.850  25.778  55.080  1.00  0.00    -0.007 A 
HETATM   15  C   UNL     1       5.799  26.635  54.702  1.00  0.00     0.011 A 
HETATM   16  C   UNL     1       5.000  26.346  53.598  1.00  0.00     0.001 A 
HETATM   17  C   UNL     1       5.224  25.186  52.863  1.00  0.00     0.003 A 
HETATM   18  C   UNL     1       6.250  24.313  53.232  1.00  0.00     0.037 A 
HETATM   19  C   UNL     1       7.065  24.602  54.332  1.00  0.00     0.076 A 
BRANCH  19  20
HETATM   20  O   UNL     1       8.076  23.788  54.772  1.00  0.00    -0.350 OA
BRANCH  20  21
HETATM   21  C   UNL     1       7.769  22.411  54.985  1.00  0.00     0.180 C 
BRANCH  21  22
HETATM   22  C   UNL     1       8.585  21.610  54.016  1.00  0.00     0.010 A 
HETATM   23  C   UNL     1       8.749  20.122  54.188  1.00  0.00     0.007 A 
HETATM   24  C   UNL     1       7.913  20.659  53.059  1.00  0.00     0.007 A 
ENDBRANCH  21  22
ENDBRANCH  20  21
ENDBRANCH  19  20
ENDBRANCH  13  14
ENDBRANCH  11  13
ENDBRANCH   1  11
BRANCH   8  25
HETATM   25  C   UNL     1       7.188  31.864  60.332  1.00  0.00     0.270 C 
HETATM   26  N   UNL     1       7.164  31.137  61.491  1.00  0.00    -0.365 N 
HETATM   27  H   UNL     1       7.886  30.441  61.640  1.00  0.00     0.159 HD
HETATM   28  H   UNL     1       6.422  31.278  62.157  1.00  0.00     0.159 HD
HETATM   29  O   UNL     1       6.329  32.707  60.091  1.00  0.00    -0.266 OA
ENDBRANCH   8  25
TORSDOF 7
ENDMDL
MODEL 3
REMARK VINA RESULT:      -8.4      3.551      6.281
REMARK  7 active torsions:
REMARK  status: ('A' for Active; 'I' for Inactive)
REMARK    1  A    between atoms: C_3  and  C_4 
REMARK    2  A    between atoms: C_4  and  N_5 
REMARK    3  A    between atoms: N_5  and  C_6 
REMARK    4  A    between atoms: C_13  and  C_14 
REMARK       I    between atoms: C_14  and  N_15 
REMARK    5  A    between atoms: C_19  and  O_20 
REMARK    6  A    between atoms: O_20  and  C_21 
REMARK    7  A    between atoms: C_21  and  C_22 
ROOT
HETATM    1  C   UNL     1       6.090  25.727  52.232  1.00  0.00     0.029 A 
HETATM    2  C   UNL     1       5.377  25.811  51.021  1.00  0.00     0.045 A 
HETATM    3  C   UNL     1       4.978  27.061  50.506  1.00  0.00     0.030 A 
HETATM    4  C   UNL     1       5.292  28.207  51.222  1.00  0.00     0.063 A 
HETATM    5  N   UNL     1       4.789  29.243  50.489  1.00  0.00    -0.277 N 
HETATM    6  H   UNL     1       4.837  30.231  50.712  1.00  0.00     0.189 HD
HETATM    7  N   UNL     1       4.157  28.873  49.362  1.00  0.00    -0.168 NA
HETATM    8  C   UNL     1       4.264  27.524  49.360  1.00  0.00     0.156 A 
HETATM    9  C   UNL     1       5.975  28.174  52.438  1.00  0.00     0.034 A 
HETATM   10  C   UNL     1       6.347  26.912  52.930  1.00  0.00     0.031 A 
ENDROOT
BRANCH   1  11
HETATM   11  N   UNL     1       6.388  24.461  52.724  1.00  0.00    -0.386 N 
HETATM   12  H   UNL     1       5.621  23.798  52.672  1.00  0.00     0.160 HD
BRANCH  11  13
HETATM   13  C   UNL     1       7.715  23.857  52.654  1.00  0.00     0.161 C 
BRANCH  13  14
HETATM   14  C   UNL     1       7.946  22.743  53.657  1.00  0.00    -0.007 A 
HETATM   15  C   UNL     1       7.955  21.394  53.256  1.00  0.00     0.011 A 
HETATM   16  C   UNL     1       8.125  20.371  54.187  1.00  0.00     0.001 A 
HETATM   17  C   UNL     1       8.270  20.677  55.536  1.00  0.00     0.003 A 
HETATM   18  C   UNL     1       8.246  22.008  55.957  1.00  0.00     0.037 A 
HETATM   19  C   UNL     1       8.088  23.043  55.027  1.00  0.00     0.076 A 
BRANCH  19  20
HETATM   20  O   UNL     1       8.031  24.370  55.361  1.00  0.00    -0.350 OA
BRANCH  20  21
HETATM   21  C   UNL     1       7.347  24.721  56.562  1.00  0.00     0.180 C 
BRANCH  21  22
HETATM   22  C   UNL     1       5.953  25.123  56.189  1.00  0.00     0.010 A 
HETATM   23  C   UNL     1       4.878  25.253  57.238  1.00  0.00     0.007 A 
HETATM   24  C   UNL     1       5.426  26.484  56.568  1.00  0.00     0.007 A 
ENDBRANCH  21  22
ENDBRANCH  20  21
ENDBRANCH  19  20
ENDBRANCH  13  14
ENDBRANCH  11  13
ENDBRANCH   1  11
BRANCH   8  25
HETATM   25  C   UNL     1       3.684  26.711  48.283  1.00  0.00     0.270 C 
HETATM   26  N   UNL     1       2.355  26.432  48.449  1.00  0.00    -0.365 N 
HETATM   27  H   UNL     1       1.887  26.783  49.276  1.00  0.00     0.159 HD
HETATM   28  H   UNL     1       1.873  25.863  47.772  1.00  0.00     0.159 HD
HETATM   29  O   UNL     1       4.305  26.297  47.309  1.00  0.00    -0.266 OA
ENDBRANCH   8  25
TORSDOF 7
ENDMDL
MODEL 4
REMARK VINA RESULT:      -8.0      1.585      2.253
REMARK  7 active torsions:
REMARK  status: ('A' for Active; 'I' for Inactive)
REMARK    1  A    between atoms: C_3  and  C_4 
REMARK    2  A    between atoms: C_4  and  N_5 
REMARK    3  A    between atoms: N_5  and  C_6 
REMARK    4  A    between atoms: C_13  and  C_14 
REMARK       I    between atoms: C_14  and  N_15 
REMARK    5  A    between atoms: C_19  and  O_20 
REMARK    6  A    between atoms: O_20  and  C_21 
REMARK    7  A    between atoms: C_21  and  C_22 
ROOT
HETATM    1  C   UNL     1       7.290  27.600  57.169  1.00  0.00     0.029 A 
HETATM    2  C   UNL     1       8.047  28.630  57.760  1.00  0.00     0.045 A 
HETATM    3  C   UNL     1       7.463  29.880  58.045  1.00  0.00     0.030 A 
HETATM    4  C   UNL     1       6.129  30.081  57.720  1.00  0.00     0.063 A 
HETATM    5  N   UNL     1       5.849  31.360  58.108  1.00  0.00    -0.277 N 
HETATM    6  H   UNL     1       4.963  31.845  58.024  1.00  0.00     0.189 HD
HETATM    7  N   UNL     1       6.890  32.020  58.643  1.00  0.00    -0.168 NA
HETATM    8  C   UNL     1       7.897  31.117  58.609  1.00  0.00     0.156 A 
HETATM    9  C   UNL     1       5.344  29.102  57.111  1.00  0.00     0.034 A 
HETATM   10  C   UNL     1       5.960  27.871  56.830  1.00  0.00     0.031 A 
ENDROOT
BRANCH   1  11
HETATM   11  N   UNL     1       7.944  26.417  56.845  1.00  0.00    -0.386 N 
HETATM   12  H   UNL     1       8.938  26.417  57.046  1.00  0.00     0.160 HD
BRANCH  11  13
HETATM   13  C   UNL     1       7.315  25.101  56.909  1.00  0.00     0.161 C 
BRANCH  13  14
HETATM   14  C   UNL     1       7.683  24.178  55.764  1.00  0.00    -0.007 A 
HETATM   15  C   UNL     1       8.699  23.214  55.905  1.00  0.00     0.011 A 
HETATM   16  C   UNL     1       9.065  22.396  54.837  1.00  0.00     0.001 A 
HETATM   17  C   UNL     1       8.436  22.540  53.605  1.00  0.00     0.003 A 
HETATM   18  C   UNL     1       7.438  23.504  53.439  1.00  0.00     0.037 A 
HETATM   19  C   UNL     1       7.056  24.320  54.509  1.00  0.00     0.076 A 
BRANCH  19  20
HETATM   20  O   UNL     1       6.104  25.302  54.422  1.00  0.00    -0.350 OA
BRANCH  20  21
HETATM   21  C   UNL     1       6.282  26.309  53.428  1.00  0.00     0.180 C 
BRANCH  21  22
HETATM   22  C   UNL     1       5.110  26.238  52.497  1.00  0.00     0.010 A 
HETATM   23  C   UNL     1       4.926  27.263  51.406  1.00  0.00     0.007 A 
HETATM   24  C   UNL     1       5.307  25.851  51.053  1.00  0.00     0.007 A 
ENDBRANCH  21  22
ENDBRANCH  20  21
ENDBRANCH  19  20
ENDBRANCH  13  14
ENDBRANCH  11  13
ENDBRANCH   1  11
BRANCH   8  25
HETATM   25  C   UNL     1       9.241  31.448  59.101  1.00  0.00     0.270 C 
HETATM   26  N   UNL     1       9.544  30.890  60.313  1.00  0.00    -0.365 N 
HETATM   27  H   UNL     1       8.843  30.319  60.771  1.00  0.00     0.159 HD
HETATM   28  H   UNL     1      10.436  31.075  60.743  1.00  0.00     0.159 HD
HETATM   29  O   UNL     1      10.046  32.161  58.509  1.00  0.00    -0.266 OA
ENDBRANCH   8  25
TORSDOF 7
ENDMDL
MODEL 5
REMARK VINA RESULT:      -8.0      2.014      3.438
REMARK  7 active torsions:
REMARK  status: ('A' for Active; 'I' for Inactive)
REMARK    1  A    between atoms: C_3  and  C_4 
REMARK    2  A    between atoms: C_4  and  N_5 
REMARK    3  A    between atoms: N_5  and  C_6 
REMARK    4  A    between atoms: C_13  and  C_14 
REMARK       I    between atoms: C_14  and  N_15 
REMARK    5  A    between atoms: C_19  and  O_20 
REMARK    6  A    between atoms: O_20  and  C_21 
REMARK    7  A    between atoms: C_21  and  C_22 
ROOT
HETATM    1  C   UNL     1       8.358  28.279  57.321  1.00  0.00     0.029 A 
HETATM    2  C   UNL     1       7.839  29.217  58.233  1.00  0.00     0.045 A 
HETATM    3  C   UNL     1       8.561  30.383  58.556  1.00  0.00     0.030 A 
HETATM    4  C   UNL     1       9.801  30.582  57.965  1.00  0.00     0.063 A 
HETATM    5  N   UNL     1      10.251  31.773  58.459  1.00  0.00    -0.277 N 
HETATM    6  H   UNL     1      11.128  32.234  58.242  1.00  0.00     0.189 HD
HETATM    7  N   UNL     1       9.421  32.363  59.336  1.00  0.00    -0.168 NA
HETATM    8  C   UNL     1       8.371  31.512  59.407  1.00  0.00     0.156 A 
HETATM    9  C   UNL     1      10.369  29.671  57.075  1.00  0.00     0.034 A 
HETATM   10  C   UNL     1       9.629  28.514  56.784  1.00  0.00     0.031 A 
ENDROOT
BRANCH   1  11
HETATM   11  N   UNL     1       7.631  27.114  57.102  1.00  0.00    -0.386 N 
HETATM   12  H   UNL     1       6.861  26.971  57.747  1.00  0.00     0.160 HD
BRANCH  11  13
HETATM   13  C   UNL     1       7.433  26.519  55.784  1.00  0.00     0.161 C 
BRANCH  13  14
HETATM   14  C   UNL     1       7.775  25.043  55.708  1.00  0.00    -0.007 A 
HETATM   15  C   UNL     1       7.828  24.249  56.869  1.00  0.00     0.011 A 
HETATM   16  C   UNL     1       8.185  22.903  56.800  1.00  0.00     0.001 A 
HETATM   17  C   UNL     1       8.514  22.334  55.575  1.00  0.00     0.003 A 
HETATM   18  C   UNL     1       8.486  23.109  54.414  1.00  0.00     0.037 A 
HETATM   19  C   UNL     1       8.116  24.458  54.472  1.00  0.00     0.076 A 
BRANCH  19  20
HETATM   20  O   UNL     1       8.085  25.291  53.385  1.00  0.00    -0.350 OA
BRANCH  20  21
HETATM   21  C   UNL     1       7.304  24.885  52.263  1.00  0.00     0.180 C 
BRANCH  21  22
HETATM   22  C   UNL     1       5.960  25.535  52.387  1.00  0.00     0.010 A 
HETATM   23  C   UNL     1       5.119  25.813  51.167  1.00  0.00     0.007 A 
HETATM   24  C   UNL     1       4.703  24.740  52.136  1.00  0.00     0.007 A 
ENDBRANCH  21  22
ENDBRANCH  20  21
ENDBRANCH  19  20
ENDBRANCH  13  14
ENDBRANCH  11  13
ENDBRANCH   1  11
BRANCH   8  25
HETATM   25  C   UNL     1       7.222  31.784  60.281  1.00  0.00     0.270 C 
HETATM   26  N   UNL     1       7.239  31.087  61.458  1.00  0.00    -0.365 N 
HETATM   27  H   UNL     1       8.007  30.448  61.631  1.00  0.00     0.159 HD
HETATM   28  H   UNL     1       6.483  31.191  62.115  1.00  0.00     0.159 HD
HETATM   29  O   UNL     1       6.308  32.559  60.013  1.00  0.00    -0.266 OA
ENDBRANCH   8  25
TORSDOF 7
ENDMDL
MODEL 6
REMARK VINA RESULT:      -8.0      2.253      4.252
REMARK  7 active torsions:
REMARK  status: ('A' for Active; 'I' for Inactive)
REMARK    1  A    between atoms: C_3  and  C_4 
REMARK    2  A    between atoms: C_4  and  N_5 
REMARK    3  A    between atoms: N_5  and  C_6 
REMARK    4  A    between atoms: C_13  and  C_14 
REMARK       I    between atoms: C_14  and  N_15 
REMARK    5  A    between atoms: C_19  and  O_20 
REMARK    6  A    between atoms: O_20  and  C_21 
REMARK    7  A    between atoms: C_21  and  C_22 
ROOT
HETATM    1  C   UNL     1       5.539  25.376  52.531  1.00  0.00     0.029 A 
HETATM    2  C   UNL     1       5.341  26.251  53.616  1.00  0.00     0.045 A 
HETATM    3  C   UNL     1       4.896  27.571  53.404  1.00  0.00     0.030 A 
HETATM    4  C   UNL     1       4.666  27.995  52.102  1.00  0.00     0.063 A 
HETATM    5  N   UNL     1       4.249  29.291  52.211  1.00  0.00    -0.277 N 
HETATM    6  H   UNL     1       3.989  29.915  51.456  1.00  0.00     0.189 HD
HETATM    7  N   UNL     1       4.202  29.758  53.470  1.00  0.00    -0.168 NA
HETATM    8  C   UNL     1       4.602  28.705  54.219  1.00  0.00     0.156 A 
HETATM    9  C   UNL     1       4.870  27.174  50.993  1.00  0.00     0.034 A 
HETATM   10  C   UNL     1       5.327  25.869  51.239  1.00  0.00     0.031 A 
ENDROOT
BRANCH   1  11
HETATM   11  N   UNL     1       6.051  24.112  52.801  1.00  0.00    -0.386 N 
HETATM   12  H   UNL     1       5.481  23.345  52.459  1.00  0.00     0.160 HD
BRANCH  11  13
HETATM   13  C   UNL     1       7.478  23.816  52.878  1.00  0.00     0.161 C 
BRANCH  13  14
HETATM   14  C   UNL     1       7.817  22.584  53.694  1.00  0.00    -0.007 A 
HETATM   15  C   UNL     1       8.383  21.445  53.092  1.00  0.00     0.011 A 
HETATM   16  C   UNL     1       8.653  20.299  53.837  1.00  0.00     0.001 A 
HETATM   17  C   UNL     1       8.343  20.263  55.192  1.00  0.00     0.003 A 
HETATM   18  C   UNL     1       7.763  21.376  55.806  1.00  0.00     0.037 A 
HETATM   19  C   UNL     1       7.501  22.535  55.068  1.00  0.00     0.076 A 
BRANCH  19  20
HETATM   20  O   UNL     1       6.914  23.659  55.589  1.00  0.00    -0.350 OA
BRANCH  20  21
HETATM   21  C   UNL     1       7.615  24.354  56.618  1.00  0.00     0.180 C 
BRANCH  21  22
HETATM   22  C   UNL     1       7.020  25.724  56.727  1.00  0.00     0.010 A 
HETATM   23  C   UNL     1       7.539  26.716  57.737  1.00  0.00     0.007 A 
HETATM   24  C   UNL     1       7.800  26.931  56.271  1.00  0.00     0.007 A 
ENDBRANCH  21  22
ENDBRANCH  20  21
ENDBRANCH  19  20
ENDBRANCH  13  14
ENDBRANCH  11  13
ENDBRANCH   1  11
BRANCH   8  25
HETATM   25  C   UNL     1       4.702  28.799  55.682  1.00  0.00     0.270 C 
HETATM   26  N   UNL     1       3.935  27.887  56.354  1.00  0.00    -0.365 N 
HETATM   27  H   UNL     1       3.366  27.244  55.815  1.00  0.00     0.159 HD
HETATM   28  H   UNL     1       3.922  27.887  57.361  1.00  0.00     0.159 HD
HETATM   29  O   UNL     1       5.398  29.612  56.283  1.00  0.00    -0.266 OA
ENDBRANCH   8  25
TORSDOF 7
ENDMDL
MODEL 7
REMARK VINA RESULT:      -8.0      4.949      8.361
REMARK  7 active torsions:
REMARK  status: ('A' for Active; 'I' for Inactive)
REMARK    1  A    between atoms: C_3  and  C_4 
REMARK    2  A    between atoms: C_4  and  N_5 
REMARK    3  A    between atoms: N_5  and  C_6 
REMARK    4  A    between atoms: C_13  and  C_14 
REMARK       I    between atoms: C_14  and  N_15 
REMARK    5  A    between atoms: C_19  and  O_20 
REMARK    6  A    between atoms: O_20  and  C_21 
REMARK    7  A    between atoms: C_21  and  C_22 
ROOT
HETATM    1  C   UNL     1       7.363  32.545  61.505  1.00  0.00     0.029 A 
HETATM    2  C   UNL     1       6.009  32.896  61.662  1.00  0.00     0.045 A 
HETATM    3  C   UNL     1       5.485  33.190  62.937  1.00  0.00     0.030 A 
HETATM    4  C   UNL     1       6.328  33.115  64.036  1.00  0.00     0.063 A 
HETATM    5  N   UNL     1       5.553  33.450  65.111  1.00  0.00    -0.277 N 
HETATM    6  H   UNL     1       5.842  33.501  66.081  1.00  0.00     0.189 HD
HETATM    7  N   UNL     1       4.271  33.720  64.811  1.00  0.00    -0.168 NA
HETATM    8  C   UNL     1       4.214  33.562  63.469  1.00  0.00     0.156 A 
HETATM    9  C   UNL     1       7.669  32.748  63.936  1.00  0.00     0.034 A 
HETATM   10  C   UNL     1       8.157  32.449  62.654  1.00  0.00     0.031 A 
ENDROOT
BRANCH   1  11
HETATM   11  N   UNL     1       7.801  32.193  60.233  1.00  0.00    -0.386 N 
HETATM   12  H   UNL     1       8.623  32.697  59.917  1.00  0.00     0.160 HD
BRANCH  11  13
HETATM   13  C   UNL     1       7.659  30.854  59.670  1.00  0.00     0.161 C 
BRANCH  13  14
HETATM   14  C   UNL     1       8.765  30.462  58.709  1.00  0.00    -0.007 A 
HETATM   15  C   UNL     1       9.849  31.324  58.457  1.00  0.00     0.011 A 
HETATM   16  C   UNL     1      10.841  30.978  57.541  1.00  0.00     0.001 A 
HETATM   17  C   UNL     1      10.758  29.775  56.848  1.00  0.00     0.003 A 
HETATM   18  C   UNL     1       9.681  28.914  57.070  1.00  0.00     0.037 A 
HETATM   19  C   UNL     1       8.687  29.247  57.997  1.00  0.00     0.076 A 
BRANCH  19  20
HETATM   20  O   UNL     1       7.589  28.470  58.256  1.00  0.00    -0.350 OA
BRANCH  20  21
HETATM   21  C   UNL     1       7.181  27.547  57.248  1.00  0.00     0.180 C 
BRANCH  21  22
HETATM   22  C   UNL     1       7.356  26.165  57.801  1.00  0.00     0.010 A 
HETATM   23  C   UNL     1       7.050  24.951  56.961  1.00  0.00     0.007 A 
HETATM   24  C   UNL     1       8.476  25.284  57.307  1.00  0.00     0.007 A 
ENDBRANCH  21  22
ENDBRANCH  20  21
ENDBRANCH  19  20
ENDBRANCH  13  14
ENDBRANCH  11  13
ENDBRANCH   1  11
BRANCH   8  25
HETATM   25  C   UNL     1       2.961  33.758  62.727  1.00  0.00     0.270 C 
HETATM   26  N   UNL     1       1.844  33.784  63.516  1.00  0.00    -0.365 N 
HETATM   27  H   UNL     1       1.955  33.659  64.516  1.00  0.00     0.159 HD
HETATM   28  H   UNL     1       0.935  33.893  63.097  1.00  0.00     0.159 HD
HETATM   29  O   UNL     1       2.883  33.887  61.509  1.00  0.00    -0.266 OA
ENDBRANCH   8  25
TORSDOF 7
ENDMDL
MODEL 8
REMARK VINA RESULT:      -7.8      2.883      7.842
REMARK  7 active torsions:
REMARK  status: ('A' for Active; 'I' for Inactive)
REMARK    1  A    between atoms: C_3  and  C_4 
REMARK    2  A    between atoms: C_4  and  N_5 
REMARK    3  A    between atoms: N_5  and  C_6 
REMARK    4  A    between atoms: C_13  and  C_14 
REMARK       I    between atoms: C_14  and  N_15 
REMARK    5  A    between atoms: C_19  and  O_20 
REMARK    6  A    between atoms: O_20  and  C_21 
REMARK    7  A    between atoms: C_21  and  C_22 
ROOT
HETATM    1  C   UNL     1       5.610  28.376  55.928  1.00  0.00     0.029 A 
HETATM    2  C   UNL     1       6.057  27.077  55.623  1.00  0.00     0.045 A 
HETATM    3  C   UNL     1       5.527  26.373  54.524  1.00  0.00     0.030 A 
HETATM    4  C   UNL     1       4.545  26.981  53.755  1.00  0.00     0.063 A 
HETATM    5  N   UNL     1       4.234  26.076  52.781  1.00  0.00    -0.277 N 
HETATM    6  H   UNL     1       3.553  26.186  52.038  1.00  0.00     0.189 HD
HETATM    7  N   UNL     1       4.915  24.920  52.856  1.00  0.00    -0.168 NA
HETATM    8  C   UNL     1       5.717  25.088  53.932  1.00  0.00     0.156 A 
HETATM    9  C   UNL     1       4.051  28.256  54.031  1.00  0.00     0.034 A 
HETATM   10  C   UNL     1       4.592  28.926  55.140  1.00  0.00     0.031 A 
ENDROOT
BRANCH   1  11
HETATM   11  N   UNL     1       6.118  28.988  57.069  1.00  0.00    -0.386 N 
HETATM   12  H   UNL     1       5.428  29.487  57.621  1.00  0.00     0.160 HD
BRANCH  11  13
HETATM   13  C   UNL     1       7.241  28.461  57.838  1.00  0.00     0.161 C 
BRANCH  13  14
HETATM   14  C   UNL     1       8.520  29.266  57.705  1.00  0.00    -0.007 A 
HETATM   15  C   UNL     1       9.612  28.778  56.963  1.00  0.00     0.011 A 
HETATM   16  C   UNL     1      10.801  29.500  56.879  1.00  0.00     0.001 A 
HETATM   17  C   UNL     1      10.926  30.712  57.549  1.00  0.00     0.003 A 
HETATM   18  C   UNL     1       9.861  31.205  58.306  1.00  0.00     0.037 A 
HETATM   19  C   UNL     1       8.659  30.493  58.386  1.00  0.00     0.076 A 
BRANCH  19  20
HETATM   20  O   UNL     1       7.576  30.895  59.123  1.00  0.00    -0.350 OA
BRANCH  20  21
HETATM   21  C   UNL     1       7.776  31.942  60.071  1.00  0.00     0.180 C 
BRANCH  21  22
HETATM   22  C   UNL     1       7.812  31.320  61.433  1.00  0.00     0.010 A 
HETATM   23  C   UNL     1       9.097  30.773  62.000  1.00  0.00     0.007 A 
HETATM   24  C   UNL     1       8.497  32.027  62.575  1.00  0.00     0.007 A 
ENDBRANCH  21  22
ENDBRANCH  20  21
ENDBRANCH  19  20
ENDBRANCH  13  14
ENDBRANCH  11  13
ENDBRANCH   1  11
BRANCH   8  25
HETATM   25  C   UNL     1       6.636  24.031  54.376  1.00  0.00     0.270 C 
HETATM   26  N   UNL     1       7.231  23.344  53.354  1.00  0.00    -0.365 N 
HETATM   27  H   UNL     1       6.996  23.596  52.400  1.00  0.00     0.159 HD
HETATM   28  H   UNL     1       7.862  22.586  53.558  1.00  0.00     0.159 HD
HETATM   29  O   UNL     1       6.871  23.757  55.549  1.00  0.00    -0.266 OA
ENDBRANCH   8  25
TORSDOF 7
ENDMDL
MODEL 9
REMARK VINA RESULT:      -7.8      2.723      6.565
REMARK  7 active torsions:
REMARK  status: ('A' for Active; 'I' for Inactive)
REMARK    1  A    between atoms: C_3  and  C_4 
REMARK    2  A    between atoms: C_4  and  N_5 
REMARK    3  A    between atoms: N_5  and  C_6 
REMARK    4  A    between atoms: C_13  and  C_14 
REMARK       I    between atoms: C_14  and  N_15 
REMARK    5  A    between atoms: C_19  and  O_20 
REMARK    6  A    between atoms: O_20  and  C_21 
REMARK    7  A    between atoms: C_21  and  C_22 
ROOT
HETATM    1  C   UNL     1       5.932  24.779  55.083  1.00  0.00     0.029 A 
HETATM    2  C   UNL     1       6.721  23.740  55.612  1.00  0.00     0.045 A 
HETATM    3  C   UNL     1       7.489  22.917  54.765  1.00  0.00     0.030 A 
HETATM    4  C   UNL     1       7.444  23.143  53.397  1.00  0.00     0.063 A 
HETATM    5  N   UNL     1       8.275  22.210  52.847  1.00  0.00    -0.277 N 
HETATM    6  H   UNL     1       8.486  22.082  51.864  1.00  0.00     0.189 HD
HETATM    7  N   UNL     1       8.848  21.380  53.735  1.00  0.00    -0.168 NA
HETATM    8  C   UNL     1       8.369  21.805  54.927  1.00  0.00     0.156 A 
HETATM    9  C   UNL     1       6.660  24.143  52.822  1.00  0.00     0.034 A 
HETATM   10  C   UNL     1       5.896  24.938  53.693  1.00  0.00     0.031 A 
ENDROOT
BRANCH   1  11
HETATM   11  N   UNL     1       5.139  25.507  55.964  1.00  0.00    -0.386 N 
HETATM   12  H   UNL     1       4.168  25.216  55.994  1.00  0.00     0.160 HD
BRANCH  11  13
HETATM   13  C   UNL     1       5.635  26.087  57.208  1.00  0.00     0.161 C 
BRANCH  13  14
HETATM   14  C   UNL     1       6.564  27.270  57.017  1.00  0.00    -0.007 A 
HETATM   15  C   UNL     1       7.944  27.159  57.267  1.00  0.00     0.011 A 
HETATM   16  C   UNL     1       8.789  28.259  57.132  1.00  0.00     0.001 A 
HETATM   17  C   UNL     1       8.266  29.494  56.764  1.00  0.00     0.003 A 
HETATM   18  C   UNL     1       6.896  29.632  56.530  1.00  0.00     0.037 A 
HETATM   19  C   UNL     1       6.043  28.529  56.650  1.00  0.00     0.076 A 
BRANCH  19  20
HETATM   20  O   UNL     1       4.687  28.584  56.460  1.00  0.00    -0.350 OA
BRANCH  20  21
HETATM   21  C   UNL     1       4.209  29.273  55.306  1.00  0.00     0.180 C 
BRANCH  21  22
HETATM   22  C   UNL     1       4.215  28.303  54.165  1.00  0.00     0.010 A 
HETATM   23  C   UNL     1       3.512  28.626  52.871  1.00  0.00     0.007 A 
HETATM   24  C   UNL     1       5.015  28.596  52.921  1.00  0.00     0.007 A 
ENDBRANCH  21  22
ENDBRANCH  20  21
ENDBRANCH  19  20
ENDBRANCH  13  14
ENDBRANCH  11  13
ENDBRANCH   1  11
BRANCH   8  25
HETATM   25  C   UNL     1       8.748  21.145  56.184  1.00  0.00     0.270 C 
HETATM   26  N   UNL     1       9.567  20.061  56.021  1.00  0.00    -0.365 N 
HETATM   27  H   UNL     1       9.834  19.795  55.080  1.00  0.00     0.159 HD
HETATM   28  H   UNL     1       9.864  19.531  56.823  1.00  0.00     0.159 HD
HETATM   29  O   UNL     1       8.380  21.502  57.299  1.00  0.00    -0.266 OA
ENDBRANCH   8  25
TORSDOF 7
ENDMDL
MODEL 10
REMARK VINA RESULT:      -7.7      2.655      7.583
REMARK  7 active torsions:
REMARK  status: ('A' for Active; 'I' for Inactive)
REMARK    1  A    between atoms: C_3  and  C_4 
REMARK    2  A    between atoms: C_4  and  N_5 
REMARK    3  A    between atoms: N_5  and  C_6 
REMARK    4  A    between atoms: C_13  and  C_14 
REMARK       I    between atoms: C_14  and  N_15 
REMARK    5  A    between atoms: C_19  and  O_20 
REMARK    6  A    between atoms: O_20  and  C_21 
REMARK    7  A    between atoms: C_21  and  C_22 
ROOT
HETATM    1  C   UNL     1       7.221  24.905  54.589  1.00  0.00     0.029 A 
HETATM    2  C   UNL     1       7.699  23.778  55.283  1.00  0.00     0.045 A 
HETATM    3  C   UNL     1       7.976  22.576  54.601  1.00  0.00     0.030 A 
HETATM    4  C   UNL     1       7.756  22.523  53.232  1.00  0.00     0.063 A 
HETATM    5  N   UNL     1       8.109  21.258  52.857  1.00  0.00    -0.277 N 
HETATM    6  H   UNL     1       8.079  20.865  51.922  1.00  0.00     0.189 HD
HETATM    7  N   UNL     1       8.524  20.472  53.865  1.00  0.00    -0.168 NA
HETATM    8  C   UNL     1       8.445  21.275  54.952  1.00  0.00     0.156 A 
HETATM    9  C   UNL     1       7.260  23.604  52.503  1.00  0.00     0.034 A 
HETATM   10  C   UNL     1       6.983  24.782  53.215  1.00  0.00     0.031 A 
ENDROOT
BRANCH   1  11
HETATM   11  N   UNL     1       6.895  26.035  55.330  1.00  0.00    -0.386 N 
HETATM   12  H   UNL     1       7.602  26.315  56.002  1.00  0.00     0.160 HD
BRANCH  11  13
HETATM   13  C   UNL     1       6.080  27.132  54.819  1.00  0.00     0.161 C 
BRANCH  13  14
HETATM   14  C   UNL     1       5.795  28.223  55.833  1.00  0.00    -0.007 A 
HETATM   15  C   UNL     1       4.480  28.657  56.084  1.00  0.00     0.011 A 
HETATM   16  C   UNL     1       4.225  29.689  56.985  1.00  0.00     0.001 A 
HETATM   17  C   UNL     1       5.281  30.319  57.636  1.00  0.00     0.003 A 
HETATM   18  C   UNL     1       6.595  29.917  57.386  1.00  0.00     0.037 A 
HETATM   19  C   UNL     1       6.858  28.872  56.493  1.00  0.00     0.076 A 
BRANCH  19  20
HETATM   20  O   UNL     1       8.118  28.433  56.177  1.00  0.00    -0.350 OA
BRANCH  20  21
HETATM   21  C   UNL     1       9.142  28.607  57.154  1.00  0.00     0.180 C 
BRANCH  21  22
HETATM   22  C   UNL     1      10.084  29.653  56.641  1.00  0.00     0.010 A 
HETATM   23  C   UNL     1      10.498  30.815  57.509  1.00  0.00     0.007 A 
HETATM   24  C   UNL     1      11.493  29.737  57.174  1.00  0.00     0.007 A 
ENDBRANCH  21  22
ENDBRANCH  20  21
ENDBRANCH  19  20
ENDBRANCH  13  14
ENDBRANCH  11  13
ENDBRANCH   1  11
BRANCH   8  25
HETATM   25  C   UNL     1       8.807  20.790  56.290  1.00  0.00     0.270 C 
HETATM   26  N   UNL     1       9.792  19.840  56.292  1.00  0.00    -0.365 N 
HETATM   27  H   UNL     1      10.178  19.542  55.403  1.00  0.00     0.159 HD
HETATM   28  H   UNL     1      10.094  19.432  57.161  1.00  0.00     0.159 HD
HETATM   29  O   UNL     1       8.292  21.175  57.336  1.00  0.00    -0.266 OA
ENDBRANCH   8  25
TORSDOF 7
ENDMDL
