MODEL 1
REMARK VINA RESULT:      -9.1      0.000      0.000
REMARK  5 active torsions:
REMARK  status: ('A' for Active; 'I' for Inactive)
REMARK    1  A    between atoms: C_2  and  C_3 
REMARK    2  A    between atoms: C_7  and  N_8 
REMARK    3  A    between atoms: N_8  and  C_9 
REMARK    4  A    between atoms: C_11  and  N_12 
REMARK    5  A    between atoms: C_14  and  N_15 
ROOT
HETATM    1  C   UNL     1       7.623  26.875  57.560  1.00  0.00     0.111 A 
HETATM    2  N   UNL     1       8.127  25.707  57.990  1.00  0.00    -0.206 NA
HETATM    3  C   UNL     1       7.949  24.629  57.225  1.00  0.00     0.202 A 
HETATM    4  N   UNL     1       7.257  24.603  56.090  1.00  0.00    -0.199 NA
HETATM    5  C   UNL     1       6.734  25.781  55.685  1.00  0.00     0.156 A 
HETATM    6  C   UNL     1       6.899  26.956  56.390  1.00  0.00     0.096 A 
ENDROOT
BRANCH   1   7
HETATM    7  N   UNL     1       7.763  28.040  58.328  1.00  0.00    -0.265 NA
HETATM    8  H   UNL     1       6.867  28.276  58.756  1.00  0.00     0.130 HD
BRANCH   7   9
HETATM    9  C   UNL     1       8.305  29.220  57.643  1.00  0.00     0.133 C 
HETATM   10  C   UNL     1       8.481  30.381  58.583  1.00  0.00     0.142 A 
HETATM   11  N   UNL     1       9.565  31.203  58.525  1.00  0.00    -0.253 N 
HETATM   12  N   UNL     1       7.668  30.811  59.528  1.00  0.00    -0.215 NA
HETATM   13  N   UNL     1       9.490  32.193  59.424  1.00  0.00    -0.155 NA
HETATM   14  C   UNL     1      10.717  31.034  57.668  1.00  0.00     0.153 C 
HETATM   15  C   UNL     1       8.316  31.924  60.013  1.00  0.00     0.151 A 
HETATM   16  C   UNL     1      10.413  30.091  56.506  1.00  0.00     0.024 C 
HETATM   17  C   UNL     1       9.660  28.849  56.993  1.00  0.00     0.029 C 
BRANCH  15  18
HETATM   18  C   UNL     1       7.746  32.782  61.097  1.00  0.00     0.051 C 
HETATM   19  C   UNL     1       8.201  32.314  62.478  1.00  0.00     0.018 C 
HETATM   20  C   UNL     1       6.219  32.824  61.019  1.00  0.00     0.018 C 
ENDBRANCH  15  18
ENDBRANCH   7   9
ENDBRANCH   1   7
BRANCH   3  21
HETATM   21  N   UNL     1       8.483  23.438  57.670  1.00  0.00    -0.271 NA
HETATM   22  H   UNL     1       9.462  23.559  57.887  1.00  0.00     0.127 HD
HETATM   23  H   UNL     1       7.893  23.040  58.387  1.00  0.00     0.127 HD
ENDBRANCH   3  21
BRANCH   5  24
HETATM   24  N   UNL     1       5.965  25.796  54.485  1.00  0.00    -0.227 N 
HETATM   25  N   UNL     1       5.324  26.913  54.040  1.00  0.00    -0.179 NA
HETATM   26  C   UNL     1       4.709  26.519  52.923  1.00  0.00     0.141 A 
HETATM   27  C   UNL     1       4.940  25.167  52.625  1.00  0.00     0.040 A 
HETATM   28  C   UNL     1       5.750  24.725  53.641  1.00  0.00     0.122 A 
ENDBRANCH   5  24
TORSDOF 5
ENDMDL
MODEL 2
REMARK VINA RESULT:      -9.1      1.347      2.783
REMARK  5 active torsions:
REMARK  status: ('A' for Active; 'I' for Inactive)
REMARK    1  A    between atoms: C_2  and  C_3 
REMARK    2  A    between atoms: C_7  and  N_8 
REMARK    3  A    between atoms: N_8  and  C_9 
REMARK    4  A    between atoms: C_11  and  N_12 
REMARK    5  A    between atoms: C_14  and  N_15 
ROOT
HETATM    1  C   UNL     1       7.154  27.188  57.274  1.00  0.00     0.111 A 
HETATM    2  N   UNL     1       6.143  27.599  56.493  1.00  0.00    -0.206 NA
HETATM    3  C   UNL     1       5.583  26.707  55.673  1.00  0.00     0.202 A 
HETATM    4  N   UNL     1       5.986  25.449  55.522  1.00  0.00    -0.199 NA
HETATM    5  C   UNL     1       7.023  25.059  56.296  1.00  0.00     0.156 A 
HETATM    6  C   UNL     1       7.640  25.900  57.200  1.00  0.00     0.096 A 
ENDROOT
BRANCH   1   7
HETATM    7  N   UNL     1       7.794  28.083  58.144  1.00  0.00    -0.265 NA
HETATM    8  H   UNL     1       7.153  28.347  58.894  1.00  0.00     0.130 HD
BRANCH   7   9
HETATM    9  C   UNL     1       8.366  29.292  57.539  1.00  0.00     0.133 C 
HETATM   10  C   UNL     1       8.485  30.412  58.536  1.00  0.00     0.142 A 
HETATM   11  N   UNL     1       9.567  31.240  58.572  1.00  0.00    -0.253 N 
HETATM   12  N   UNL     1       7.620  30.799  59.454  1.00  0.00    -0.215 NA
HETATM   13  N   UNL     1       9.438  32.190  59.507  1.00  0.00    -0.155 NA
HETATM   14  C   UNL     1      10.763  31.111  57.771  1.00  0.00     0.153 C 
HETATM   15  C   UNL     1       8.236  31.893  60.020  1.00  0.00     0.151 A 
HETATM   16  C   UNL     1      10.527  30.218  56.555  1.00  0.00     0.024 C 
HETATM   17  C   UNL     1       9.755  28.954  56.948  1.00  0.00     0.029 C 
BRANCH  15  18
HETATM   18  C   UNL     1       7.604  32.701  61.107  1.00  0.00     0.051 C 
HETATM   19  C   UNL     1       8.153  32.318  62.481  1.00  0.00     0.018 C 
HETATM   20  C   UNL     1       6.081  32.565  61.080  1.00  0.00     0.018 C 
ENDBRANCH  15  18
ENDBRANCH   7   9
ENDBRANCH   1   7
BRANCH   3  21
HETATM   21  N   UNL     1       4.535  27.136  54.886  1.00  0.00    -0.271 NA
HETATM   22  H   UNL     1       3.799  27.512  55.467  1.00  0.00     0.127 HD
HETATM   23  H   UNL     1       4.880  27.719  54.137  1.00  0.00     0.127 HD
ENDBRANCH   3  21
BRANCH   5  24
HETATM   24  N   UNL     1       7.504  23.726  56.151  1.00  0.00    -0.227 N 
HETATM   25  N   UNL     1       7.175  22.940  55.088  1.00  0.00    -0.179 NA
HETATM   26  C   UNL     1       7.793  21.782  55.329  1.00  0.00     0.141 A 
HETATM   27  C   UNL     1       8.526  21.796  56.525  1.00  0.00     0.040 A 
HETATM   28  C   UNL     1       8.326  23.055  57.035  1.00  0.00     0.122 A 
ENDBRANCH   5  24
TORSDOF 5
ENDMDL
MODEL 3
REMARK VINA RESULT:      -8.9      2.497      8.048
REMARK  5 active torsions:
REMARK  status: ('A' for Active; 'I' for Inactive)
REMARK    1  A    between atoms: C_2  and  C_3 
REMARK    2  A    between atoms: C_7  and  N_8 
REMARK    3  A    between atoms: N_8  and  C_9 
REMARK    4  A    between atoms: C_11  and  N_12 
REMARK    5  A    between atoms: C_14  and  N_15 
ROOT
HETATM    1  C   UNL     1       6.246  27.359  56.383  1.00  0.00     0.111 A 
HETATM    2  N   UNL     1       5.164  27.969  56.894  1.00  0.00    -0.206 NA
HETATM    3  C   UNL     1       5.337  29.145  57.501  1.00  0.00     0.202 A 
HETATM    4  N   UNL     1       6.510  29.739  57.695  1.00  0.00    -0.199 NA
HETATM    5  C   UNL     1       7.592  29.099  57.199  1.00  0.00     0.156 A 
HETATM    6  C   UNL     1       7.506  27.899  56.524  1.00  0.00     0.096 A 
ENDROOT
BRANCH   1   7
HETATM    7  N   UNL     1       6.131  26.114  55.749  1.00  0.00    -0.265 NA
HETATM    8  H   UNL     1       6.008  25.383  56.452  1.00  0.00     0.130 HD
BRANCH   7   9
HETATM    9  C   UNL     1       7.217  25.737  54.836  1.00  0.00     0.133 C 
HETATM   10  C   UNL     1       7.405  24.246  54.777  1.00  0.00     0.142 A 
HETATM   11  N   UNL     1       7.669  23.594  53.610  1.00  0.00    -0.253 N 
HETATM   12  N   UNL     1       7.396  23.371  55.764  1.00  0.00    -0.215 NA
HETATM   13  N   UNL     1       7.844  22.280  53.801  1.00  0.00    -0.155 NA
HETATM   14  C   UNL     1       7.698  24.187  52.292  1.00  0.00     0.153 C 
HETATM   15  C   UNL     1       7.676  22.182  55.127  1.00  0.00     0.151 A 
HETATM   16  C   UNL     1       7.844  25.705  52.367  1.00  0.00     0.024 C 
HETATM   17  C   UNL     1       6.906  26.293  53.425  1.00  0.00     0.029 C 
BRANCH  15  18
HETATM   18  C   UNL     1       7.806  20.886  55.860  1.00  0.00     0.051 C 
HETATM   19  C   UNL     1       8.368  21.092  57.266  1.00  0.00     0.018 C 
HETATM   20  C   UNL     1       8.668  19.895  55.077  1.00  0.00     0.018 C 
ENDBRANCH  15  18
ENDBRANCH   7   9
ENDBRANCH   1   7
BRANCH   3  21
HETATM   21  N   UNL     1       4.217  29.770  58.008  1.00  0.00    -0.271 NA
HETATM   22  H   UNL     1       3.446  29.673  57.363  1.00  0.00     0.127 HD
HETATM   23  H   UNL     1       4.063  29.481  58.964  1.00  0.00     0.127 HD
ENDBRANCH   3  21
BRANCH   5  24
HETATM   24  N   UNL     1       8.873  29.688  57.405  1.00  0.00    -0.227 N 
HETATM   25  N   UNL     1       9.053  30.803  58.167  1.00  0.00    -0.179 NA
HETATM   26  C   UNL     1      10.362  31.047  58.093  1.00  0.00     0.141 A 
HETATM   27  C   UNL     1      11.046  30.110  57.303  1.00  0.00     0.040 A 
HETATM   28  C   UNL     1      10.068  29.247  56.873  1.00  0.00     0.122 A 
ENDBRANCH   5  24
TORSDOF 5
ENDMDL
MODEL 4
REMARK VINA RESULT:      -8.7      5.011      8.102
REMARK  5 active torsions:
REMARK  status: ('A' for Active; 'I' for Inactive)
REMARK    1  A    between atoms: C_2  and  C_3 
REMARK    2  A    between atoms: C_7  and  N_8 
REMARK    3  A    between atoms: N_8  and  C_9 
REMARK    4  A    between atoms: C_11  and  N_12 
REMARK    5  A    between atoms: C_14  and  N_15 
ROOT
HETATM    1  C   UNL     1       5.712  25.212  54.722  1.00  0.00     0.111 A 
HETATM    2  N   UNL     1       6.075  25.627  55.946  1.00  0.00    -0.206 NA
HETATM    3  C   UNL     1       7.011  24.928  56.593  1.00  0.00     0.202 A 
HETATM    4  N   UNL     1       7.575  23.811  56.145  1.00  0.00    -0.199 NA
HETATM    5  C   UNL     1       7.179  23.391  54.924  1.00  0.00     0.156 A 
HETATM    6  C   UNL     1       6.246  24.070  54.165  1.00  0.00     0.096 A 
ENDROOT
BRANCH   1   7
HETATM    7  N   UNL     1       4.722  25.895  54.000  1.00  0.00    -0.265 NA
HETATM    8  H   UNL     1       4.388  25.304  53.238  1.00  0.00     0.130 HD
BRANCH   7   9
HETATM    9  C   UNL     1       5.086  27.216  53.473  1.00  0.00     0.133 C 
HETATM   10  C   UNL     1       4.799  27.327  52.001  1.00  0.00     0.142 A 
HETATM   11  N   UNL     1       4.280  28.459  51.448  1.00  0.00    -0.253 N 
HETATM   12  N   UNL     1       5.018  26.446  51.045  1.00  0.00    -0.215 NA
HETATM   13  N   UNL     1       4.150  28.351  50.119  1.00  0.00    -0.155 NA
HETATM   14  C   UNL     1       3.840  29.633  52.167  1.00  0.00     0.153 C 
HETATM   15  C   UNL     1       4.615  27.112  49.909  1.00  0.00     0.151 A 
HETATM   16  C   UNL     1       4.421  29.673  53.578  1.00  0.00     0.024 C 
HETATM   17  C   UNL     1       4.309  28.303  54.253  1.00  0.00     0.029 C 
BRANCH  15  18
HETATM   18  C   UNL     1       4.712  26.510  48.545  1.00  0.00     0.051 C 
HETATM   19  C   UNL     1       5.095  27.555  47.498  1.00  0.00     0.018 C 
HETATM   20  C   UNL     1       3.406  25.814  48.157  1.00  0.00     0.018 C 
ENDBRANCH  15  18
ENDBRANCH   7   9
ENDBRANCH   1   7
BRANCH   3  21
HETATM   21  N   UNL     1       7.386  25.373  57.843  1.00  0.00    -0.271 NA
HETATM   22  H   UNL     1       8.326  25.065  58.051  1.00  0.00     0.127 HD
HETATM   23  H   UNL     1       7.190  26.360  57.934  1.00  0.00     0.127 HD
ENDBRANCH   3  21
BRANCH   5  24
HETATM   24  N   UNL     1       7.740  22.185  54.414  1.00  0.00    -0.227 N 
HETATM   25  N   UNL     1       8.207  21.195  55.224  1.00  0.00    -0.179 NA
HETATM   26  C   UNL     1       8.664  20.266  54.382  1.00  0.00     0.141 A 
HETATM   27  C   UNL     1       8.499  20.624  53.036  1.00  0.00     0.040 A 
HETATM   28  C   UNL     1       7.902  21.861  53.082  1.00  0.00     0.122 A 
ENDBRANCH   5  24
TORSDOF 5
ENDMDL
MODEL 5
REMARK VINA RESULT:      -8.7      1.683      8.061
REMARK  5 active torsions:
REMARK  status: ('A' for Active; 'I' for Inactive)
REMARK    1  A    between atoms: C_2  and  C_3 
REMARK    2  A    between atoms: C_7  and  N_8 
REMARK    3  A    between atoms: N_8  and  C_9 
REMARK    4  A    between atoms: C_11  and  N_12 
REMARK    5  A    between atoms: C_14  and  N_15 
ROOT
HETATM    1  C   UNL     1       8.048  28.626  57.399  1.00  0.00     0.111 A 
HETATM    2  N   UNL     1       9.235  28.714  56.778  1.00  0.00    -0.206 NA
HETATM    3  C   UNL     1      10.155  29.528  57.298  1.00  0.00     0.202 A 
HETATM    4  N   UNL     1       9.971  30.311  58.356  1.00  0.00    -0.199 NA
HETATM    5  C   UNL     1       8.761  30.232  58.953  1.00  0.00     0.156 A 
HETATM    6  C   UNL     1       7.761  29.390  58.510  1.00  0.00     0.096 A 
ENDROOT
BRANCH   1   7
HETATM    7  N   UNL     1       7.035  27.800  56.890  1.00  0.00    -0.265 NA
HETATM    8  H   UNL     1       7.165  26.848  57.236  1.00  0.00     0.130 HD
BRANCH   7   9
HETATM    9  C   UNL     1       6.878  27.774  55.430  1.00  0.00     0.133 C 
HETATM   10  C   UNL     1       6.775  26.369  54.905  1.00  0.00     0.142 A 
HETATM   11  N   UNL     1       5.909  26.029  53.909  1.00  0.00    -0.253 N 
HETATM   12  N   UNL     1       7.473  25.304  55.247  1.00  0.00    -0.215 NA
HETATM   13  N   UNL     1       6.020  24.738  53.570  1.00  0.00    -0.155 NA
HETATM   14  C   UNL     1       4.922  26.896  53.306  1.00  0.00     0.153 C 
HETATM   15  C   UNL     1       6.988  24.330  54.403  1.00  0.00     0.151 A 
HETATM   16  C   UNL     1       5.234  28.366  53.576  1.00  0.00     0.024 C 
HETATM   17  C   UNL     1       5.616  28.583  55.043  1.00  0.00     0.029 C 
BRANCH  15  18
HETATM   18  C   UNL     1       7.514  22.931  54.399  1.00  0.00     0.051 C 
HETATM   19  C   UNL     1       8.724  22.785  55.321  1.00  0.00     0.018 C 
HETATM   20  C   UNL     1       7.862  22.478  52.980  1.00  0.00     0.018 C 
ENDBRANCH  15  18
ENDBRANCH   7   9
ENDBRANCH   1   7
BRANCH   3  21
HETATM   21  N   UNL     1      11.375  29.599  56.661  1.00  0.00    -0.271 NA
HETATM   22  H   UNL     1      11.368  30.349  55.984  1.00  0.00     0.127 HD
HETATM   23  H   UNL     1      12.123  29.594  57.341  1.00  0.00     0.127 HD
ENDBRANCH   3  21
BRANCH   5  24
HETATM   24  N   UNL     1       8.511  31.071  60.077  1.00  0.00    -0.227 N 
HETATM   25  N   UNL     1       7.641  32.118  60.030  1.00  0.00    -0.179 NA
HETATM   26  C   UNL     1       7.705  32.656  61.250  1.00  0.00     0.141 A 
HETATM   27  C   UNL     1       8.595  31.979  62.096  1.00  0.00     0.040 A 
HETATM   28  C   UNL     1       9.100  30.964  61.321  1.00  0.00     0.122 A 
ENDBRANCH   5  24
TORSDOF 5
ENDMDL
MODEL 6
REMARK VINA RESULT:      -8.4      5.241      8.448
REMARK  5 active torsions:
REMARK  status: ('A' for Active; 'I' for Inactive)
REMARK    1  A    between atoms: C_2  and  C_3 
REMARK    2  A    between atoms: C_7  and  N_8 
REMARK    3  A    between atoms: N_8  and  C_9 
REMARK    4  A    between atoms: C_11  and  N_12 
REMARK    5  A    between atoms: C_14  and  N_15 
ROOT
HETATM    1  C   UNL     1       6.062  26.704  51.936  1.00  0.00     0.111 A 
HETATM    2  N   UNL     1       6.031  28.016  52.217  1.00  0.00    -0.206 NA
HETATM    3  C   UNL     1       5.276  28.803  51.447  1.00  0.00     0.202 A 
HETATM    4  N   UNL     1       4.593  28.400  50.381  1.00  0.00    -0.199 NA
HETATM    5  C   UNL     1       4.658  27.080  50.096  1.00  0.00     0.156 A 
HETATM    6  C   UNL     1       5.381  26.185  50.857  1.00  0.00     0.096 A 
ENDROOT
BRANCH   1   7
HETATM    7  N   UNL     1       6.851  25.829  52.699  1.00  0.00    -0.265 NA
HETATM    8  H   UNL     1       7.109  25.020  52.131  1.00  0.00     0.130 HD
BRANCH   7   9
HETATM    9  C   UNL     1       6.282  25.373  53.973  1.00  0.00     0.133 C 
HETATM   10  C   UNL     1       6.851  24.046  54.394  1.00  0.00     0.142 A 
HETATM   11  N   UNL     1       7.168  23.771  55.691  1.00  0.00    -0.253 N 
HETATM   12  N   UNL     1       7.089  22.976  53.661  1.00  0.00    -0.215 NA
HETATM   13  N   UNL     1       7.614  22.517  55.842  1.00  0.00    -0.155 NA
HETATM   14  C   UNL     1       7.115  24.703  56.795  1.00  0.00     0.153 C 
HETATM   15  C   UNL     1       7.547  22.061  54.583  1.00  0.00     0.151 A 
HETATM   16  C   UNL     1       6.243  25.911  56.463  1.00  0.00     0.024 C 
HETATM   17  C   UNL     1       6.555  26.440  55.060  1.00  0.00     0.029 C 
BRANCH  15  18
HETATM   18  C   UNL     1       7.917  20.661  54.214  1.00  0.00     0.051 C 
HETATM   19  C   UNL     1       8.937  20.077  55.191  1.00  0.00     0.018 C 
HETATM   20  C   UNL     1       8.444  20.590  52.780  1.00  0.00     0.018 C 
ENDBRANCH  15  18
ENDBRANCH   7   9
ENDBRANCH   1   7
BRANCH   3  21
HETATM   21  N   UNL     1       5.239  30.147  51.754  1.00  0.00    -0.271 NA
HETATM   22  H   UNL     1       5.834  30.661  51.120  1.00  0.00     0.127 HD
HETATM   23  H   UNL     1       4.282  30.456  51.846  1.00  0.00     0.127 HD
ENDBRANCH   3  21
BRANCH   5  24
HETATM   24  N   UNL     1       3.960  26.607  48.946  1.00  0.00    -0.227 N 
HETATM   25  N   UNL     1       3.509  27.441  47.969  1.00  0.00    -0.179 NA
HETATM   26  C   UNL     1       2.901  26.633  47.098  1.00  0.00     0.141 A 
HETATM   27  C   UNL     1       2.951  25.284  47.484  1.00  0.00     0.040 A 
HETATM   28  C   UNL     1       3.637  25.293  48.673  1.00  0.00     0.122 A 
ENDBRANCH   5  24
TORSDOF 5
ENDMDL
MODEL 7
REMARK VINA RESULT:      -8.3      2.400      4.028
REMARK  5 active torsions:
REMARK  status: ('A' for Active; 'I' for Inactive)
REMARK    1  A    between atoms: C_2  and  C_3 
REMARK    2  A    between atoms: C_7  and  N_8 
REMARK    3  A    between atoms: N_8  and  C_9 
REMARK    4  A    between atoms: C_11  and  N_12 
REMARK    5  A    between atoms: C_14  and  N_15 
ROOT
HETATM    1  C   UNL     1       7.661  25.713  55.833  1.00  0.00     0.111 A 
HETATM    2  N   UNL     1       8.093  25.597  57.098  1.00  0.00    -0.206 NA
HETATM    3  C   UNL     1       8.601  24.424  57.481  1.00  0.00     0.202 A 
HETATM    4  N   UNL     1       8.661  23.333  56.724  1.00  0.00    -0.199 NA
HETATM    5  C   UNL     1       8.196  23.459  55.461  1.00  0.00     0.156 A 
HETATM    6  C   UNL     1       7.688  24.642  54.965  1.00  0.00     0.096 A 
ENDROOT
BRANCH   1   7
HETATM    7  N   UNL     1       7.101  26.915  55.376  1.00  0.00    -0.265 NA
HETATM    8  H   UNL     1       7.846  27.549  55.085  1.00  0.00     0.130 HD
BRANCH   7   9
HETATM    9  C   UNL     1       6.198  27.612  56.300  1.00  0.00     0.133 C 
HETATM   10  C   UNL     1       6.877  28.772  56.975  1.00  0.00     0.142 A 
HETATM   11  N   UNL     1       6.243  29.959  57.189  1.00  0.00    -0.253 N 
HETATM   12  N   UNL     1       8.092  28.839  57.483  1.00  0.00    -0.215 NA
HETATM   13  N   UNL     1       7.021  30.830  57.845  1.00  0.00    -0.155 NA
HETATM   14  C   UNL     1       4.920  30.313  56.725  1.00  0.00     0.153 C 
HETATM   15  C   UNL     1       8.139  30.110  58.012  1.00  0.00     0.151 A 
HETATM   16  C   UNL     1       4.111  29.074  56.350  1.00  0.00     0.024 C 
HETATM   17  C   UNL     1       4.955  28.102  55.519  1.00  0.00     0.029 C 
BRANCH  15  18
HETATM   18  C   UNL     1       9.334  30.638  58.738  1.00  0.00     0.051 C 
HETATM   19  C   UNL     1       8.990  31.888  59.547  1.00  0.00     0.018 C 
HETATM   20  C   UNL     1      10.484  30.922  57.770  1.00  0.00     0.018 C 
ENDBRANCH  15  18
ENDBRANCH   7   9
ENDBRANCH   1   7
BRANCH   3  21
HETATM   21  N   UNL     1       9.056  24.321  58.779  1.00  0.00    -0.271 NA
HETATM   22  H   UNL     1       8.780  23.432  59.172  1.00  0.00     0.127 HD
HETATM   23  H   UNL     1      10.036  24.564  58.823  1.00  0.00     0.127 HD
ENDBRANCH   3  21
BRANCH   5  24
HETATM   24  N   UNL     1       8.218  22.308  54.620  1.00  0.00    -0.227 N 
HETATM   25  N   UNL     1       8.684  21.101  55.044  1.00  0.00    -0.179 NA
HETATM   26  C   UNL     1       8.561  20.307  53.978  1.00  0.00     0.141 A 
HETATM   27  C   UNL     1       8.018  20.969  52.867  1.00  0.00     0.040 A 
HETATM   28  C   UNL     1       7.804  22.253  53.304  1.00  0.00     0.122 A 
ENDBRANCH   5  24
TORSDOF 5
ENDMDL
MODEL 8
REMARK VINA RESULT:      -8.2      2.717      4.196
REMARK  5 active torsions:
REMARK  status: ('A' for Active; 'I' for Inactive)
REMARK    1  A    between atoms: C_2  and  C_3 
REMARK    2  A    between atoms: C_7  and  N_8 
REMARK    3  A    between atoms: N_8  and  C_9 
REMARK    4  A    between atoms: C_11  and  N_12 
REMARK    5  A    between atoms: C_14  and  N_15 
ROOT
HETATM    1  C   UNL     1       6.270  25.716  55.611  1.00  0.00     0.111 A 
HETATM    2  N   UNL     1       5.502  26.159  54.603  1.00  0.00    -0.206 NA
HETATM    3  C   UNL     1       5.355  25.372  53.535  1.00  0.00     0.202 A 
HETATM    4  N   UNL     1       5.960  24.201  53.361  1.00  0.00    -0.199 NA
HETATM    5  C   UNL     1       6.751  23.782  54.373  1.00  0.00     0.156 A 
HETATM    6  C   UNL     1       6.933  24.510  55.531  1.00  0.00     0.096 A 
ENDROOT
BRANCH   1   7
HETATM    7  N   UNL     1       6.476  26.505  56.752  1.00  0.00    -0.265 NA
HETATM    8  H   UNL     1       5.581  26.675  57.215  1.00  0.00     0.130 HD
BRANCH   7   9
HETATM    9  C   UNL     1       7.174  27.781  56.552  1.00  0.00     0.133 C 
HETATM   10  C   UNL     1       6.412  28.933  57.148  1.00  0.00     0.142 A 
HETATM   11  N   UNL     1       7.035  29.949  57.810  1.00  0.00    -0.253 N 
HETATM   12  N   UNL     1       5.118  29.180  57.107  1.00  0.00    -0.215 NA
HETATM   13  N   UNL     1       6.168  30.886  58.215  1.00  0.00    -0.155 NA
HETATM   14  C   UNL     1       8.443  30.021  58.127  1.00  0.00     0.153 C 
HETATM   15  C   UNL     1       5.010  30.386  57.763  1.00  0.00     0.151 A 
HETATM   16  C   UNL     1       9.259  29.063  57.262  1.00  0.00     0.024 C 
HETATM   17  C   UNL     1       8.584  27.690  57.183  1.00  0.00     0.029 C 
BRANCH  15  18
HETATM   18  C   UNL     1       3.706  31.095  57.937  1.00  0.00     0.051 C 
HETATM   19  C   UNL     1       3.458  32.097  56.811  1.00  0.00     0.018 C 
HETATM   20  C   UNL     1       3.634  31.788  59.299  1.00  0.00     0.018 C 
ENDBRANCH  15  18
ENDBRANCH   7   9
ENDBRANCH   1   7
BRANCH   3  21
HETATM   21  N   UNL     1       4.552  25.830  52.512  1.00  0.00    -0.271 NA
HETATM   22  H   UNL     1       4.200  26.750  52.736  1.00  0.00     0.127 HD
HETATM   23  H   UNL     1       5.022  25.715  51.625  1.00  0.00     0.127 HD
ENDBRANCH   3  21
BRANCH   5  24
HETATM   24  N   UNL     1       7.438  22.543  54.219  1.00  0.00    -0.227 N 
HETATM   25  N   UNL     1       7.726  21.730  55.273  1.00  0.00    -0.179 NA
HETATM   26  C   UNL     1       8.382  20.703  54.729  1.00  0.00     0.141 A 
HETATM   27  C   UNL     1       8.523  20.824  53.338  1.00  0.00     0.040 A 
HETATM   28  C   UNL     1       7.908  22.014  53.034  1.00  0.00     0.122 A 
ENDBRANCH   5  24
TORSDOF 5
ENDMDL
MODEL 9
REMARK VINA RESULT:      -8.1      2.048      7.976
REMARK  5 active torsions:
REMARK  status: ('A' for Active; 'I' for Inactive)
REMARK    1  A    between atoms: C_2  and  C_3 
REMARK    2  A    between atoms: C_7  and  N_8 
REMARK    3  A    between atoms: N_8  and  C_9 
REMARK    4  A    between atoms: C_11  and  N_12 
REMARK    5  A    between atoms: C_14  and  N_15 
ROOT
HETATM    1  C   UNL     1       8.760  29.333  55.960  1.00  0.00     0.111 A 
HETATM    2  N   UNL     1      10.102  29.331  56.016  1.00  0.00    -0.206 NA
HETATM    3  C   UNL     1      10.685  29.861  57.092  1.00  0.00     0.202 A 
HETATM    4  N   UNL     1      10.043  30.450  58.096  1.00  0.00    -0.199 NA
HETATM    5  C   UNL     1       8.695  30.469  58.012  1.00  0.00     0.156 A 
HETATM    6  C   UNL     1       8.003  29.911  56.956  1.00  0.00     0.096 A 
ENDROOT
BRANCH   1   7
HETATM    7  N   UNL     1       8.090  28.806  54.847  1.00  0.00    -0.265 NA
HETATM    8  H   UNL     1       7.740  29.569  54.266  1.00  0.00     0.130 HD
BRANCH   7   9
HETATM    9  C   UNL     1       7.002  27.860  55.121  1.00  0.00     0.133 C 
HETATM   10  C   UNL     1       6.312  27.421  53.859  1.00  0.00     0.142 A 
HETATM   11  N   UNL     1       5.913  26.134  53.660  1.00  0.00    -0.253 N 
HETATM   12  N   UNL     1       5.953  28.146  52.816  1.00  0.00    -0.215 NA
HETATM   13  N   UNL     1       5.281  25.982  52.489  1.00  0.00    -0.155 NA
HETATM   14  C   UNL     1       6.175  25.016  54.539  1.00  0.00     0.153 C 
HETATM   15  C   UNL     1       5.320  27.231  52.005  1.00  0.00     0.151 A 
HETATM   16  C   UNL     1       6.560  25.487  55.939  1.00  0.00     0.024 C 
HETATM   17  C   UNL     1       7.575  26.633  55.871  1.00  0.00     0.029 C 
BRANCH  15  18
HETATM   18  C   UNL     1       4.702  27.606  50.697  1.00  0.00     0.051 C 
HETATM   19  C   UNL     1       4.668  26.420  49.734  1.00  0.00     0.018 C 
HETATM   20  C   UNL     1       5.430  28.792  50.064  1.00  0.00     0.018 C 
ENDBRANCH  15  18
ENDBRANCH   7   9
ENDBRANCH   1   7
BRANCH   3  21
HETATM   21  N   UNL     1      12.063  29.839  57.146  1.00  0.00    -0.271 NA
HETATM   22  H   UNL     1      12.375  29.049  57.691  1.00  0.00     0.127 HD
HETATM   23  H   UNL     1      12.447  29.944  56.217  1.00  0.00     0.127 HD
ENDBRANCH   3  21
BRANCH   5  24
HETATM   24  N   UNL     1       7.966  31.112  59.055  1.00  0.00    -0.227 N 
HETATM   25  N   UNL     1       6.974  32.012  58.808  1.00  0.00    -0.179 NA
HETATM   26  C   UNL     1       6.566  32.395  60.019  1.00  0.00     0.141 A 
HETATM   27  C   UNL     1       7.266  31.758  61.055  1.00  0.00     0.040 A 
HETATM   28  C   UNL     1       8.159  30.937  60.410  1.00  0.00     0.122 A 
ENDBRANCH   5  24
TORSDOF 5
ENDMDL
MODEL 10
REMARK VINA RESULT:      -8.0      5.842      8.615
REMARK  5 active torsions:
REMARK  status: ('A' for Active; 'I' for Inactive)
REMARK    1  A    between atoms: C_2  and  C_3 
REMARK    2  A    between atoms: C_7  and  N_8 
REMARK    3  A    between atoms: N_8  and  C_9 
REMARK    4  A    between atoms: C_11  and  N_12 
REMARK    5  A    between atoms: C_14  and  N_15 
ROOT
HETATM    1  C   UNL     1       5.984  26.014  51.992  1.00  0.00     0.111 A 
HETATM    2  N   UNL     1       5.326  26.732  52.916  1.00  0.00    -0.206 NA
HETATM    3  C   UNL     1       5.350  26.300  54.178  1.00  0.00     0.202 A 
HETATM    4  N   UNL     1       5.926  25.175  54.590  1.00  0.00    -0.199 NA
HETATM    5  C   UNL     1       6.561  24.450  53.642  1.00  0.00     0.156 A 
HETATM    6  C   UNL     1       6.623  24.838  52.319  1.00  0.00     0.096 A 
ENDROOT
BRANCH   1   7
HETATM    7  N   UNL     1       5.981  26.409  50.646  1.00  0.00    -0.265 NA
HETATM    8  H   UNL     1       6.763  27.043  50.475  1.00  0.00     0.130 HD
BRANCH   7   9
HETATM    9  C   UNL     1       4.742  27.010  50.139  1.00  0.00     0.133 C 
HETATM   10  C   UNL     1       4.971  28.400  49.612  1.00  0.00     0.142 A 
HETATM   11  N   UNL     1       4.365  28.854  48.479  1.00  0.00    -0.253 N 
HETATM   12  N   UNL     1       5.700  29.371  50.125  1.00  0.00    -0.215 NA
HETATM   13  N   UNL     1       4.677  30.131  48.223  1.00  0.00    -0.155 NA
HETATM   14  C   UNL     1       3.536  28.076  47.586  1.00  0.00     0.153 C 
HETATM   15  C   UNL     1       5.489  30.414  49.252  1.00  0.00     0.151 A 
HETATM   16  C   UNL     1       3.030  26.804  48.263  1.00  0.00     0.024 C 
HETATM   17  C   UNL     1       4.159  26.106  49.027  1.00  0.00     0.029 C 
BRANCH  15  18
HETATM   18  C   UNL     1       6.097  31.765  49.448  1.00  0.00     0.051 C 
HETATM   19  C   UNL     1       5.529  32.461  50.684  1.00  0.00     0.018 C 
HETATM   20  C   UNL     1       5.909  32.638  48.206  1.00  0.00     0.018 C 
ENDBRANCH  15  18
ENDBRANCH   7   9
ENDBRANCH   1   7
BRANCH   3  21
HETATM   21  N   UNL     1       4.683  27.053  55.121  1.00  0.00    -0.271 NA
HETATM   22  H   UNL     1       5.153  26.984  56.013  1.00  0.00     0.127 HD
HETATM   23  H   UNL     1       4.502  27.979  54.761  1.00  0.00     0.127 HD
ENDBRANCH   3  21
BRANCH   5  24
HETATM   24  N   UNL     1       7.174  23.224  54.034  1.00  0.00    -0.227 N 
HETATM   25  N   UNL     1       7.618  22.306  53.131  1.00  0.00    -0.179 NA
HETATM   26  C   UNL     1       8.095  21.310  53.879  1.00  0.00     0.141 A 
HETATM   27  C   UNL     1       7.978  21.560  55.255  1.00  0.00     0.040 A 
HETATM   28  C   UNL     1       7.385  22.796  55.329  1.00  0.00     0.122 A 
ENDBRANCH   5  24
TORSDOF 5
ENDMDL
