MODEL 1
REMARK VINA RESULT:      -8.5      0.000      0.000
REMARK  5 active torsions:
REMARK  status: ('A' for Active; 'I' for Inactive)
REMARK    1  A    between atoms: C_3  and  O_4 
REMARK    2  A    between atoms: C_5  and  C_6 
REMARK       I    between atoms: C_6  and  N_7 
REMARK    3  A    between atoms: N_7  and  C_8 
REMARK    4  A    between atoms: C_8  and  C_9 
REMARK    5  A    between atoms: C_9  and  C_10 
ROOT
HETATM    1  C   UNL     1       8.362  24.601  56.499  1.00  0.00     0.254 C 
HETATM    2  N   UNL     1       7.799  25.845  56.343  1.00  0.00    -0.356 N 
HETATM    3  O   UNL     1       8.938  24.267  57.530  1.00  0.00    -0.268 OA
HETATM    4  H   UNL     1       7.473  26.086  55.408  1.00  0.00     0.162 HD
ENDROOT
BRANCH   2   5
HETATM    5  C   UNL     1       7.926  26.883  57.345  1.00  0.00     0.136 C 
BRANCH   5   6
HETATM    6  C   UNL     1       7.602  28.308  56.807  1.00  0.00    -0.004 C 
HETATM    7  C   UNL     1       7.413  28.211  55.274  1.00  0.00     0.021 C 
HETATM    8  C   UNL     1       6.246  28.755  57.399  1.00  0.00     0.021 C 
BRANCH   6   9
HETATM    9  C   UNL     1       8.684  29.319  57.234  1.00  0.00    -0.046 A 
HETATM   10  C   UNL     1       8.462  30.306  58.203  1.00  0.00     0.027 A 
HETATM   11  C   UNL     1       9.485  31.191  58.524  1.00  0.00     0.116 A 
HETATM   12  N   UNL     1      10.705  31.173  57.954  1.00  0.00    -0.273 NA
HETATM   13  C   UNL     1      10.918  30.214  57.031  1.00  0.00     0.116 A 
HETATM   14  C   UNL     1       9.960  29.286  56.647  1.00  0.00     0.027 A 
ENDBRANCH   6   9
ENDBRANCH   5   6
ENDBRANCH   2   5
BRANCH   1  15
HETATM   15  C   UNL     1       8.238  23.647  55.347  1.00  0.00     0.065 A 
HETATM   16  C   UNL     1       8.452  22.257  55.432  1.00  0.00     0.087 A 
HETATM   17  C   UNL     1       8.375  21.444  54.284  1.00  0.00    -0.028 A 
HETATM   18  C   UNL     1       8.648  19.965  54.318  1.00  0.00     0.051 C 
HETATM   19  C   UNL     1       8.012  22.032  53.063  1.00  0.00     0.009 A 
HETATM   20  C   UNL     1       7.763  23.399  52.975  1.00  0.00     0.002 A 
HETATM   21  C   UNL     1       7.885  24.202  54.108  1.00  0.00     0.020 A 
BRANCH  16  22
HETATM   22  O   UNL     1       8.736  21.688  56.649  1.00  0.00    -0.359 OA
HETATM   23  H   UNL     1       9.659  21.379  56.643  1.00  0.00     0.218 HD
ENDBRANCH  16  22
ENDBRANCH   1  15
TORSDOF 5
ENDMDL
MODEL 2
REMARK VINA RESULT:      -8.4      2.088      7.275
REMARK  5 active torsions:
REMARK  status: ('A' for Active; 'I' for Inactive)
REMARK    1  A    between atoms: C_3  and  O_4 
REMARK    2  A    between atoms: C_5  and  C_6 
REMARK       I    between atoms: C_6  and  N_7 
REMARK    3  A    between atoms: N_7  and  C_8 
REMARK    4  A    between atoms: C_8  and  C_9 
REMARK    5  A    between atoms: C_9  and  C_10 
ROOT
HETATM    1  C   UNL     1       7.960  27.486  57.251  1.00  0.00     0.254 C 
HETATM    2  N   UNL     1       7.440  27.275  55.997  1.00  0.00    -0.356 N 
HETATM    3  O   UNL     1       7.727  26.734  58.193  1.00  0.00    -0.268 OA
HETATM    4  H   UNL     1       7.564  28.023  55.318  1.00  0.00     0.162 HD
ENDROOT
BRANCH   2   5
HETATM    5  C   UNL     1       6.504  26.205  55.718  1.00  0.00     0.136 C 
BRANCH   5   6
HETATM    6  C   UNL     1       6.753  25.505  54.350  1.00  0.00    -0.004 C 
HETATM    7  C   UNL     1       5.381  25.289  53.665  1.00  0.00     0.021 C 
HETATM    8  C   UNL     1       7.559  26.468  53.448  1.00  0.00     0.021 C 
BRANCH   6   9
HETATM    9  C   UNL     1       7.563  24.206  54.533  1.00  0.00    -0.046 A 
HETATM   10  C   UNL     1       7.983  23.743  55.786  1.00  0.00     0.027 A 
HETATM   11  C   UNL     1       8.723  22.569  55.868  1.00  0.00     0.116 A 
HETATM   12  N   UNL     1       9.079  21.825  54.802  1.00  0.00    -0.273 NA
HETATM   13  C   UNL     1       8.662  22.269  53.600  1.00  0.00     0.116 A 
HETATM   14  C   UNL     1       7.918  23.426  53.420  1.00  0.00     0.027 A 
ENDBRANCH   6   9
ENDBRANCH   5   6
ENDBRANCH   2   5
BRANCH   1  15
HETATM   15  C   UNL     1       8.845  28.685  57.429  1.00  0.00     0.065 A 
HETATM   16  C   UNL     1       8.692  29.651  58.443  1.00  0.00     0.087 A 
HETATM   17  C   UNL     1       9.532  30.780  58.497  1.00  0.00    -0.028 A 
HETATM   18  C   UNL     1       9.372  31.862  59.530  1.00  0.00     0.051 C 
HETATM   19  C   UNL     1      10.573  30.892  57.563  1.00  0.00     0.009 A 
HETATM   20  C   UNL     1      10.756  29.925  56.578  1.00  0.00     0.002 A 
HETATM   21  C   UNL     1       9.892  28.834  56.506  1.00  0.00     0.020 A 
BRANCH  16  22
HETATM   22  O   UNL     1       7.713  29.487  59.393  1.00  0.00    -0.359 OA
HETATM   23  H   UNL     1       6.845  29.624  58.975  1.00  0.00     0.218 HD
ENDBRANCH  16  22
ENDBRANCH   1  15
TORSDOF 5
ENDMDL
MODEL 3
REMARK VINA RESULT:      -8.1      4.823      8.192
REMARK  5 active torsions:
REMARK  status: ('A' for Active; 'I' for Inactive)
REMARK    1  A    between atoms: C_3  and  O_4 
REMARK    2  A    between atoms: C_5  and  C_6 
REMARK       I    between atoms: C_6  and  N_7 
REMARK    3  A    between atoms: N_7  and  C_8 
REMARK    4  A    between atoms: C_8  and  C_9 
REMARK    5  A    between atoms: C_9  and  C_10 
ROOT
HETATM    1  C   UNL     1       5.181  26.569  51.935  1.00  0.00     0.254 C 
HETATM    2  N   UNL     1       5.777  25.334  51.837  1.00  0.00    -0.356 N 
HETATM    3  O   UNL     1       4.739  27.002  52.996  1.00  0.00    -0.268 OA
HETATM    4  H   UNL     1       5.981  24.998  50.898  1.00  0.00     0.162 HD
ENDROOT
BRANCH   2   5
HETATM    5  C   UNL     1       5.840  24.416  52.955  1.00  0.00     0.136 C 
BRANCH   5   6
HETATM    6  C   UNL     1       7.268  24.269  53.558  1.00  0.00    -0.004 C 
HETATM    7  C   UNL     1       8.271  24.930  52.582  1.00  0.00     0.021 C 
HETATM    8  C   UNL     1       7.326  25.076  54.876  1.00  0.00     0.021 C 
BRANCH   6   9
HETATM    9  C   UNL     1       7.588  22.794  53.869  1.00  0.00    -0.046 A 
HETATM   10  C   UNL     1       7.603  22.278  55.171  1.00  0.00     0.027 A 
HETATM   11  C   UNL     1       7.915  20.938  55.371  1.00  0.00     0.116 A 
HETATM   12  N   UNL     1       8.216  20.077  54.380  1.00  0.00    -0.273 NA
HETATM   13  C   UNL     1       8.189  20.575  53.129  1.00  0.00     0.116 A 
HETATM   14  C   UNL     1       7.886  21.896  52.831  1.00  0.00     0.027 A 
ENDBRANCH   6   9
ENDBRANCH   5   6
ENDBRANCH   2   5
BRANCH   1  15
HETATM   15  C   UNL     1       5.099  27.388  50.681  1.00  0.00     0.065 A 
HETATM   16  C   UNL     1       5.455  28.748  50.586  1.00  0.00     0.087 A 
HETATM   17  C   UNL     1       5.285  29.456  49.381  1.00  0.00    -0.028 A 
HETATM   18  C   UNL     1       5.603  30.921  49.249  1.00  0.00     0.051 C 
HETATM   19  C   UNL     1       4.820  28.766  48.251  1.00  0.00     0.009 A 
HETATM   20  C   UNL     1       4.498  27.413  48.324  1.00  0.00     0.002 A 
HETATM   21  C   UNL     1       4.628  26.732  49.533  1.00  0.00     0.020 A 
BRANCH  16  22
HETATM   22  O   UNL     1       5.977  29.390  51.682  1.00  0.00    -0.359 OA
HETATM   23  H   UNL     1       5.394  29.232  52.445  1.00  0.00     0.218 HD
ENDBRANCH  16  22
ENDBRANCH   1  15
TORSDOF 5
ENDMDL
MODEL 4
REMARK VINA RESULT:      -8.0      1.136      1.791
REMARK  5 active torsions:
REMARK  status: ('A' for Active; 'I' for Inactive)
REMARK    1  A    between atoms: C_3  and  O_4 
REMARK    2  A    between atoms: C_5  and  C_6 
REMARK       I    between atoms: C_6  and  N_7 
REMARK    3  A    between atoms: N_7  and  C_8 
REMARK    4  A    between atoms: C_8  and  C_9 
REMARK    5  A    between atoms: C_9  and  C_10 
ROOT
HETATM    1  C   UNL     1       8.389  24.219  57.319  1.00  0.00     0.254 C 
HETATM    2  N   UNL     1       7.522  25.259  57.081  1.00  0.00    -0.356 N 
HETATM    3  O   UNL     1       9.228  24.256  58.215  1.00  0.00    -0.268 OA
HETATM    4  H   UNL     1       6.963  25.203  56.231  1.00  0.00     0.162 HD
ENDROOT
BRANCH   2   5
HETATM    5  C   UNL     1       7.600  26.510  57.805  1.00  0.00     0.136 C 
BRANCH   5   6
HETATM    6  C   UNL     1       7.408  27.763  56.900  1.00  0.00    -0.004 C 
HETATM    7  C   UNL     1       7.452  27.300  55.423  1.00  0.00     0.021 C 
HETATM    8  C   UNL     1       5.992  28.333  57.150  1.00  0.00     0.021 C 
BRANCH   6   9
HETATM    9  C   UNL     1       8.444  28.853  57.237  1.00  0.00    -0.046 A 
HETATM   10  C   UNL     1       8.346  29.670  58.371  1.00  0.00     0.027 A 
HETATM   11  C   UNL     1       9.314  30.641  58.599  1.00  0.00     0.116 A 
HETATM   12  N   UNL     1      10.367  30.863  57.788  1.00  0.00    -0.273 NA
HETATM   13  C   UNL     1      10.463  30.066  56.706  1.00  0.00     0.116 A 
HETATM   14  C   UNL     1       9.548  29.070  56.397  1.00  0.00     0.027 A 
ENDBRANCH   6   9
ENDBRANCH   5   6
ENDBRANCH   2   5
BRANCH   1  15
HETATM   15  C   UNL     1       8.264  23.011  56.437  1.00  0.00     0.065 A 
HETATM   16  C   UNL     1       8.180  23.051  55.031  1.00  0.00     0.087 A 
HETATM   17  C   UNL     1       8.001  21.870  54.285  1.00  0.00    -0.028 A 
HETATM   18  C   UNL     1       7.854  21.871  52.788  1.00  0.00     0.051 C 
HETATM   19  C   UNL     1       7.976  20.641  54.961  1.00  0.00     0.009 A 
HETATM   20  C   UNL     1       8.093  20.587  56.348  1.00  0.00     0.002 A 
HETATM   21  C   UNL     1       8.227  21.765  57.080  1.00  0.00     0.020 A 
BRANCH  16  22
HETATM   22  O   UNL     1       8.279  24.257  54.380  1.00  0.00    -0.359 OA
HETATM   23  H   UNL     1       7.524  24.347  53.772  1.00  0.00     0.218 HD
ENDBRANCH  16  22
ENDBRANCH   1  15
TORSDOF 5
ENDMDL
MODEL 5
REMARK VINA RESULT:      -7.8      4.681      6.302
REMARK  5 active torsions:
REMARK  status: ('A' for Active; 'I' for Inactive)
REMARK    1  A    between atoms: C_3  and  O_4 
REMARK    2  A    between atoms: C_5  and  C_6 
REMARK       I    between atoms: C_6  and  N_7 
REMARK    3  A    between atoms: N_7  and  C_8 
REMARK    4  A    between atoms: C_8  and  C_9 
REMARK    5  A    between atoms: C_9  and  C_10 
ROOT
HETATM    1  C   UNL     1       7.589  24.271  53.695  1.00  0.00     0.254 C 
HETATM    2  N   UNL     1       7.113  24.544  52.435  1.00  0.00    -0.356 N 
HETATM    3  O   UNL     1       7.746  25.146  54.542  1.00  0.00    -0.268 OA
HETATM    4  H   UNL     1       7.154  23.787  51.756  1.00  0.00     0.162 HD
ENDROOT
BRANCH   2   5
HETATM    5  C   UNL     1       6.852  25.896  51.984  1.00  0.00     0.136 C 
BRANCH   5   6
HETATM    6  C   UNL     1       5.338  26.200  51.780  1.00  0.00    -0.004 C 
HETATM    7  C   UNL     1       4.550  24.887  52.006  1.00  0.00     0.021 C 
HETATM    8  C   UNL     1       4.887  27.189  52.880  1.00  0.00     0.021 C 
BRANCH   6   9
HETATM    9  C   UNL     1       5.085  26.844  50.404  1.00  0.00    -0.046 A 
HETATM   10  C   UNL     1       5.435  28.168  50.108  1.00  0.00     0.027 A 
HETATM   11  C   UNL     1       5.160  28.682  48.846  1.00  0.00     0.116 A 
HETATM   12  N   UNL     1       4.563  27.984  47.860  1.00  0.00    -0.273 NA
HETATM   13  C   UNL     1       4.240  26.707  48.145  1.00  0.00     0.116 A 
HETATM   14  C   UNL     1       4.476  26.107  49.374  1.00  0.00     0.027 A 
ENDBRANCH   6   9
ENDBRANCH   5   6
ENDBRANCH   2   5
BRANCH   1  15
HETATM   15  C   UNL     1       7.908  22.838  54.007  1.00  0.00     0.065 A 
HETATM   16  C   UNL     1       8.088  22.322  55.306  1.00  0.00     0.087 A 
HETATM   17  C   UNL     1       8.448  20.975  55.503  1.00  0.00    -0.028 A 
HETATM   18  C   UNL     1       8.702  20.394  56.867  1.00  0.00     0.051 C 
HETATM   19  C   UNL     1       8.556  20.133  54.385  1.00  0.00     0.009 A 
HETATM   20  C   UNL     1       8.345  20.625  53.100  1.00  0.00     0.002 A 
HETATM   21  C   UNL     1       8.032  21.970  52.912  1.00  0.00     0.020 A 
BRANCH  16  22
HETATM   22  O   UNL     1       7.907  23.142  56.393  1.00  0.00    -0.359 OA
HETATM   23  H   UNL     1       7.064  22.914  56.820  1.00  0.00     0.218 HD
ENDBRANCH  16  22
ENDBRANCH   1  15
TORSDOF 5
ENDMDL
MODEL 6
REMARK VINA RESULT:      -7.8      2.513      7.793
REMARK  5 active torsions:
REMARK  status: ('A' for Active; 'I' for Inactive)
REMARK    1  A    between atoms: C_3  and  O_4 
REMARK    2  A    between atoms: C_5  and  C_6 
REMARK       I    between atoms: C_6  and  N_7 
REMARK    3  A    between atoms: N_7  and  C_8 
REMARK    4  A    between atoms: C_8  and  C_9 
REMARK    5  A    between atoms: C_9  and  C_10 
ROOT
HETATM    1  C   UNL     1       8.411  28.631  55.955  1.00  0.00     0.254 C 
HETATM    2  N   UNL     1       7.799  27.484  56.399  1.00  0.00    -0.356 N 
HETATM    3  O   UNL     1       8.602  28.854  54.762  1.00  0.00    -0.268 OA
HETATM    4  H   UNL     1       7.814  27.317  57.403  1.00  0.00     0.162 HD
ENDROOT
BRANCH   2   5
HETATM    5  C   UNL     1       7.422  26.412  55.501  1.00  0.00     0.136 C 
BRANCH   5   6
HETATM    6  C   UNL     1       7.451  25.005  56.169  1.00  0.00    -0.004 C 
HETATM    7  C   UNL     1       8.560  25.009  57.249  1.00  0.00     0.021 C 
HETATM    8  C   UNL     1       6.108  24.786  56.903  1.00  0.00     0.021 C 
BRANCH   6   9
HETATM    9  C   UNL     1       7.621  23.896  55.112  1.00  0.00    -0.046 A 
HETATM   10  C   UNL     1       7.766  24.164  53.745  1.00  0.00     0.027 A 
HETATM   11  C   UNL     1       7.901  23.108  52.852  1.00  0.00     0.116 A 
HETATM   12  N   UNL     1       7.899  21.809  53.212  1.00  0.00    -0.273 NA
HETATM   13  C   UNL     1       7.771  21.557  54.529  1.00  0.00     0.116 A 
HETATM   14  C   UNL     1       7.634  22.544  55.495  1.00  0.00     0.027 A 
ENDBRANCH   6   9
ENDBRANCH   5   6
ENDBRANCH   2   5
BRANCH   1  15
HETATM   15  C   UNL     1       8.836  29.624  56.996  1.00  0.00     0.065 A 
HETATM   16  C   UNL     1       8.005  30.112  58.025  1.00  0.00     0.087 A 
HETATM   17  C   UNL     1       8.469  31.092  58.923  1.00  0.00    -0.028 A 
HETATM   18  C   UNL     1       7.602  31.679  60.003  1.00  0.00     0.051 C 
HETATM   19  C   UNL     1       9.799  31.528  58.821  1.00  0.00     0.009 A 
HETATM   20  C   UNL     1      10.639  31.027  57.830  1.00  0.00     0.002 A 
HETATM   21  C   UNL     1      10.158  30.088  56.918  1.00  0.00     0.020 A 
BRANCH  16  22
HETATM   22  O   UNL     1       6.729  29.622  58.155  1.00  0.00    -0.359 OA
HETATM   23  H   UNL     1       6.258  30.147  58.826  1.00  0.00     0.218 HD
ENDBRANCH  16  22
ENDBRANCH   1  15
TORSDOF 5
ENDMDL
MODEL 7
REMARK VINA RESULT:      -7.8      2.024      2.900
REMARK  5 active torsions:
REMARK  status: ('A' for Active; 'I' for Inactive)
REMARK    1  A    between atoms: C_3  and  O_4 
REMARK    2  A    between atoms: C_5  and  C_6 
REMARK       I    between atoms: C_6  and  N_7 
REMARK    3  A    between atoms: N_7  and  C_8 
REMARK    4  A    between atoms: C_8  and  C_9 
REMARK    5  A    between atoms: C_9  and  C_10 
ROOT
HETATM    1  C   UNL     1       8.399  24.140  56.298  1.00  0.00     0.254 C 
HETATM    2  N   UNL     1       7.524  24.998  55.676  1.00  0.00    -0.356 N 
HETATM    3  O   UNL     1       9.136  24.502  57.211  1.00  0.00    -0.268 OA
HETATM    4  H   UNL     1       7.061  24.652  54.838  1.00  0.00     0.162 HD
ENDROOT
BRANCH   2   5
HETATM    5  C   UNL     1       7.474  26.412  55.988  1.00  0.00     0.136 C 
BRANCH   5   6
HETATM    6  C   UNL     1       6.026  26.961  56.149  1.00  0.00    -0.004 C 
HETATM    7  C   UNL     1       5.367  26.996  54.748  1.00  0.00     0.021 C 
HETATM    8  C   UNL     1       5.215  25.956  57.001  1.00  0.00     0.021 C 
BRANCH   6   9
HETATM    9  C   UNL     1       6.028  28.325  56.865  1.00  0.00    -0.046 A 
HETATM   10  C   UNL     1       4.900  29.154  56.926  1.00  0.00     0.027 A 
HETATM   11  C   UNL     1       4.986  30.378  57.579  1.00  0.00     0.116 A 
HETATM   12  N   UNL     1       6.104  30.841  58.171  1.00  0.00    -0.273 NA
HETATM   13  C   UNL     1       7.182  30.035  58.121  1.00  0.00     0.116 A 
HETATM   14  C   UNL     1       7.192  28.796  57.495  1.00  0.00     0.027 A 
ENDBRANCH   6   9
ENDBRANCH   5   6
ENDBRANCH   2   5
BRANCH   1  15
HETATM   15  C   UNL     1       8.417  22.719  55.818  1.00  0.00     0.065 A 
HETATM   16  C   UNL     1       8.398  22.329  54.464  1.00  0.00     0.087 A 
HETATM   17  C   UNL     1       8.352  20.968  54.106  1.00  0.00    -0.028 A 
HETATM   18  C   UNL     1       8.279  20.508  52.676  1.00  0.00     0.051 C 
HETATM   19  C   UNL     1       8.397  20.000  55.121  1.00  0.00     0.009 A 
HETATM   20  C   UNL     1       8.451  20.373  56.461  1.00  0.00     0.002 A 
HETATM   21  C   UNL     1       8.452  21.724  56.807  1.00  0.00     0.020 A 
BRANCH  16  22
HETATM   22  O   UNL     1       8.428  23.289  53.482  1.00  0.00    -0.359 OA
HETATM   23  H   UNL     1       9.309  23.701  53.474  1.00  0.00     0.218 HD
ENDBRANCH  16  22
ENDBRANCH   1  15
TORSDOF 5
ENDMDL
MODEL 8
REMARK VINA RESULT:      -7.7      2.705      4.523
REMARK  5 active torsions:
REMARK  status: ('A' for Active; 'I' for Inactive)
REMARK    1  A    between atoms: C_3  and  O_4 
REMARK    2  A    between atoms: C_5  and  C_6 
REMARK       I    between atoms: C_6  and  N_7 
REMARK    3  A    between atoms: N_7  and  C_8 
REMARK    4  A    between atoms: C_8  and  C_9 
REMARK    5  A    between atoms: C_9  and  C_10 
ROOT
HETATM    1  C   UNL     1       8.329  23.989  56.622  1.00  0.00     0.254 C 
HETATM    2  N   UNL     1       7.175  24.716  56.452  1.00  0.00    -0.356 N 
HETATM    3  O   UNL     1       9.295  24.426  57.241  1.00  0.00    -0.268 OA
HETATM    4  H   UNL     1       6.487  24.337  55.805  1.00  0.00     0.162 HD
ENDROOT
BRANCH   2   5
HETATM    5  C   UNL     1       7.050  26.085  56.908  1.00  0.00     0.136 C 
BRANCH   5   6
HETATM    6  C   UNL     1       6.341  27.018  55.883  1.00  0.00    -0.004 C 
HETATM    7  C   UNL     1       4.952  27.391  56.453  1.00  0.00     0.021 C 
HETATM    8  C   UNL     1       7.151  28.331  55.778  1.00  0.00     0.021 C 
BRANCH   6   9
HETATM    9  C   UNL     1       6.282  26.363  54.489  1.00  0.00    -0.046 A 
HETATM   10  C   UNL     1       7.217  26.634  53.481  1.00  0.00     0.027 A 
HETATM   11  C   UNL     1       7.087  26.014  52.244  1.00  0.00     0.116 A 
HETATM   12  N   UNL     1       6.101  25.150  51.932  1.00  0.00    -0.273 NA
HETATM   13  C   UNL     1       5.212  24.883  52.909  1.00  0.00     0.116 A 
HETATM   14  C   UNL     1       5.261  25.452  54.174  1.00  0.00     0.027 A 
ENDBRANCH   6   9
ENDBRANCH   5   6
ENDBRANCH   2   5
BRANCH   1  15
HETATM   15  C   UNL     1       8.363  22.615  56.021  1.00  0.00     0.065 A 
HETATM   16  C   UNL     1       8.303  22.342  54.639  1.00  0.00     0.087 A 
HETATM   17  C   UNL     1       8.277  21.016  54.166  1.00  0.00    -0.028 A 
HETATM   18  C   UNL     1       8.161  20.678  52.705  1.00  0.00     0.051 C 
HETATM   19  C   UNL     1       8.384  19.966  55.091  1.00  0.00     0.009 A 
HETATM   20  C   UNL     1       8.479  20.225  56.456  1.00  0.00     0.002 A 
HETATM   21  C   UNL     1       8.460  21.540  56.917  1.00  0.00     0.020 A 
BRANCH  16  22
HETATM   22  O   UNL     1       8.272  23.383  53.744  1.00  0.00    -0.359 OA
HETATM   23  H   UNL     1       8.868  23.176  53.002  1.00  0.00     0.218 HD
ENDBRANCH  16  22
ENDBRANCH   1  15
TORSDOF 5
ENDMDL
MODEL 9
REMARK VINA RESULT:      -7.4      4.707      6.968
REMARK  5 active torsions:
REMARK  status: ('A' for Active; 'I' for Inactive)
REMARK    1  A    between atoms: C_3  and  O_4 
REMARK    2  A    between atoms: C_5  and  C_6 
REMARK       I    between atoms: C_6  and  N_7 
REMARK    3  A    between atoms: N_7  and  C_8 
REMARK    4  A    between atoms: C_8  and  C_9 
REMARK    5  A    between atoms: C_9  and  C_10 
ROOT
HETATM    1  C   UNL     1       5.111  26.660  52.239  1.00  0.00     0.254 C 
HETATM    2  N   UNL     1       5.766  25.459  52.097  1.00  0.00    -0.356 N 
HETATM    3  O   UNL     1       4.636  27.025  53.310  1.00  0.00    -0.268 OA
HETATM    4  H   UNL     1       5.997  25.174  51.148  1.00  0.00     0.162 HD
ENDROOT
BRANCH   2   5
HETATM    5  C   UNL     1       5.858  24.497  53.176  1.00  0.00     0.136 C 
BRANCH   5   6
HETATM    6  C   UNL     1       7.323  24.130  53.555  1.00  0.00    -0.004 C 
HETATM    7  C   UNL     1       7.486  22.597  53.411  1.00  0.00     0.021 C 
HETATM    8  C   UNL     1       8.272  24.782  52.524  1.00  0.00     0.021 C 
BRANCH   6   9
HETATM    9  C   UNL     1       7.680  24.660  54.958  1.00  0.00    -0.046 A 
HETATM   10  C   UNL     1       7.317  25.938  55.402  1.00  0.00     0.027 A 
HETATM   11  C   UNL     1       7.689  26.349  56.677  1.00  0.00     0.116 A 
HETATM   12  N   UNL     1       8.394  25.592  57.539  1.00  0.00    -0.273 NA
HETATM   13  C   UNL     1       8.730  24.359  57.112  1.00  0.00     0.116 A 
HETATM   14  C   UNL     1       8.402  23.860  55.859  1.00  0.00     0.027 A 
ENDBRANCH   6   9
ENDBRANCH   5   6
ENDBRANCH   2   5
BRANCH   1  15
HETATM   15  C   UNL     1       5.006  27.526  51.019  1.00  0.00     0.065 A 
HETATM   16  C   UNL     1       4.488  27.104  49.778  1.00  0.00     0.087 A 
HETATM   17  C   UNL     1       4.485  27.968  48.666  1.00  0.00    -0.028 A 
HETATM   18  C   UNL     1       3.991  27.544  47.310  1.00  0.00     0.051 C 
HETATM   19  C   UNL     1       4.943  29.284  48.831  1.00  0.00     0.009 A 
HETATM   20  C   UNL     1       5.424  29.723  50.062  1.00  0.00     0.002 A 
HETATM   21  C   UNL     1       5.464  28.847  51.146  1.00  0.00     0.020 A 
BRANCH  16  22
HETATM   22  O   UNL     1       3.977  25.836  49.653  1.00  0.00    -0.359 OA
HETATM   23  H   UNL     1       4.263  25.306  50.417  1.00  0.00     0.218 HD
ENDBRANCH  16  22
ENDBRANCH   1  15
TORSDOF 5
ENDMDL
MODEL 10
REMARK VINA RESULT:      -7.4      6.918      9.112
REMARK  5 active torsions:
REMARK  status: ('A' for Active; 'I' for Inactive)
REMARK    1  A    between atoms: C_3  and  O_4 
REMARK    2  A    between atoms: C_5  and  C_6 
REMARK       I    between atoms: C_6  and  N_7 
REMARK    3  A    between atoms: N_7  and  C_8 
REMARK    4  A    between atoms: C_8  and  C_9 
REMARK    5  A    between atoms: C_9  and  C_10 
ROOT
HETATM    1  C   UNL     1       5.348  26.994  51.689  1.00  0.00     0.254 C 
HETATM    2  N   UNL     1       4.635  26.566  50.595  1.00  0.00    -0.356 N 
HETATM    3  O   UNL     1       5.372  28.171  52.038  1.00  0.00    -0.268 OA
HETATM    4  H   UNL     1       4.789  25.605  50.295  1.00  0.00     0.162 HD
ENDROOT
BRANCH   2   5
HETATM    5  C   UNL     1       3.938  27.485  49.719  1.00  0.00     0.136 C 
BRANCH   5   6
HETATM    6  C   UNL     1       3.725  26.929  48.280  1.00  0.00    -0.004 C 
HETATM    7  C   UNL     1       5.058  27.072  47.507  1.00  0.00     0.021 C 
HETATM    8  C   UNL     1       3.425  25.416  48.382  1.00  0.00     0.021 C 
BRANCH   6   9
HETATM    9  C   UNL     1       2.533  27.622  47.591  1.00  0.00    -0.046 A 
HETATM   10  C   UNL     1       1.316  26.973  47.342  1.00  0.00     0.027 A 
HETATM   11  C   UNL     1       0.293  27.662  46.702  1.00  0.00     0.116 A 
HETATM   12  N   UNL     1       0.386  28.941  46.290  1.00  0.00    -0.273 NA
HETATM   13  C   UNL     1       1.554  29.565  46.542  1.00  0.00     0.116 A 
HETATM   14  C   UNL     1       2.630  28.960  47.176  1.00  0.00     0.027 A 
ENDBRANCH   6   9
ENDBRANCH   5   6
ENDBRANCH   2   5
BRANCH   1  15
HETATM   15  C   UNL     1       6.101  25.951  52.462  1.00  0.00     0.065 A 
HETATM   16  C   UNL     1       5.901  25.664  53.827  1.00  0.00     0.087 A 
HETATM   17  C   UNL     1       6.698  24.711  54.488  1.00  0.00    -0.028 A 
HETATM   18  C   UNL     1       6.555  24.411  55.955  1.00  0.00     0.051 C 
HETATM   19  C   UNL     1       7.653  23.998  53.748  1.00  0.00     0.009 A 
HETATM   20  C   UNL     1       7.836  24.248  52.390  1.00  0.00     0.002 A 
HETATM   21  C   UNL     1       7.071  25.225  51.754  1.00  0.00     0.020 A 
BRANCH  16  22
HETATM   22  O   UNL     1       4.913  26.321  54.519  1.00  0.00    -0.359 OA
HETATM   23  H   UNL     1       4.331  26.772  53.883  1.00  0.00     0.218 HD
ENDBRANCH  16  22
ENDBRANCH   1  15
TORSDOF 5
ENDMDL
