MODEL 1
REMARK VINA RESULT:      -9.4      0.000      0.000
REMARK  8 active torsions:
REMARK  status: ('A' for Active; 'I' for Inactive)
REMARK    1  A    between atoms: O_2  and  C_3 
REMARK    2  A    between atoms: C_4  and  O_5 
REMARK    3  A    between atoms: C_6  and  C_7 
REMARK    4  A    between atoms: C_7  and  C_8 
REMARK    5  A    between atoms: C_11  and  C_12 
REMARK    6  A    between atoms: C_12  and  N_13 
REMARK    7  A    between atoms: C_16  and  N_17 
REMARK       I    between atoms: N_17  and  C_18 
REMARK       I    between atoms: C_18  and  N_19 
REMARK    8  A    between atoms: N_19  and  C_20 
ROOT
HETATM    1  N   UNL     1       7.132  28.385  56.762  1.00  0.00    -0.065 N 
HETATM    2  H   UNL     1       7.131  28.145  55.761  1.00  0.00     0.280 HD
HETATM    3  C   UNL     1       8.325  29.297  57.008  1.00  0.00     0.260 C 
HETATM    4  C   UNL     1       7.764  30.466  57.839  1.00  0.00     0.113 C 
HETATM    5  C   UNL     1       6.383  30.627  57.219  1.00  0.00     0.054 C 
HETATM    6  C   UNL     1       5.891  29.197  57.059  1.00  0.00     0.237 C 
ENDROOT
BRANCH   1   7
HETATM    7  C   UNL     1       7.212  27.075  57.505  1.00  0.00     0.273 C 
BRANCH   7   8
HETATM    8  C   UNL     1       7.104  25.904  56.562  1.00  0.00    -0.029 A 
HETATM    9  C   UNL     1       8.004  24.828  56.676  1.00  0.00     0.019 A 
HETATM   10  C   UNL     1       7.992  23.762  55.758  1.00  0.00    -0.018 A 
HETATM   11  C   UNL     1       7.077  23.804  54.704  1.00  0.00     0.105 A 
HETATM   12  C   UNL     1       6.148  24.841  54.610  1.00  0.00     0.102 A 
HETATM   13  C   UNL     1       6.168  25.897  55.520  1.00  0.00     0.048 A 
BRANCH  10  14
HETATM   14  C   UNL     1       8.991  22.635  55.899  1.00  0.00     0.068 C 
BRANCH  14  15
HETATM   15  C   UNL     1       8.434  21.481  56.685  1.00  0.00    -0.032 C 
HETATM   16  C   UNL     1       7.942  20.358  56.143  1.00  0.00     0.007 C 
ENDBRANCH  14  15
ENDBRANCH  10  14
BRANCH  11  17
HETATM   17  O   UNL     1       7.121  22.834  53.743  1.00  0.00    -0.357 OA
HETATM   18  H   UNL     1       6.971  21.981  54.188  1.00  0.00     0.218 HD
ENDBRANCH  11  17
BRANCH  12  19
HETATM   19  O   UNL     1       5.249  24.893  53.578  1.00  0.00    -0.353 OA
HETATM   20  C   UNL     1       4.916  26.252  53.268  1.00  0.00     0.210 C 
ENDBRANCH  12  19
ENDBRANCH   7   8
ENDBRANCH   1   7
BRANCH   4  21
HETATM   21  N   UNL     1       7.656  30.228  59.283  1.00  0.00    -0.337 N 
HETATM   22  C   UNL     1       7.570  31.320  60.135  1.00  0.00     0.321 C 
HETATM   23  N   UNL     1       7.253  30.937  61.414  1.00  0.00    -0.309 N 
HETATM   24  O   UNL     1       7.793  32.451  59.728  1.00  0.00    -0.247 OA
HETATM   25  H   UNL     1       7.177  29.947  61.595  1.00  0.00     0.170 HD
HETATM   26  H   UNL     1       6.999  29.502  59.546  1.00  0.00     0.164 HD
BRANCH  23  27
HETATM   27  C   UNL     1       7.039  31.776  62.530  1.00  0.00     0.036 A 
HETATM   28  C   UNL     1       8.065  32.409  63.240  1.00  0.00     0.032 A 
HETATM   29  C   UNL     1       7.769  33.232  64.332  1.00  0.00     0.044 A 
HETATM   30  C   UNL     1       6.448  33.426  64.711  1.00  0.00     0.116 A 
HETATM   31  F   UNL     1       6.167  34.216  65.754  1.00  0.00    -0.206 F 
HETATM   32  C   UNL     1       5.414  32.811  64.018  1.00  0.00     0.044 A 
HETATM   33  C   UNL     1       5.710  31.985  62.930  1.00  0.00     0.032 A 
ENDBRANCH  23  27
ENDBRANCH   4  21
TORSDOF 8
ENDMDL
MODEL 2
REMARK VINA RESULT:      -9.0      1.181      2.751
REMARK  8 active torsions:
REMARK  status: ('A' for Active; 'I' for Inactive)
REMARK    1  A    between atoms: O_2  and  C_3 
REMARK    2  A    between atoms: C_4  and  O_5 
REMARK    3  A    between atoms: C_6  and  C_7 
REMARK    4  A    between atoms: C_7  and  C_8 
REMARK    5  A    between atoms: C_11  and  C_12 
REMARK    6  A    between atoms: C_12  and  N_13 
REMARK    7  A    between atoms: C_16  and  N_17 
REMARK       I    between atoms: N_17  and  C_18 
REMARK       I    between atoms: C_18  and  N_19 
REMARK    8  A    between atoms: N_19  and  C_20 
ROOT
HETATM    1  N   UNL     1       6.717  28.061  56.342  1.00  0.00    -0.065 N 
HETATM    2  H   UNL     1       6.515  27.772  55.376  1.00  0.00     0.280 HD
HETATM    3  C   UNL     1       7.558  29.327  56.272  1.00  0.00     0.260 C 
HETATM    4  C   UNL     1       6.898  30.297  57.270  1.00  0.00     0.113 C 
HETATM    5  C   UNL     1       5.427  29.957  57.076  1.00  0.00     0.054 C 
HETATM    6  C   UNL     1       5.414  28.437  57.010  1.00  0.00     0.237 C 
ENDROOT
BRANCH   1   7
HETATM    7  C   UNL     1       7.432  26.898  56.984  1.00  0.00     0.273 C 
BRANCH   7   8
HETATM    8  C   UNL     1       7.769  25.836  55.969  1.00  0.00    -0.029 A 
HETATM    9  C   UNL     1       7.424  26.025  54.617  1.00  0.00     0.019 A 
HETATM   10  C   UNL     1       7.641  25.018  53.659  1.00  0.00    -0.018 A 
HETATM   11  C   UNL     1       8.188  23.805  54.081  1.00  0.00     0.105 A 
HETATM   12  C   UNL     1       8.580  23.627  55.408  1.00  0.00     0.102 A 
HETATM   13  C   UNL     1       8.358  24.626  56.356  1.00  0.00     0.048 A 
BRANCH  10  14
HETATM   14  C   UNL     1       7.234  25.249  52.220  1.00  0.00     0.068 C 
BRANCH  14  15
HETATM   15  C   UNL     1       5.754  25.477  52.081  1.00  0.00    -0.032 C 
HETATM   16  C   UNL     1       4.809  24.677  52.594  1.00  0.00     0.007 C 
ENDBRANCH  14  15
ENDBRANCH  10  14
BRANCH  11  17
HETATM   17  O   UNL     1       8.307  22.779  53.187  1.00  0.00    -0.357 OA
HETATM   18  H   UNL     1       9.169  22.354  53.350  1.00  0.00     0.218 HD
ENDBRANCH  11  17
BRANCH  12  19
HETATM   19  O   UNL     1       9.115  22.439  55.834  1.00  0.00    -0.353 OA
HETATM   20  C   UNL     1       8.216  21.775  56.731  1.00  0.00     0.210 C 
ENDBRANCH  12  19
ENDBRANCH   7   8
ENDBRANCH   1   7
BRANCH   4  21
HETATM   21  N   UNL     1       7.285  30.126  58.675  1.00  0.00    -0.337 N 
HETATM   22  C   UNL     1       7.112  31.190  59.549  1.00  0.00     0.321 C 
HETATM   23  N   UNL     1       7.307  30.807  60.853  1.00  0.00    -0.309 N 
HETATM   24  O   UNL     1       6.850  32.308  59.131  1.00  0.00    -0.247 OA
HETATM   25  H   UNL     1       7.596  29.855  61.017  1.00  0.00     0.170 HD
HETATM   26  H   UNL     1       6.988  29.252  59.094  1.00  0.00     0.164 HD
BRANCH  23  27
HETATM   27  C   UNL     1       7.172  31.609  62.008  1.00  0.00     0.036 A 
HETATM   28  C   UNL     1       8.251  32.153  62.713  1.00  0.00     0.032 A 
HETATM   29  C   UNL     1       8.032  32.943  63.846  1.00  0.00     0.044 A 
HETATM   30  C   UNL     1       6.735  33.194  64.272  1.00  0.00     0.116 A 
HETATM   31  F   UNL     1       6.528  33.953  65.355  1.00  0.00    -0.206 F 
HETATM   32  C   UNL     1       5.650  32.667  63.586  1.00  0.00     0.044 A 
HETATM   33  C   UNL     1       5.868  31.873  62.456  1.00  0.00     0.032 A 
ENDBRANCH  23  27
ENDBRANCH   4  21
TORSDOF 8
ENDMDL
MODEL 3
REMARK VINA RESULT:      -8.8      3.330      5.004
REMARK  8 active torsions:
REMARK  status: ('A' for Active; 'I' for Inactive)
REMARK    1  A    between atoms: O_2  and  C_3 
REMARK    2  A    between atoms: C_4  and  O_5 
REMARK    3  A    between atoms: C_6  and  C_7 
REMARK    4  A    between atoms: C_7  and  C_8 
REMARK    5  A    between atoms: C_11  and  C_12 
REMARK    6  A    between atoms: C_12  and  N_13 
REMARK    7  A    between atoms: C_16  and  N_17 
REMARK       I    between atoms: N_17  and  C_18 
REMARK       I    between atoms: C_18  and  N_19 
REMARK    8  A    between atoms: N_19  and  C_20 
ROOT
HETATM    1  N   UNL     1       6.021  25.983  52.670  1.00  0.00    -0.065 N 
HETATM    2  H   UNL     1       5.356  25.543  52.020  1.00  0.00     0.280 HD
HETATM    3  C   UNL     1       6.060  27.468  52.343  1.00  0.00     0.260 C 
HETATM    4  C   UNL     1       5.931  28.177  53.705  1.00  0.00     0.113 C 
HETATM    5  C   UNL     1       4.963  27.248  54.425  1.00  0.00     0.054 C 
HETATM    6  C   UNL     1       5.469  25.858  54.073  1.00  0.00     0.237 C 
ENDROOT
BRANCH   1   7
HETATM    7  C   UNL     1       7.340  25.283  52.455  1.00  0.00     0.273 C 
BRANCH   7   8
HETATM    8  C   UNL     1       7.604  24.269  53.538  1.00  0.00    -0.029 A 
HETATM    9  C   UNL     1       8.053  24.695  54.802  1.00  0.00     0.019 A 
HETATM   10  C   UNL     1       8.396  23.773  55.807  1.00  0.00    -0.018 A 
HETATM   11  C   UNL     1       8.306  22.410  55.516  1.00  0.00     0.105 A 
HETATM   12  C   UNL     1       7.814  21.978  54.284  1.00  0.00     0.102 A 
HETATM   13  C   UNL     1       7.480  22.896  53.290  1.00  0.00     0.048 A 
BRANCH  10  14
HETATM   14  C   UNL     1       8.899  24.269  57.144  1.00  0.00     0.068 C 
BRANCH  14  15
HETATM   15  C   UNL     1       8.470  25.682  57.421  1.00  0.00    -0.032 C 
HETATM   16  C   UNL     1       7.250  26.037  57.848  1.00  0.00     0.007 C 
ENDBRANCH  14  15
ENDBRANCH  10  14
BRANCH  11  17
HETATM   17  O   UNL     1       8.736  21.501  56.440  1.00  0.00    -0.357 OA
HETATM   18  H   UNL     1       8.909  20.668  55.964  1.00  0.00     0.218 HD
ENDBRANCH  11  17
BRANCH  12  19
HETATM   19  O   UNL     1       7.724  20.643  53.988  1.00  0.00    -0.353 OA
HETATM   20  C   UNL     1       8.443  20.345  52.785  1.00  0.00     0.210 C 
ENDBRANCH  12  19
ENDBRANCH   7   8
ENDBRANCH   1   7
BRANCH   4  21
HETATM   21  N   UNL     1       7.175  28.319  54.469  1.00  0.00    -0.337 N 
HETATM   22  C   UNL     1       7.207  29.212  55.531  1.00  0.00     0.321 C 
HETATM   23  N   UNL     1       8.352  29.069  56.275  1.00  0.00    -0.309 N 
HETATM   24  O   UNL     1       6.305  30.019  55.699  1.00  0.00    -0.247 OA
HETATM   25  H   UNL     1       9.035  28.401  55.950  1.00  0.00     0.170 HD
HETATM   26  H   UNL     1       7.628  27.445  54.710  1.00  0.00     0.164 HD
BRANCH  23  27
HETATM   27  C   UNL     1       8.703  29.774  57.448  1.00  0.00     0.036 A 
HETATM   28  C   UNL     1       8.015  29.664  58.661  1.00  0.00     0.032 A 
HETATM   29  C   UNL     1       8.431  30.393  59.781  1.00  0.00     0.044 A 
HETATM   30  C   UNL     1       9.537  31.226  59.689  1.00  0.00     0.116 A 
HETATM   31  F   UNL     1       9.934  31.920  60.763  1.00  0.00    -0.206 F 
HETATM   32  C   UNL     1      10.236  31.347  58.497  1.00  0.00     0.044 A 
HETATM   33  C   UNL     1       9.818  30.623  57.376  1.00  0.00     0.032 A 
ENDBRANCH  23  27
ENDBRANCH   4  21
TORSDOF 8
ENDMDL
MODEL 4
REMARK VINA RESULT:      -8.7      3.150      4.496
REMARK  8 active torsions:
REMARK  status: ('A' for Active; 'I' for Inactive)
REMARK    1  A    between atoms: O_2  and  C_3 
REMARK    2  A    between atoms: C_4  and  O_5 
REMARK    3  A    between atoms: C_6  and  C_7 
REMARK    4  A    between atoms: C_7  and  C_8 
REMARK    5  A    between atoms: C_11  and  C_12 
REMARK    6  A    between atoms: C_12  and  N_13 
REMARK    7  A    between atoms: C_16  and  N_17 
REMARK       I    between atoms: N_17  and  C_18 
REMARK       I    between atoms: C_18  and  N_19 
REMARK    8  A    between atoms: N_19  and  C_20 
ROOT
HETATM    1  N   UNL     1       6.004  26.278  53.145  1.00  0.00    -0.065 N 
HETATM    2  H   UNL     1       5.333  25.819  52.515  1.00  0.00     0.280 HD
HETATM    3  C   UNL     1       6.048  27.751  52.766  1.00  0.00     0.260 C 
HETATM    4  C   UNL     1       5.932  28.508  54.103  1.00  0.00     0.113 C 
HETATM    5  C   UNL     1       4.965  27.609  54.862  1.00  0.00     0.054 C 
HETATM    6  C   UNL     1       5.463  26.204  54.555  1.00  0.00     0.237 C 
ENDROOT
BRANCH   1   7
HETATM    7  C   UNL     1       7.319  25.566  52.945  1.00  0.00     0.273 C 
BRANCH   7   8
HETATM    8  C   UNL     1       7.675  24.728  54.146  1.00  0.00    -0.029 A 
HETATM    9  C   UNL     1       7.623  23.324  54.061  1.00  0.00     0.019 A 
HETATM   10  C   UNL     1       7.860  22.512  55.185  1.00  0.00    -0.018 A 
HETATM   11  C   UNL     1       8.126  23.133  56.407  1.00  0.00     0.105 A 
HETATM   12  C   UNL     1       8.229  24.521  56.491  1.00  0.00     0.102 A 
HETATM   13  C   UNL     1       7.988  25.321  55.375  1.00  0.00     0.048 A 
BRANCH  10  14
HETATM   14  C   UNL     1       7.770  21.008  55.059  1.00  0.00     0.068 C 
BRANCH  14  15
HETATM   15  C   UNL     1       7.718  20.562  53.625  1.00  0.00    -0.032 C 
HETATM   16  C   UNL     1       8.794  20.298  52.870  1.00  0.00     0.007 C 
ENDBRANCH  14  15
ENDBRANCH  10  14
BRANCH  11  17
HETATM   17  O   UNL     1       8.252  22.366  57.531  1.00  0.00    -0.357 OA
HETATM   18  H   UNL     1       8.100  22.951  58.296  1.00  0.00     0.218 HD
ENDBRANCH  11  17
BRANCH  12  19
HETATM   19  O   UNL     1       8.486  25.140  57.687  1.00  0.00    -0.353 OA
HETATM   20  C   UNL     1       7.553  26.203  57.915  1.00  0.00     0.210 C 
ENDBRANCH  12  19
ENDBRANCH   7   8
ENDBRANCH   1   7
BRANCH   4  21
HETATM   21  N   UNL     1       7.182  28.670  54.854  1.00  0.00    -0.337 N 
HETATM   22  C   UNL     1       7.201  29.535  55.939  1.00  0.00     0.321 C 
HETATM   23  N   UNL     1       8.361  29.409  56.663  1.00  0.00    -0.309 N 
HETATM   24  O   UNL     1       6.275  30.305  56.142  1.00  0.00    -0.247 OA
HETATM   25  H   UNL     1       9.060  28.774  56.309  1.00  0.00     0.170 HD
HETATM   26  H   UNL     1       7.668  27.805  55.063  1.00  0.00     0.164 HD
BRANCH  23  27
HETATM   27  C   UNL     1       8.706  30.093  57.850  1.00  0.00     0.036 A 
HETATM   28  C   UNL     1       8.026  29.944  59.064  1.00  0.00     0.032 A 
HETATM   29  C   UNL     1       8.436  30.653  60.197  1.00  0.00     0.044 A 
HETATM   30  C   UNL     1       9.527  31.508  60.119  1.00  0.00     0.116 A 
HETATM   31  F   UNL     1       9.918  32.183  61.207  1.00  0.00    -0.206 F 
HETATM   32  C   UNL     1      10.217  31.668  58.926  1.00  0.00     0.044 A 
HETATM   33  C   UNL     1       9.806  30.963  57.792  1.00  0.00     0.032 A 
ENDBRANCH  23  27
ENDBRANCH   4  21
TORSDOF 8
ENDMDL
MODEL 5
REMARK VINA RESULT:      -8.5      4.285     10.178
REMARK  8 active torsions:
REMARK  status: ('A' for Active; 'I' for Inactive)
REMARK    1  A    between atoms: O_2  and  C_3 
REMARK    2  A    between atoms: C_4  and  O_5 
REMARK    3  A    between atoms: C_6  and  C_7 
REMARK    4  A    between atoms: C_7  and  C_8 
REMARK    5  A    between atoms: C_11  and  C_12 
REMARK    6  A    between atoms: C_12  and  N_13 
REMARK    7  A    between atoms: C_16  and  N_17 
REMARK       I    between atoms: N_17  and  C_18 
REMARK       I    between atoms: C_18  and  N_19 
REMARK    8  A    between atoms: N_19  and  C_20 
ROOT
HETATM    1  N   UNL     1       5.458  29.726  56.629  1.00  0.00    -0.065 N 
HETATM    2  H   UNL     1       4.849  30.404  57.108  1.00  0.00     0.280 HD
HETATM    3  C   UNL     1       5.062  28.340  57.115  1.00  0.00     0.260 C 
HETATM    4  C   UNL     1       4.938  27.492  55.834  1.00  0.00     0.113 C 
HETATM    5  C   UNL     1       4.355  28.513  54.867  1.00  0.00     0.054 C 
HETATM    6  C   UNL     1       5.154  29.775  55.149  1.00  0.00     0.237 C 
ENDROOT
BRANCH   1   7
HETATM    7  C   UNL     1       6.872  30.109  56.988  1.00  0.00     0.273 C 
BRANCH   7   8
HETATM    8  C   UNL     1       6.901  31.056  58.160  1.00  0.00    -0.029 A 
HETATM    9  C   UNL     1       8.076  31.190  58.924  1.00  0.00     0.019 A 
HETATM   10  C   UNL     1       8.113  31.994  60.077  1.00  0.00    -0.018 A 
HETATM   11  C   UNL     1       6.942  32.645  60.471  1.00  0.00     0.105 A 
HETATM   12  C   UNL     1       5.786  32.559  59.694  1.00  0.00     0.102 A 
HETATM   13  C   UNL     1       5.754  31.757  58.554  1.00  0.00     0.048 A 
BRANCH  10  14
HETATM   14  C   UNL     1       9.388  32.093  60.886  1.00  0.00     0.068 C 
BRANCH  14  15
HETATM   15  C   UNL     1       9.637  30.856  61.702  1.00  0.00    -0.032 C 
HETATM   16  C   UNL     1       8.775  30.342  62.590  1.00  0.00     0.007 C 
ENDBRANCH  14  15
ENDBRANCH  10  14
BRANCH  11  17
HETATM   17  O   UNL     1       6.929  33.343  61.645  1.00  0.00    -0.357 OA
HETATM   18  H   UNL     1       7.067  34.282  61.423  1.00  0.00     0.218 HD
ENDBRANCH  11  17
BRANCH  12  19
HETATM   19  O   UNL     1       4.632  33.191  60.073  1.00  0.00    -0.353 OA
HETATM   20  C   UNL     1       3.629  32.234  60.437  1.00  0.00     0.210 C 
ENDBRANCH  12  19
ENDBRANCH   7   8
ENDBRANCH   1   7
BRANCH   4  21
HETATM   21  N   UNL     1       6.193  26.943  55.310  1.00  0.00    -0.337 N 
HETATM   22  C   UNL     1       6.382  25.569  55.332  1.00  0.00     0.321 C 
HETATM   23  N   UNL     1       7.491  25.200  54.613  1.00  0.00    -0.309 N 
HETATM   24  O   UNL     1       5.627  24.844  55.964  1.00  0.00    -0.247 OA
HETATM   25  H   UNL     1       8.051  25.939  54.214  1.00  0.00     0.170 HD
HETATM   26  H   UNL     1       6.496  27.342  54.428  1.00  0.00     0.164 HD
BRANCH  23  27
HETATM   27  C   UNL     1       7.963  23.889  54.381  1.00  0.00     0.036 A 
HETATM   28  C   UNL     1       8.869  23.225  55.214  1.00  0.00     0.032 A 
HETATM   29  C   UNL     1       9.282  21.922  54.917  1.00  0.00     0.044 A 
HETATM   30  C   UNL     1       8.786  21.281  53.790  1.00  0.00     0.116 A 
HETATM   31  F   UNL     1       9.181  20.033  53.510  1.00  0.00    -0.206 F 
HETATM   32  C   UNL     1       7.884  21.920  52.952  1.00  0.00     0.044 A 
HETATM   33  C   UNL     1       7.474  23.223  53.245  1.00  0.00     0.032 A 
ENDBRANCH  23  27
ENDBRANCH   4  21
TORSDOF 8
ENDMDL
MODEL 6
REMARK VINA RESULT:      -8.5      4.066     10.074
REMARK  8 active torsions:
REMARK  status: ('A' for Active; 'I' for Inactive)
REMARK    1  A    between atoms: O_2  and  C_3 
REMARK    2  A    between atoms: C_4  and  O_5 
REMARK    3  A    between atoms: C_6  and  C_7 
REMARK    4  A    between atoms: C_7  and  C_8 
REMARK    5  A    between atoms: C_11  and  C_12 
REMARK    6  A    between atoms: C_12  and  N_13 
REMARK    7  A    between atoms: C_16  and  N_17 
REMARK       I    between atoms: N_17  and  C_18 
REMARK       I    between atoms: C_18  and  N_19 
REMARK    8  A    between atoms: N_19  and  C_20 
ROOT
HETATM    1  N   UNL     1       5.770  28.586  56.701  1.00  0.00    -0.065 N 
HETATM    2  H   UNL     1       5.248  29.173  57.365  1.00  0.00     0.280 HD
HETATM    3  C   UNL     1       4.854  27.445  56.287  1.00  0.00     0.260 C 
HETATM    4  C   UNL     1       4.963  27.386  54.751  1.00  0.00     0.113 C 
HETATM    5  C   UNL     1       5.078  28.866  54.412  1.00  0.00     0.054 C 
HETATM    6  C   UNL     1       6.044  29.401  55.458  1.00  0.00     0.237 C 
ENDROOT
BRANCH   1   7
HETATM    7  C   UNL     1       7.008  28.129  57.432  1.00  0.00     0.273 C 
BRANCH   7   8
HETATM    8  C   UNL     1       7.752  29.296  58.029  1.00  0.00    -0.029 A 
HETATM    9  C   UNL     1       7.106  30.142  58.950  1.00  0.00     0.019 A 
HETATM   10  C   UNL     1       7.738  31.291  59.458  1.00  0.00    -0.018 A 
HETATM   11  C   UNL     1       9.024  31.596  59.008  1.00  0.00     0.105 A 
HETATM   12  C   UNL     1       9.692  30.738  58.133  1.00  0.00     0.102 A 
HETATM   13  C   UNL     1       9.059  29.603  57.629  1.00  0.00     0.048 A 
BRANCH  10  14
HETATM   14  C   UNL     1       7.002  32.189  60.428  1.00  0.00     0.068 C 
BRANCH  14  15
HETATM   15  C   UNL     1       7.204  31.766  61.856  1.00  0.00    -0.032 C 
HETATM   16  C   UNL     1       8.253  32.117  62.613  1.00  0.00     0.007 C 
ENDBRANCH  14  15
ENDBRANCH  10  14
BRANCH  11  17
HETATM   17  O   UNL     1       9.612  32.763  59.406  1.00  0.00    -0.357 OA
HETATM   18  H   UNL     1       9.870  32.651  60.339  1.00  0.00     0.218 HD
ENDBRANCH  11  17
BRANCH  12  19
HETATM   19  O   UNL     1      10.953  31.030  57.683  1.00  0.00    -0.353 OA
HETATM   20  C   UNL     1      11.599  29.848  57.193  1.00  0.00     0.210 C 
ENDBRANCH  12  19
ENDBRANCH   7   8
ENDBRANCH   1   7
BRANCH   4  21
HETATM   21  N   UNL     1       6.114  26.645  54.223  1.00  0.00    -0.337 N 
HETATM   22  C   UNL     1       6.363  25.367  54.704  1.00  0.00     0.321 C 
HETATM   23  N   UNL     1       7.325  24.728  53.962  1.00  0.00    -0.309 N 
HETATM   24  O   UNL     1       5.780  24.945  55.692  1.00  0.00    -0.247 OA
HETATM   25  H   UNL     1       7.762  25.254  53.220  1.00  0.00     0.170 HD
HETATM   26  H   UNL     1       6.220  26.687  53.216  1.00  0.00     0.164 HD
BRANCH  23  27
HETATM   27  C   UNL     1       7.798  23.408  54.131  1.00  0.00     0.036 A 
HETATM   28  C   UNL     1       8.373  22.929  55.313  1.00  0.00     0.032 A 
HETATM   29  C   UNL     1       8.812  21.604  55.403  1.00  0.00     0.044 A 
HETATM   30  C   UNL     1       8.672  20.757  54.312  1.00  0.00     0.116 A 
HETATM   31  F   UNL     1       9.090  19.488  54.402  1.00  0.00    -0.206 F 
HETATM   32  C   UNL     1       8.101  21.209  53.131  1.00  0.00     0.044 A 
HETATM   33  C   UNL     1       7.666  22.535  53.040  1.00  0.00     0.032 A 
ENDBRANCH  23  27
ENDBRANCH   4  21
TORSDOF 8
ENDMDL
MODEL 7
REMARK VINA RESULT:      -8.4      5.199     10.439
REMARK  8 active torsions:
REMARK  status: ('A' for Active; 'I' for Inactive)
REMARK    1  A    between atoms: O_2  and  C_3 
REMARK    2  A    between atoms: C_4  and  O_5 
REMARK    3  A    between atoms: C_6  and  C_7 
REMARK    4  A    between atoms: C_7  and  C_8 
REMARK    5  A    between atoms: C_11  and  C_12 
REMARK    6  A    between atoms: C_12  and  N_13 
REMARK    7  A    between atoms: C_16  and  N_17 
REMARK       I    between atoms: N_17  and  C_18 
REMARK       I    between atoms: C_18  and  N_19 
REMARK    8  A    between atoms: N_19  and  C_20 
ROOT
HETATM    1  N   UNL     1       3.018  34.220  61.674  1.00  0.00    -0.065 N 
HETATM    2  H   UNL     1       2.257  34.887  61.857  1.00  0.00     0.280 HD
HETATM    3  C   UNL     1       2.711  33.532  60.353  1.00  0.00     0.260 C 
HETATM    4  C   UNL     1       4.031  33.589  59.560  1.00  0.00     0.113 C 
HETATM    5  C   UNL     1       4.561  34.954  59.978  1.00  0.00     0.054 C 
HETATM    6  C   UNL     1       4.298  35.001  61.475  1.00  0.00     0.237 C 
ENDROOT
BRANCH   1   7
HETATM    7  C   UNL     1       3.040  33.279  62.853  1.00  0.00     0.273 C 
BRANCH   7   8
HETATM    8  C   UNL     1       4.160  33.618  63.803  1.00  0.00    -0.029 A 
HETATM    9  C   UNL     1       5.476  33.216  63.506  1.00  0.00     0.019 A 
HETATM   10  C   UNL     1       6.530  33.435  64.411  1.00  0.00    -0.018 A 
HETATM   11  C   UNL     1       6.241  34.043  65.634  1.00  0.00     0.105 A 
HETATM   12  C   UNL     1       4.950  34.490  65.916  1.00  0.00     0.102 A 
HETATM   13  C   UNL     1       3.907  34.266  65.018  1.00  0.00     0.048 A 
BRANCH  10  14
HETATM   14  C   UNL     1       7.926  32.966  64.067  1.00  0.00     0.068 C 
BRANCH  14  15
HETATM   15  C   UNL     1       7.973  32.247  62.747  1.00  0.00    -0.032 C 
HETATM   16  C   UNL     1       8.355  30.973  62.588  1.00  0.00     0.007 C 
ENDBRANCH  14  15
ENDBRANCH  10  14
BRANCH  11  17
HETATM   17  O   UNL     1       7.229  34.167  66.568  1.00  0.00    -0.357 OA
HETATM   18  H   UNL     1       6.808  34.092  67.444  1.00  0.00     0.218 HD
ENDBRANCH  11  17
BRANCH  12  19
HETATM   19  O   UNL     1       4.655  35.085  67.115  1.00  0.00    -0.353 OA
HETATM   20  C   UNL     1       4.625  36.511  66.975  1.00  0.00     0.210 C 
ENDBRANCH  12  19
ENDBRANCH   7   8
ENDBRANCH   1   7
BRANCH   4  21
HETATM   21  N   UNL     1       5.008  32.540  59.873  1.00  0.00    -0.337 N 
HETATM   22  C   UNL     1       5.953  32.202  58.914  1.00  0.00     0.321 C 
HETATM   23  N   UNL     1       6.920  31.376  59.431  1.00  0.00    -0.309 N 
HETATM   24  O   UNL     1       5.850  32.603  57.765  1.00  0.00    -0.247 OA
HETATM   25  H   UNL     1       6.810  31.076  60.388  1.00  0.00     0.170 HD
HETATM   26  H   UNL     1       5.425  32.609  60.794  1.00  0.00     0.164 HD
BRANCH  23  27
HETATM   27  C   UNL     1       8.057  30.869  58.763  1.00  0.00     0.036 A 
HETATM   28  C   UNL     1       8.065  29.680  58.025  1.00  0.00     0.032 A 
HETATM   29  C   UNL     1       9.233  29.250  57.387  1.00  0.00     0.044 A 
HETATM   30  C   UNL     1      10.390  30.009  57.482  1.00  0.00     0.116 A 
HETATM   31  F   UNL     1      11.506  29.596  56.867  1.00  0.00    -0.206 F 
HETATM   32  C   UNL     1      10.404  31.193  58.205  1.00  0.00     0.044 A 
HETATM   33  C   UNL     1       9.239  31.622  58.847  1.00  0.00     0.032 A 
ENDBRANCH  23  27
ENDBRANCH   4  21
TORSDOF 8
ENDMDL
MODEL 8
REMARK VINA RESULT:      -8.2      4.200     11.606
REMARK  8 active torsions:
REMARK  status: ('A' for Active; 'I' for Inactive)
REMARK    1  A    between atoms: O_2  and  C_3 
REMARK    2  A    between atoms: C_4  and  O_5 
REMARK    3  A    between atoms: C_6  and  C_7 
REMARK    4  A    between atoms: C_7  and  C_8 
REMARK    5  A    between atoms: C_11  and  C_12 
REMARK    6  A    between atoms: C_12  and  N_13 
REMARK    7  A    between atoms: C_16  and  N_17 
REMARK       I    between atoms: N_17  and  C_18 
REMARK       I    between atoms: C_18  and  N_19 
REMARK    8  A    between atoms: N_19  and  C_20 
ROOT
HETATM    1  N   UNL     1       7.880  32.352  61.950  1.00  0.00    -0.065 N 
HETATM    2  H   UNL     1       8.258  33.101  62.544  1.00  0.00     0.280 HD
HETATM    3  C   UNL     1       8.551  32.470  60.590  1.00  0.00     0.260 C 
HETATM    4  C   UNL     1       8.998  31.037  60.242  1.00  0.00     0.113 C 
HETATM    5  C   UNL     1       9.407  30.520  61.615  1.00  0.00     0.054 C 
HETATM    6  C   UNL     1       8.302  31.022  62.533  1.00  0.00     0.237 C 
ENDROOT
BRANCH   1   7
HETATM    7  C   UNL     1       6.388  32.567  61.906  1.00  0.00     0.273 C 
BRANCH   7   8
HETATM    8  C   UNL     1       5.972  33.701  62.808  1.00  0.00    -0.029 A 
HETATM    9  C   UNL     1       5.653  34.955  62.254  1.00  0.00     0.019 A 
HETATM   10  C   UNL     1       5.350  36.060  63.070  1.00  0.00    -0.018 A 
HETATM   11  C   UNL     1       5.396  35.895  64.456  1.00  0.00     0.105 A 
HETATM   12  C   UNL     1       5.662  34.644  65.014  1.00  0.00     0.102 A 
HETATM   13  C   UNL     1       5.967  33.553  64.200  1.00  0.00     0.048 A 
BRANCH  10  14
HETATM   14  C   UNL     1       5.036  37.398  62.439  1.00  0.00     0.068 C 
BRANCH  14  15
HETATM   15  C   UNL     1       6.281  38.152  62.063  1.00  0.00    -0.032 C 
HETATM   16  C   UNL     1       6.635  39.339  62.573  1.00  0.00     0.007 C 
ENDBRANCH  14  15
ENDBRANCH  10  14
BRANCH  11  17
HETATM   17  O   UNL     1       5.210  36.980  65.264  1.00  0.00    -0.357 OA
HETATM   18  H   UNL     1       5.021  37.741  64.684  1.00  0.00     0.218 HD
ENDBRANCH  11  17
BRANCH  12  19
HETATM   19  O   UNL     1       5.712  34.472  66.372  1.00  0.00    -0.353 OA
HETATM   20  C   UNL     1       4.438  34.051  66.874  1.00  0.00     0.210 C 
ENDBRANCH  12  19
ENDBRANCH   7   8
ENDBRANCH   1   7
BRANCH   4  21
HETATM   21  N   UNL     1       7.969  30.174  59.653  1.00  0.00    -0.337 N 
HETATM   22  C   UNL     1       8.286  29.433  58.523  1.00  0.00     0.321 C 
HETATM   23  N   UNL     1       7.305  28.520  58.227  1.00  0.00    -0.309 N 
HETATM   24  O   UNL     1       9.316  29.648  57.902  1.00  0.00    -0.247 OA
HETATM   25  H   UNL     1       6.477  28.528  58.804  1.00  0.00     0.170 HD
HETATM   26  H   UNL     1       7.444  29.621  60.321  1.00  0.00     0.164 HD
BRANCH  23  27
HETATM   27  C   UNL     1       7.307  27.571  57.181  1.00  0.00     0.036 A 
HETATM   28  C   UNL     1       7.088  27.890  55.836  1.00  0.00     0.032 A 
HETATM   29  C   UNL     1       7.113  26.891  54.857  1.00  0.00     0.044 A 
HETATM   30  C   UNL     1       7.362  25.575  55.222  1.00  0.00     0.116 A 
HETATM   31  F   UNL     1       7.389  24.621  54.282  1.00  0.00    -0.206 F 
HETATM   32  C   UNL     1       7.586  25.237  56.549  1.00  0.00     0.044 A 
HETATM   33  C   UNL     1       7.556  26.234  57.528  1.00  0.00     0.032 A 
ENDBRANCH  23  27
ENDBRANCH   4  21
TORSDOF 8
ENDMDL
MODEL 9
REMARK VINA RESULT:      -8.0      5.108      9.428
REMARK  8 active torsions:
REMARK  status: ('A' for Active; 'I' for Inactive)
REMARK    1  A    between atoms: O_2  and  C_3 
REMARK    2  A    between atoms: C_4  and  O_5 
REMARK    3  A    between atoms: C_6  and  C_7 
REMARK    4  A    between atoms: C_7  and  C_8 
REMARK    5  A    between atoms: C_11  and  C_12 
REMARK    6  A    between atoms: C_12  and  N_13 
REMARK    7  A    between atoms: C_16  and  N_17 
REMARK       I    between atoms: N_17  and  C_18 
REMARK       I    between atoms: C_18  and  N_19 
REMARK    8  A    between atoms: N_19  and  C_20 
ROOT
HETATM    1  N   UNL     1       3.894  28.983  54.093  1.00  0.00    -0.065 N 
HETATM    2  H   UNL     1       3.180  29.675  53.830  1.00  0.00     0.280 HD
HETATM    3  C   UNL     1       3.623  27.723  53.284  1.00  0.00     0.260 C 
HETATM    4  C   UNL     1       4.994  27.316  52.713  1.00  0.00     0.113 C 
HETATM    5  C   UNL     1       5.605  28.681  52.426  1.00  0.00     0.054 C 
HETATM    6  C   UNL     1       5.244  29.503  53.654  1.00  0.00     0.237 C 
ENDROOT
BRANCH   1   7
HETATM    7  C   UNL     1       3.756  28.785  55.582  1.00  0.00     0.273 C 
BRANCH   7   8
HETATM    8  C   UNL     1       4.983  29.265  56.313  1.00  0.00    -0.029 A 
HETATM    9  C   UNL     1       6.029  28.366  56.591  1.00  0.00     0.019 A 
HETATM   10  C   UNL     1       7.148  28.755  57.350  1.00  0.00    -0.018 A 
HETATM   11  C   UNL     1       7.191  30.059  57.848  1.00  0.00     0.105 A 
HETATM   12  C   UNL     1       6.184  30.972  57.536  1.00  0.00     0.102 A 
HETATM   13  C   UNL     1       5.075  30.579  56.788  1.00  0.00     0.048 A 
BRANCH  10  14
HETATM   14  C   UNL     1       8.240  27.753  57.649  1.00  0.00     0.068 C 
BRANCH  14  15
HETATM   15  C   UNL     1       7.913  26.384  57.121  1.00  0.00    -0.032 C 
HETATM   16  C   UNL     1       8.498  25.250  57.530  1.00  0.00     0.007 C 
ENDBRANCH  14  15
ENDBRANCH  10  14
BRANCH  11  17
HETATM   17  O   UNL     1       8.215  30.423  58.675  1.00  0.00    -0.357 OA
HETATM   18  H   UNL     1       8.456  31.340  58.448  1.00  0.00     0.218 HD
ENDBRANCH  11  17
BRANCH  12  19
HETATM   19  O   UNL     1       6.215  32.252  58.023  1.00  0.00    -0.353 OA
HETATM   20  C   UNL     1       5.004  32.945  57.697  1.00  0.00     0.210 C 
ENDBRANCH  12  19
ENDBRANCH   7   8
ENDBRANCH   1   7
BRANCH   4  21
HETATM   21  N   UNL     1       5.857  26.545  53.615  1.00  0.00    -0.337 N 
HETATM   22  C   UNL     1       5.992  25.180  53.403  1.00  0.00     0.321 C 
HETATM   23  N   UNL     1       6.992  24.647  54.178  1.00  0.00    -0.309 N 
HETATM   24  O   UNL     1       5.253  24.590  52.630  1.00  0.00    -0.247 OA
HETATM   25  H   UNL     1       7.456  25.267  54.825  1.00  0.00     0.170 HD
HETATM   26  H   UNL     1       6.751  26.976  53.820  1.00  0.00     0.164 HD
BRANCH  23  27
HETATM   27  C   UNL     1       7.438  23.306  54.194  1.00  0.00     0.036 A 
HETATM   28  C   UNL     1       7.941  22.637  53.074  1.00  0.00     0.032 A 
HETATM   29  C   UNL     1       8.370  21.309  53.174  1.00  0.00     0.044 A 
HETATM   30  C   UNL     1       8.300  20.653  54.396  1.00  0.00     0.116 A 
HETATM   31  F   UNL     1       8.714  19.383  54.490  1.00  0.00    -0.206 F 
HETATM   32  C   UNL     1       7.808  21.299  55.521  1.00  0.00     0.044 A 
HETATM   33  C   UNL     1       7.375  22.624  55.420  1.00  0.00     0.032 A 
ENDBRANCH  23  27
ENDBRANCH   4  21
TORSDOF 8
ENDMDL
MODEL 10
REMARK VINA RESULT:      -8.0      5.717      9.510
REMARK  8 active torsions:
REMARK  status: ('A' for Active; 'I' for Inactive)
REMARK    1  A    between atoms: O_2  and  C_3 
REMARK    2  A    between atoms: C_4  and  O_5 
REMARK    3  A    between atoms: C_6  and  C_7 
REMARK    4  A    between atoms: C_7  and  C_8 
REMARK    5  A    between atoms: C_11  and  C_12 
REMARK    6  A    between atoms: C_12  and  N_13 
REMARK    7  A    between atoms: C_16  and  N_17 
REMARK       I    between atoms: N_17  and  C_18 
REMARK       I    between atoms: C_18  and  N_19 
REMARK    8  A    between atoms: N_19  and  C_20 
ROOT
HETATM    1  N   UNL     1       5.134  28.145  51.891  1.00  0.00    -0.065 N 
HETATM    2  H   UNL     1       4.429  28.893  51.914  1.00  0.00     0.280 HD
HETATM    3  C   UNL     1       4.481  26.887  52.445  1.00  0.00     0.260 C 
HETATM    4  C   UNL     1       4.845  25.777  51.442  1.00  0.00     0.113 C 
HETATM    5  C   UNL     1       4.786  26.543  50.127  1.00  0.00     0.054 C 
HETATM    6  C   UNL     1       5.478  27.859  50.446  1.00  0.00     0.237 C 
ENDROOT
BRANCH   1   7
HETATM    7  C   UNL     1       6.293  28.638  52.721  1.00  0.00     0.273 C 
BRANCH   7   8
HETATM    8  C   UNL     1       5.875  28.895  54.146  1.00  0.00    -0.029 A 
HETATM    9  C   UNL     1       6.620  28.344  55.205  1.00  0.00     0.019 A 
HETATM   10  C   UNL     1       6.209  28.487  56.543  1.00  0.00    -0.018 A 
HETATM   11  C   UNL     1       5.019  29.171  56.802  1.00  0.00     0.105 A 
HETATM   12  C   UNL     1       4.300  29.762  55.764  1.00  0.00     0.102 A 
HETATM   13  C   UNL     1       4.709  29.614  54.440  1.00  0.00     0.048 A 
BRANCH  10  14
HETATM   14  C   UNL     1       7.024  27.860  57.652  1.00  0.00     0.068 C 
BRANCH  14  15
HETATM   15  C   UNL     1       7.974  26.815  57.135  1.00  0.00    -0.032 C 
HETATM   16  C   UNL     1       8.069  25.568  57.615  1.00  0.00     0.007 C 
ENDBRANCH  14  15
ENDBRANCH  10  14
BRANCH  11  17
HETATM   17  O   UNL     1       4.548  29.227  58.083  1.00  0.00    -0.357 OA
HETATM   18  H   UNL     1       4.989  29.979  58.519  1.00  0.00     0.218 HD
ENDBRANCH  11  17
BRANCH  12  19
HETATM   19  O   UNL     1       3.130  30.433  56.008  1.00  0.00    -0.353 OA
HETATM   20  C   UNL     1       2.877  31.396  54.977  1.00  0.00     0.210 C 
ENDBRANCH  12  19
ENDBRANCH   7   8
ENDBRANCH   1   7
BRANCH   4  21
HETATM   21  N   UNL     1       6.165  25.163  51.622  1.00  0.00    -0.337 N 
HETATM   22  C   UNL     1       6.395  24.397  52.756  1.00  0.00     0.321 C 
HETATM   23  N   UNL     1       7.585  23.717  52.672  1.00  0.00    -0.309 N 
HETATM   24  O   UNL     1       5.605  24.405  53.688  1.00  0.00    -0.247 OA
HETATM   25  H   UNL     1       8.157  23.885  51.858  1.00  0.00     0.170 HD
HETATM   26  H   UNL     1       6.543  24.717  50.793  1.00  0.00     0.164 HD
BRANCH  23  27
HETATM   27  C   UNL     1       8.121  22.812  53.615  1.00  0.00     0.036 A 
HETATM   28  C   UNL     1       8.591  23.187  54.878  1.00  0.00     0.032 A 
HETATM   29  C   UNL     1       9.102  22.228  55.758  1.00  0.00     0.044 A 
HETATM   30  C   UNL     1       9.139  20.893  55.377  1.00  0.00     0.116 A 
HETATM   31  F   UNL     1       9.626  19.977  56.223  1.00  0.00    -0.206 F 
HETATM   32  C   UNL     1       8.675  20.499  54.131  1.00  0.00     0.044 A 
HETATM   33  C   UNL     1       8.168  21.458  53.249  1.00  0.00     0.032 A 
ENDBRANCH  23  27
ENDBRANCH   4  21
TORSDOF 8
ENDMDL
