MODEL 1
REMARK VINA RESULT:      -8.4      0.000      0.000
REMARK  9 active torsions:
REMARK  status: ('A' for Active; 'I' for Inactive)
REMARK    1  A    between atoms: O_2  and  C_3 
REMARK    2  A    between atoms: C_4  and  S_5 
REMARK    3  A    between atoms: S_5  and  N_6 
REMARK    4  A    between atoms: N_6  and  C_7 
REMARK    5  A    between atoms: C_7  and  C_8 
REMARK    6  A    between atoms: C_7  and  C_21 
REMARK       I    between atoms: C_8  and  N_9 
REMARK    7  A    between atoms: N_9  and  C_10 
REMARK    8  A    between atoms: C_21  and  C_22 
REMARK    9  A    between atoms: C_22  and  S_23 
ROOT
HETATM    1  C   UNL     1       7.194  27.133  55.624  1.00  0.00     0.165 C 
ENDROOT
BRANCH   1   2
HETATM    2  N   UNL     1       7.881  25.814  55.547  1.00  0.00    -0.202 NA
HETATM    3  H   UNL     1       8.802  25.807  55.999  1.00  0.00     0.141 HD
BRANCH   2   4
HETATM    4  S   UNL     1       7.011  24.496  56.188  1.00  0.00     0.245 S 
HETATM    5  O   UNL     1       5.607  24.820  56.083  1.00  0.00    -0.206 OA
HETATM    6  O   UNL     1       7.655  24.205  57.449  1.00  0.00    -0.206 OA
BRANCH   4   7
HETATM    7  C   UNL     1       7.371  23.144  55.108  1.00  0.00     0.107 A 
HETATM    8  C   UNL     1       7.342  23.343  53.726  1.00  0.00     0.091 A 
HETATM    9  C   UNL     1       7.684  22.301  52.862  1.00  0.00     0.038 A 
HETATM   10  C   UNL     1       8.014  21.047  53.376  1.00  0.00     0.003 A 
HETATM   11  C   UNL     1       8.011  20.837  54.754  1.00  0.00     0.002 A 
HETATM   12  C   UNL     1       7.690  21.882  55.622  1.00  0.00     0.028 A 
BRANCH   8  13
HETATM   13  O   UNL     1       7.048  24.551  53.159  1.00  0.00    -0.354 OA
HETATM   14  C   UNL     1       7.982  24.891  52.132  1.00  0.00     0.210 C 
ENDBRANCH   8  13
ENDBRANCH   4   7
ENDBRANCH   2   4
ENDBRANCH   1   2
BRANCH   1  15
HETATM   15  C   UNL     1       7.648  27.852  56.908  1.00  0.00     0.254 C 
HETATM   16  N   UNL     1       7.272  29.176  56.966  1.00  0.00    -0.156 N 
HETATM   17  H   UNL     1       6.778  29.635  56.212  1.00  0.00     0.187 HD
HETATM   18  O   UNL     1       8.331  27.280  57.761  1.00  0.00    -0.271 OA
BRANCH  16  19
HETATM   19  C   UNL     1       7.506  29.958  58.065  1.00  0.00     0.708 A 
HETATM   20  N   UNL     1       6.700  30.907  58.480  1.00  0.00    -0.062 NA
HETATM   21  C   UNL     1       7.287  31.403  59.622  1.00  0.00     0.103 A 
HETATM   22  C   UNL     1       8.469  30.729  59.910  1.00  0.00     0.078 A 
HETATM   23  C   UNL     1       6.861  32.430  60.476  1.00  0.00     0.034 A 
HETATM   24  N   UNL     1       8.595  29.828  58.888  1.00  0.00    -0.188 N 
HETATM   25  C   UNL     1       9.259  31.003  61.028  1.00  0.00     0.032 A 
HETATM   26  H   UNL     1       9.334  29.149  58.751  1.00  0.00     0.184 HD
HETATM   27  C   UNL     1       8.811  32.025  61.875  1.00  0.00     0.002 A 
HETATM   28  C   UNL     1       7.637  32.732  61.603  1.00  0.00     0.002 A 
ENDBRANCH  16  19
ENDBRANCH   1  15
BRANCH   1  29
HETATM   29  C   UNL     1       7.592  28.000  54.420  1.00  0.00     0.040 C 
BRANCH  29  30
HETATM   30  C   UNL     1       6.540  28.102  53.316  1.00  0.00     0.075 C 
BRANCH  30  31
HETATM   31  S   UNL     1       4.859  27.607  53.821  1.00  0.00    -0.173 SA
HETATM   32  C   UNL     1       4.288  29.155  54.566  1.00  0.00     0.089 C 
ENDBRANCH  30  31
ENDBRANCH  29  30
ENDBRANCH   1  29
TORSDOF 9
ENDMDL
MODEL 2
REMARK VINA RESULT:      -8.3      3.787      7.614
REMARK  9 active torsions:
REMARK  status: ('A' for Active; 'I' for Inactive)
REMARK    1  A    between atoms: O_2  and  C_3 
REMARK    2  A    between atoms: C_4  and  S_5 
REMARK    3  A    between atoms: S_5  and  N_6 
REMARK    4  A    between atoms: N_6  and  C_7 
REMARK    5  A    between atoms: C_7  and  C_8 
REMARK    6  A    between atoms: C_7  and  C_21 
REMARK       I    between atoms: C_8  and  N_9 
REMARK    7  A    between atoms: N_9  and  C_10 
REMARK    8  A    between atoms: C_21  and  C_22 
REMARK    9  A    between atoms: C_22  and  S_23 
ROOT
HETATM    1  C   UNL     1       5.312  27.231  54.834  1.00  0.00     0.165 C 
ENDROOT
BRANCH   1   2
HETATM    2  N   UNL     1       5.371  25.763  55.077  1.00  0.00    -0.202 NA
HETATM    3  H   UNL     1       5.295  25.204  54.220  1.00  0.00     0.141 HD
BRANCH   2   4
HETATM    4  S   UNL     1       6.760  25.212  55.898  1.00  0.00     0.245 S 
HETATM    5  O   UNL     1       6.372  24.951  57.265  1.00  0.00    -0.206 OA
HETATM    6  O   UNL     1       7.798  26.155  55.545  1.00  0.00    -0.206 OA
BRANCH   4   7
HETATM    7  C   UNL     1       7.175  23.683  55.116  1.00  0.00     0.107 A 
HETATM    8  C   UNL     1       7.182  23.604  53.722  1.00  0.00     0.091 A 
HETATM    9  C   UNL     1       7.567  22.419  53.090  1.00  0.00     0.038 A 
HETATM   10  C   UNL     1       7.905  21.300  53.850  1.00  0.00     0.003 A 
HETATM   11  C   UNL     1       7.866  21.366  55.242  1.00  0.00     0.002 A 
HETATM   12  C   UNL     1       7.501  22.555  55.878  1.00  0.00     0.028 A 
BRANCH   8  13
HETATM   13  O   UNL     1       6.883  24.669  52.919  1.00  0.00    -0.354 OA
HETATM   14  C   UNL     1       8.011  25.072  52.140  1.00  0.00     0.210 C 
ENDBRANCH   8  13
ENDBRANCH   4   7
ENDBRANCH   2   4
ENDBRANCH   1   2
BRANCH   1  15
HETATM   15  C   UNL     1       4.554  27.484  53.517  1.00  0.00     0.254 C 
HETATM   16  N   UNL     1       5.214  27.026  52.398  1.00  0.00    -0.156 N 
HETATM   17  H   UNL     1       6.129  26.600  52.443  1.00  0.00     0.187 HD
HETATM   18  O   UNL     1       3.480  28.092  53.497  1.00  0.00    -0.271 OA
BRANCH  16  19
HETATM   19  C   UNL     1       4.661  27.079  51.146  1.00  0.00     0.708 A 
HETATM   20  N   UNL     1       4.834  26.162  50.225  1.00  0.00    -0.062 NA
HETATM   21  C   UNL     1       4.080  26.583  49.153  1.00  0.00     0.103 A 
HETATM   22  C   UNL     1       3.426  27.776  49.439  1.00  0.00     0.078 A 
HETATM   23  C   UNL     1       3.896  25.988  47.896  1.00  0.00     0.034 A 
HETATM   24  N   UNL     1       3.833  28.081  50.710  1.00  0.00    -0.188 N 
HETATM   25  C   UNL     1       2.568  28.419  48.544  1.00  0.00     0.032 A 
HETATM   26  H   UNL     1       3.565  28.881  51.269  1.00  0.00     0.184 HD
HETATM   27  C   UNL     1       2.390  27.804  47.299  1.00  0.00     0.002 A 
HETATM   28  C   UNL     1       3.046  26.613  46.974  1.00  0.00     0.002 A 
ENDBRANCH  16  19
ENDBRANCH   1  15
BRANCH   1  29
HETATM   29  C   UNL     1       4.542  27.918  55.972  1.00  0.00     0.040 C 
BRANCH  29  30
HETATM   30  C   UNL     1       5.407  28.444  57.117  1.00  0.00     0.075 C 
BRANCH  30  31
HETATM   31  S   UNL     1       6.831  29.454  56.591  1.00  0.00    -0.173 SA
HETATM   32  C   UNL     1       8.058  28.925  57.813  1.00  0.00     0.089 C 
ENDBRANCH  30  31
ENDBRANCH  29  30
ENDBRANCH   1  29
TORSDOF 9
ENDMDL
MODEL 3
REMARK VINA RESULT:      -8.3      2.758      9.023
REMARK  9 active torsions:
REMARK  status: ('A' for Active; 'I' for Inactive)
REMARK    1  A    between atoms: O_2  and  C_3 
REMARK    2  A    between atoms: C_4  and  S_5 
REMARK    3  A    between atoms: S_5  and  N_6 
REMARK    4  A    between atoms: N_6  and  C_7 
REMARK    5  A    between atoms: C_7  and  C_8 
REMARK    6  A    between atoms: C_7  and  C_21 
REMARK       I    between atoms: C_8  and  N_9 
REMARK    7  A    between atoms: N_9  and  C_10 
REMARK    8  A    between atoms: C_21  and  C_22 
REMARK    9  A    between atoms: C_22  and  S_23 
ROOT
HETATM    1  C   UNL     1       7.297  30.389  57.694  1.00  0.00     0.165 C 
ENDROOT
BRANCH   1   2
HETATM    2  N   UNL     1       7.271  30.432  59.182  1.00  0.00    -0.202 NA
HETATM    3  H   UNL     1       7.201  29.505  59.616  1.00  0.00     0.141 HD
BRANCH   2   4
HETATM    4  S   UNL     1       8.596  31.216  59.915  1.00  0.00     0.245 S 
HETATM    5  O   UNL     1       9.113  32.167  58.957  1.00  0.00    -0.206 OA
HETATM    6  O   UNL     1       9.398  30.150  60.469  1.00  0.00    -0.206 OA
BRANCH   4   7
HETATM    7  C   UNL     1       7.904  32.097  61.282  1.00  0.00     0.107 A 
HETATM    8  C   UNL     1       6.736  32.841  61.099  1.00  0.00     0.091 A 
HETATM    9  C   UNL     1       6.144  33.492  62.184  1.00  0.00     0.038 A 
HETATM   10  C   UNL     1       6.741  33.435  63.443  1.00  0.00     0.003 A 
HETATM   11  C   UNL     1       7.925  32.722  63.621  1.00  0.00     0.002 A 
HETATM   12  C   UNL     1       8.509  32.052  62.543  1.00  0.00     0.028 A 
BRANCH   8  13
HETATM   13  O   UNL     1       6.090  32.919  59.898  1.00  0.00    -0.354 OA
HETATM   14  C   UNL     1       4.747  33.386  60.052  1.00  0.00     0.210 C 
ENDBRANCH   8  13
ENDBRANCH   4   7
ENDBRANCH   2   4
ENDBRANCH   1   2
BRANCH   1  15
HETATM   15  C   UNL     1       7.421  28.921  57.244  1.00  0.00     0.254 C 
HETATM   16  N   UNL     1       7.060  28.709  55.932  1.00  0.00    -0.156 N 
HETATM   17  H   UNL     1       6.710  29.449  55.338  1.00  0.00     0.187 HD
HETATM   18  O   UNL     1       7.762  28.033  58.029  1.00  0.00    -0.271 OA
BRANCH  16  19
HETATM   19  C   UNL     1       7.186  27.489  55.324  1.00  0.00     0.708 A 
HETATM   20  N   UNL     1       7.533  27.322  54.070  1.00  0.00    -0.062 NA
HETATM   21  C   UNL     1       7.578  25.959  53.888  1.00  0.00     0.103 A 
HETATM   22  C   UNL     1       7.262  25.286  55.063  1.00  0.00     0.078 A 
HETATM   23  C   UNL     1       7.891  25.217  52.739  1.00  0.00     0.034 A 
HETATM   24  N   UNL     1       6.995  26.287  55.957  1.00  0.00    -0.188 N 
HETATM   25  C   UNL     1       7.258  23.895  55.177  1.00  0.00     0.032 A 
HETATM   26  H   UNL     1       6.730  26.193  56.929  1.00  0.00     0.184 HD
HETATM   27  C   UNL     1       7.584  23.171  54.023  1.00  0.00     0.002 A 
HETATM   28  C   UNL     1       7.889  23.818  52.822  1.00  0.00     0.002 A 
ENDBRANCH  16  19
ENDBRANCH   1  15
BRANCH   1  29
HETATM   29  C   UNL     1       5.985  30.955  57.132  1.00  0.00     0.040 C 
BRANCH  29  30
HETATM   30  C   UNL     1       4.710  30.368  57.739  1.00  0.00     0.075 C 
BRANCH  30  31
HETATM   31  S   UNL     1       3.206  30.626  56.741  1.00  0.00    -0.173 SA
HETATM   32  C   UNL     1       3.831  30.159  55.108  1.00  0.00     0.089 C 
ENDBRANCH  30  31
ENDBRANCH  29  30
ENDBRANCH   1  29
TORSDOF 9
ENDMDL
MODEL 4
REMARK VINA RESULT:      -8.1      1.630      2.759
REMARK  9 active torsions:
REMARK  status: ('A' for Active; 'I' for Inactive)
REMARK    1  A    between atoms: O_2  and  C_3 
REMARK    2  A    between atoms: C_4  and  S_5 
REMARK    3  A    between atoms: S_5  and  N_6 
REMARK    4  A    between atoms: N_6  and  C_7 
REMARK    5  A    between atoms: C_7  and  C_8 
REMARK    6  A    between atoms: C_7  and  C_21 
REMARK       I    between atoms: C_8  and  N_9 
REMARK    7  A    between atoms: N_9  and  C_10 
REMARK    8  A    between atoms: C_21  and  C_22 
REMARK    9  A    between atoms: C_22  and  S_23 
ROOT
HETATM    1  C   UNL     1       6.498  26.796  54.381  1.00  0.00     0.165 C 
ENDROOT
BRANCH   1   2
HETATM    2  N   UNL     1       7.441  25.663  54.173  1.00  0.00    -0.202 NA
HETATM    3  H   UNL     1       7.668  25.157  55.037  1.00  0.00     0.141 HD
BRANCH   2   4
HETATM    4  S   UNL     1       6.942  24.493  53.038  1.00  0.00     0.245 S 
HETATM    5  O   UNL     1       7.663  24.751  51.813  1.00  0.00    -0.206 OA
HETATM    6  O   UNL     1       5.498  24.496  53.112  1.00  0.00    -0.206 OA
BRANCH   4   7
HETATM    7  C   UNL     1       7.482  22.949  53.707  1.00  0.00     0.107 A 
HETATM    8  C   UNL     1       7.479  22.762  55.091  1.00  0.00     0.091 A 
HETATM    9  C   UNL     1       7.845  21.527  55.631  1.00  0.00     0.038 A 
HETATM   10  C   UNL     1       8.254  20.491  54.792  1.00  0.00     0.003 A 
HETATM   11  C   UNL     1       8.291  20.686  53.412  1.00  0.00     0.002 A 
HETATM   12  C   UNL     1       7.906  21.913  52.867  1.00  0.00     0.028 A 
BRANCH   8  13
HETATM   13  O   UNL     1       7.069  23.727  55.967  1.00  0.00    -0.354 OA
HETATM   14  C   UNL     1       7.992  23.882  57.048  1.00  0.00     0.210 C 
ENDBRANCH   8  13
ENDBRANCH   4   7
ENDBRANCH   2   4
ENDBRANCH   1   2
BRANCH   1  15
HETATM   15  C   UNL     1       6.831  27.477  55.721  1.00  0.00     0.254 C 
HETATM   16  N   UNL     1       7.571  28.631  55.589  1.00  0.00    -0.156 N 
HETATM   17  H   UNL     1       7.894  28.971  54.694  1.00  0.00     0.187 HD
HETATM   18  O   UNL     1       6.497  26.978  56.799  1.00  0.00    -0.271 OA
BRANCH  16  19
HETATM   19  C   UNL     1       7.890  29.425  56.659  1.00  0.00     0.708 A 
HETATM   20  N   UNL     1       9.114  29.755  56.993  1.00  0.00    -0.062 NA
HETATM   21  C   UNL     1       8.979  30.584  58.083  1.00  0.00     0.103 A 
HETATM   22  C   UNL     1       7.639  30.768  58.408  1.00  0.00     0.078 A 
HETATM   23  C   UNL     1       9.962  31.228  58.849  1.00  0.00     0.034 A 
HETATM   24  N   UNL     1       6.968  30.000  57.496  1.00  0.00    -0.188 N 
HETATM   25  C   UNL     1       7.205  31.585  59.454  1.00  0.00     0.032 A 
HETATM   26  H   UNL     1       5.966  29.878  57.408  1.00  0.00     0.184 HD
HETATM   27  C   UNL     1       8.201  32.228  60.200  1.00  0.00     0.002 A 
HETATM   28  C   UNL     1       9.556  32.050  59.909  1.00  0.00     0.002 A 
ENDBRANCH  16  19
ENDBRANCH   1  15
BRANCH   1  29
HETATM   29  C   UNL     1       6.671  27.831  53.259  1.00  0.00     0.040 C 
BRANCH  29  30
HETATM   30  C   UNL     1       5.369  28.368  52.663  1.00  0.00     0.075 C 
BRANCH  30  31
HETATM   31  S   UNL     1       5.352  28.464  50.842  1.00  0.00    -0.173 SA
HETATM   32  C   UNL     1       5.005  26.733  50.441  1.00  0.00     0.089 C 
ENDBRANCH  30  31
ENDBRANCH  29  30
ENDBRANCH   1  29
TORSDOF 9
ENDMDL
MODEL 5
REMARK VINA RESULT:      -8.0      3.442      7.702
REMARK  9 active torsions:
REMARK  status: ('A' for Active; 'I' for Inactive)
REMARK    1  A    between atoms: O_2  and  C_3 
REMARK    2  A    between atoms: C_4  and  S_5 
REMARK    3  A    between atoms: S_5  and  N_6 
REMARK    4  A    between atoms: N_6  and  C_7 
REMARK    5  A    between atoms: C_7  and  C_8 
REMARK    6  A    between atoms: C_7  and  C_21 
REMARK       I    between atoms: C_8  and  N_9 
REMARK    7  A    between atoms: N_9  and  C_10 
REMARK    8  A    between atoms: C_21  and  C_22 
REMARK    9  A    between atoms: C_22  and  S_23 
ROOT
HETATM    1  C   UNL     1       6.513  28.073  54.897  1.00  0.00     0.165 C 
ENDROOT
BRANCH   1   2
HETATM    2  N   UNL     1       6.313  28.371  53.452  1.00  0.00    -0.202 NA
HETATM    3  H   UNL     1       6.603  27.607  52.833  1.00  0.00     0.141 HD
BRANCH   2   4
HETATM    4  S   UNL     1       4.720  28.785  53.004  1.00  0.00     0.245 S 
HETATM    5  O   UNL     1       4.644  30.228  52.984  1.00  0.00    -0.206 OA
HETATM    6  O   UNL     1       3.874  27.967  53.843  1.00  0.00    -0.206 OA
BRANCH   4   7
HETATM    7  C   UNL     1       4.540  28.179  51.354  1.00  0.00     0.107 A 
HETATM    8  C   UNL     1       4.988  26.893  51.042  1.00  0.00     0.091 A 
HETATM    9  C   UNL     1       4.797  26.378  49.758  1.00  0.00     0.038 A 
HETATM   10  C   UNL     1       4.194  27.161  48.773  1.00  0.00     0.003 A 
HETATM   11  C   UNL     1       3.776  28.456  49.073  1.00  0.00     0.002 A 
HETATM   12  C   UNL     1       3.948  28.968  50.362  1.00  0.00     0.028 A 
BRANCH   8  13
HETATM   13  O   UNL     1       5.566  26.067  51.964  1.00  0.00    -0.354 OA
HETATM   14  C   UNL     1       4.787  24.887  52.174  1.00  0.00     0.210 C 
ENDBRANCH   8  13
ENDBRANCH   4   7
ENDBRANCH   2   4
ENDBRANCH   1   2
BRANCH   1  15
HETATM   15  C   UNL     1       6.521  26.544  55.089  1.00  0.00     0.254 C 
HETATM   16  N   UNL     1       7.467  25.893  54.328  1.00  0.00    -0.156 N 
HETATM   17  H   UNL     1       8.070  26.378  53.678  1.00  0.00     0.187 HD
HETATM   18  O   UNL     1       5.704  25.983  55.823  1.00  0.00    -0.271 OA
BRANCH  16  19
HETATM   19  C   UNL     1       7.687  24.545  54.427  1.00  0.00     0.708 A 
HETATM   20  N   UNL     1       8.019  23.776  53.418  1.00  0.00    -0.062 NA
HETATM   21  C   UNL     1       8.181  22.522  53.959  1.00  0.00     0.103 A 
HETATM   22  C   UNL     1       7.953  22.536  55.331  1.00  0.00     0.078 A 
HETATM   23  C   UNL     1       8.533  21.314  53.338  1.00  0.00     0.034 A 
HETATM   24  N   UNL     1       7.618  23.835  55.599  1.00  0.00    -0.188 N 
HETATM   25  C   UNL     1       8.076  21.407  56.144  1.00  0.00     0.032 A 
HETATM   26  H   UNL     1       7.385  24.241  56.497  1.00  0.00     0.184 HD
HETATM   27  C   UNL     1       8.439  20.214  55.507  1.00  0.00     0.002 A 
HETATM   28  C   UNL     1       8.658  20.163  54.128  1.00  0.00     0.002 A 
ENDBRANCH  16  19
ENDBRANCH   1  15
BRANCH   1  29
HETATM   29  C   UNL     1       7.871  28.622  55.359  1.00  0.00     0.040 C 
BRANCH  29  30
HETATM   30  C   UNL     1       8.191  28.405  56.838  1.00  0.00     0.075 C 
BRANCH  30  31
HETATM   31  S   UNL     1       9.186  29.728  57.602  1.00  0.00    -0.173 SA
HETATM   32  C   UNL     1      10.644  29.680  56.531  1.00  0.00     0.089 C 
ENDBRANCH  30  31
ENDBRANCH  29  30
ENDBRANCH   1  29
TORSDOF 9
ENDMDL
MODEL 6
REMARK VINA RESULT:      -7.9      2.001      8.313
REMARK  9 active torsions:
REMARK  status: ('A' for Active; 'I' for Inactive)
REMARK    1  A    between atoms: O_2  and  C_3 
REMARK    2  A    between atoms: C_4  and  S_5 
REMARK    3  A    between atoms: S_5  and  N_6 
REMARK    4  A    between atoms: N_6  and  C_7 
REMARK    5  A    between atoms: C_7  and  C_8 
REMARK    6  A    between atoms: C_7  and  C_21 
REMARK       I    between atoms: C_8  and  N_9 
REMARK    7  A    between atoms: N_9  and  C_10 
REMARK    8  A    between atoms: C_21  and  C_22 
REMARK    9  A    between atoms: C_22  and  S_23 
ROOT
HETATM    1  C   UNL     1       5.884  28.055  55.245  1.00  0.00     0.165 C 
ENDROOT
BRANCH   1   2
HETATM    2  N   UNL     1       6.222  28.206  56.687  1.00  0.00    -0.202 NA
HETATM    3  H   UNL     1       6.125  27.337  57.223  1.00  0.00     0.141 HD
BRANCH   2   4
HETATM    4  S   UNL     1       7.782  28.811  57.014  1.00  0.00     0.245 S 
HETATM    5  O   UNL     1       8.269  29.417  55.796  1.00  0.00    -0.206 OA
HETATM    6  O   UNL     1       8.469  27.726  57.676  1.00  0.00    -0.206 OA
BRANCH   4   7
HETATM    7  C   UNL     1       7.537  30.074  58.225  1.00  0.00     0.107 A 
HETATM    8  C   UNL     1       6.558  31.048  58.013  1.00  0.00     0.091 A 
HETATM    9  C   UNL     1       6.311  32.016  58.990  1.00  0.00     0.038 A 
HETATM   10  C   UNL     1       7.070  32.037  60.159  1.00  0.00     0.003 A 
HETATM   11  C   UNL     1       8.070  31.087  60.358  1.00  0.00     0.002 A 
HETATM   12  C   UNL     1       8.306  30.105  59.394  1.00  0.00     0.028 A 
BRANCH   8  13
HETATM   13  O   UNL     1       5.766  31.070  56.900  1.00  0.00    -0.354 OA
HETATM   14  C   UNL     1       5.065  32.310  56.779  1.00  0.00     0.210 C 
ENDBRANCH   8  13
ENDBRANCH   4   7
ENDBRANCH   2   4
ENDBRANCH   1   2
BRANCH   1  15
HETATM   15  C   UNL     1       6.000  26.567  54.865  1.00  0.00     0.254 C 
HETATM   16  N   UNL     1       7.219  26.007  55.176  1.00  0.00    -0.156 N 
HETATM   17  H   UNL     1       7.975  26.541  55.581  1.00  0.00     0.187 HD
HETATM   18  O   UNL     1       5.084  25.976  54.285  1.00  0.00    -0.271 OA
BRANCH  16  19
HETATM   19  C   UNL     1       7.482  24.674  54.996  1.00  0.00     0.708 A 
HETATM   20  N   UNL     1       7.531  23.795  55.968  1.00  0.00    -0.062 NA
HETATM   21  C   UNL     1       7.778  22.590  55.349  1.00  0.00     0.103 A 
HETATM   22  C   UNL     1       7.868  22.745  53.970  1.00  0.00     0.078 A 
HETATM   23  C   UNL     1       7.931  21.311  55.904  1.00  0.00     0.034 A 
HETATM   24  N   UNL     1       7.697  24.089  53.775  1.00  0.00    -0.188 N 
HETATM   25  C   UNL     1       8.084  21.684  53.089  1.00  0.00     0.032 A 
HETATM   26  H   UNL     1       7.694  24.590  52.895  1.00  0.00     0.184 HD
HETATM   27  C   UNL     1       8.223  20.413  53.661  1.00  0.00     0.002 A 
HETATM   28  C   UNL     1       8.154  20.228  55.045  1.00  0.00     0.002 A 
ENDBRANCH  16  19
ENDBRANCH   1  15
BRANCH   1  29
HETATM   29  C   UNL     1       4.435  28.503  54.999  1.00  0.00     0.040 C 
BRANCH  29  30
HETATM   30  C   UNL     1       4.266  29.621  53.971  1.00  0.00     0.075 C 
BRANCH  30  31
HETATM   31  S   UNL     1       3.343  29.141  52.473  1.00  0.00    -0.173 SA
HETATM   32  C   UNL     1       4.620  28.192  51.609  1.00  0.00     0.089 C 
ENDBRANCH  30  31
ENDBRANCH  29  30
ENDBRANCH   1  29
TORSDOF 9
ENDMDL
MODEL 7
REMARK VINA RESULT:      -7.8      3.974      7.988
REMARK  9 active torsions:
REMARK  status: ('A' for Active; 'I' for Inactive)
REMARK    1  A    between atoms: O_2  and  C_3 
REMARK    2  A    between atoms: C_4  and  S_5 
REMARK    3  A    between atoms: S_5  and  N_6 
REMARK    4  A    between atoms: N_6  and  C_7 
REMARK    5  A    between atoms: C_7  and  C_8 
REMARK    6  A    between atoms: C_7  and  C_21 
REMARK       I    between atoms: C_8  and  N_9 
REMARK    7  A    between atoms: N_9  and  C_10 
REMARK    8  A    between atoms: C_21  and  C_22 
REMARK    9  A    between atoms: C_22  and  S_23 
ROOT
HETATM    1  C   UNL     1       6.056  26.913  54.224  1.00  0.00     0.165 C 
ENDROOT
BRANCH   1   2
HETATM    2  N   UNL     1       6.211  25.464  54.527  1.00  0.00    -0.202 NA
HETATM    3  H   UNL     1       5.319  24.983  54.691  1.00  0.00     0.141 HD
BRANCH   2   4
HETATM    4  S   UNL     1       7.045  24.555  53.350  1.00  0.00     0.245 S 
HETATM    5  O   UNL     1       8.150  25.365  52.889  1.00  0.00    -0.206 OA
HETATM    6  O   UNL     1       6.016  24.059  52.465  1.00  0.00    -0.206 OA
BRANCH   4   7
HETATM    7  C   UNL     1       7.684  23.157  54.222  1.00  0.00     0.107 A 
HETATM    8  C   UNL     1       8.260  23.339  55.482  1.00  0.00     0.091 A 
HETATM    9  C   UNL     1       8.713  22.236  56.209  1.00  0.00     0.038 A 
HETATM   10  C   UNL     1       8.629  20.955  55.662  1.00  0.00     0.003 A 
HETATM   11  C   UNL     1       8.084  20.776  54.391  1.00  0.00     0.002 A 
HETATM   12  C   UNL     1       7.612  21.874  53.669  1.00  0.00     0.028 A 
BRANCH   8  13
HETATM   13  O   UNL     1       8.354  24.562  56.083  1.00  0.00    -0.354 OA
HETATM   14  C   UNL     1       8.737  24.445  57.455  1.00  0.00     0.210 C 
ENDBRANCH   8  13
ENDBRANCH   4   7
ENDBRANCH   2   4
ENDBRANCH   1   2
BRANCH   1  15
HETATM   15  C   UNL     1       5.032  27.073  53.084  1.00  0.00     0.254 C 
HETATM   16  N   UNL     1       5.569  26.907  51.827  1.00  0.00    -0.156 N 
HETATM   17  H   UNL     1       6.553  26.736  51.674  1.00  0.00     0.187 HD
HETATM   18  O   UNL     1       3.857  27.376  53.310  1.00  0.00    -0.271 OA
BRANCH  16  19
HETATM   19  C   UNL     1       4.802  26.924  50.692  1.00  0.00     0.708 A 
HETATM   20  N   UNL     1       4.792  25.968  49.795  1.00  0.00    -0.062 NA
HETATM   21  C   UNL     1       3.865  26.364  48.858  1.00  0.00     0.103 A 
HETATM   22  C   UNL     1       3.293  27.583  49.205  1.00  0.00     0.078 A 
HETATM   23  C   UNL     1       3.450  25.725  47.680  1.00  0.00     0.034 A 
HETATM   24  N   UNL     1       3.925  27.928  50.369  1.00  0.00    -0.188 N 
HETATM   25  C   UNL     1       2.298  28.209  48.451  1.00  0.00     0.032 A 
HETATM   26  H   UNL     1       3.774  28.755  50.932  1.00  0.00     0.184 HD
HETATM   27  C   UNL     1       1.890  27.551  47.284  1.00  0.00     0.002 A 
HETATM   28  C   UNL     1       2.458  26.333  46.900  1.00  0.00     0.002 A 
ENDBRANCH  16  19
ENDBRANCH   1  15
BRANCH   1  29
HETATM   29  C   UNL     1       5.519  27.650  55.460  1.00  0.00     0.040 C 
BRANCH  29  30
HETATM   30  C   UNL     1       6.072  27.162  56.799  1.00  0.00     0.075 C 
BRANCH  30  31
HETATM   31  S   UNL     1       7.515  28.096  57.409  1.00  0.00    -0.173 SA
HETATM   32  C   UNL     1       7.217  29.691  56.605  1.00  0.00     0.089 C 
ENDBRANCH  30  31
ENDBRANCH  29  30
ENDBRANCH   1  29
TORSDOF 9
ENDMDL
MODEL 8
REMARK VINA RESULT:      -7.8      1.482      2.467
REMARK  9 active torsions:
REMARK  status: ('A' for Active; 'I' for Inactive)
REMARK    1  A    between atoms: O_2  and  C_3 
REMARK    2  A    between atoms: C_4  and  S_5 
REMARK    3  A    between atoms: S_5  and  N_6 
REMARK    4  A    between atoms: N_6  and  C_7 
REMARK    5  A    between atoms: C_7  and  C_8 
REMARK    6  A    between atoms: C_7  and  C_21 
REMARK       I    between atoms: C_8  and  N_9 
REMARK    7  A    between atoms: N_9  and  C_10 
REMARK    8  A    between atoms: C_21  and  C_22 
REMARK    9  A    between atoms: C_22  and  S_23 
ROOT
HETATM    1  C   UNL     1       6.119  27.504  55.016  1.00  0.00     0.165 C 
ENDROOT
BRANCH   1   2
HETATM    2  N   UNL     1       7.353  26.672  54.971  1.00  0.00    -0.202 NA
HETATM    3  H   UNL     1       8.207  27.196  55.193  1.00  0.00     0.141 HD
BRANCH   2   4
HETATM    4  S   UNL     1       7.347  25.298  55.981  1.00  0.00     0.245 S 
HETATM    5  O   UNL     1       6.007  25.157  56.502  1.00  0.00    -0.206 OA
HETATM    6  O   UNL     1       8.505  25.457  56.832  1.00  0.00    -0.206 OA
BRANCH   4   7
HETATM    7  C   UNL     1       7.689  23.939  54.904  1.00  0.00     0.107 A 
HETATM    8  C   UNL     1       8.023  22.697  55.450  1.00  0.00     0.091 A 
HETATM    9  C   UNL     1       8.236  21.600  54.612  1.00  0.00     0.038 A 
HETATM   10  C   UNL     1       8.156  21.751  53.228  1.00  0.00     0.003 A 
HETATM   11  C   UNL     1       7.856  22.997  52.680  1.00  0.00     0.002 A 
HETATM   12  C   UNL     1       7.622  24.093  53.514  1.00  0.00     0.028 A 
BRANCH   8  13
HETATM   13  O   UNL     1       8.096  22.477  56.796  1.00  0.00    -0.354 OA
HETATM   14  C   UNL     1       8.354  21.102  57.090  1.00  0.00     0.210 C 
ENDBRANCH   8  13
ENDBRANCH   4   7
ENDBRANCH   2   4
ENDBRANCH   1   2
BRANCH   1  15
HETATM   15  C   UNL     1       6.359  28.693  55.965  1.00  0.00     0.254 C 
HETATM   16  N   UNL     1       6.927  28.338  57.168  1.00  0.00    -0.156 N 
HETATM   17  H   UNL     1       7.129  27.378  57.413  1.00  0.00     0.187 HD
HETATM   18  O   UNL     1       6.012  29.838  55.665  1.00  0.00    -0.271 OA
BRANCH  16  19
HETATM   19  C   UNL     1       7.298  29.264  58.107  1.00  0.00     0.708 A 
HETATM   20  N   UNL     1       8.410  29.207  58.800  1.00  0.00    -0.062 NA
HETATM   21  C   UNL     1       8.404  30.339  59.583  1.00  0.00     0.103 A 
HETATM   22  C   UNL     1       7.266  31.103  59.349  1.00  0.00     0.078 A 
HETATM   23  C   UNL     1       9.347  30.788  60.519  1.00  0.00     0.034 A 
HETATM   24  N   UNL     1       6.567  30.382  58.419  1.00  0.00    -0.188 N 
HETATM   25  C   UNL     1       7.011  32.320  59.984  1.00  0.00     0.032 A 
HETATM   26  H   UNL     1       5.680  30.618  57.992  1.00  0.00     0.184 HD
HETATM   27  C   UNL     1       7.969  32.757  60.907  1.00  0.00     0.002 A 
HETATM   28  C   UNL     1       9.115  32.003  61.177  1.00  0.00     0.002 A 
ENDBRANCH  16  19
ENDBRANCH   1  15
BRANCH   1  29
HETATM   29  C   UNL     1       5.814  28.059  53.617  1.00  0.00     0.040 C 
BRANCH  29  30
HETATM   30  C   UNL     1       4.350  27.967  53.186  1.00  0.00     0.075 C 
BRANCH  30  31
HETATM   31  S   UNL     1       3.486  29.570  53.086  1.00  0.00    -0.173 SA
HETATM   32  C   UNL     1       3.369  29.750  51.288  1.00  0.00     0.089 C 
ENDBRANCH  30  31
ENDBRANCH  29  30
ENDBRANCH   1  29
TORSDOF 9
ENDMDL
MODEL 9
REMARK VINA RESULT:      -7.7      4.453      8.632
REMARK  9 active torsions:
REMARK  status: ('A' for Active; 'I' for Inactive)
REMARK    1  A    between atoms: O_2  and  C_3 
REMARK    2  A    between atoms: C_4  and  S_5 
REMARK    3  A    between atoms: S_5  and  N_6 
REMARK    4  A    between atoms: N_6  and  C_7 
REMARK    5  A    between atoms: C_7  and  C_8 
REMARK    6  A    between atoms: C_7  and  C_21 
REMARK       I    between atoms: C_8  and  N_9 
REMARK    7  A    between atoms: N_9  and  C_10 
REMARK    8  A    between atoms: C_21  and  C_22 
REMARK    9  A    between atoms: C_22  and  S_23 
ROOT
HETATM    1  C   UNL     1       5.293  27.136  52.491  1.00  0.00     0.165 C 
ENDROOT
BRANCH   1   2
HETATM    2  N   UNL     1       5.544  27.238  51.027  1.00  0.00    -0.202 NA
HETATM    3  H   UNL     1       5.435  26.346  50.531  1.00  0.00     0.141 HD
BRANCH   2   4
HETATM    4  S   UNL     1       4.587  28.379  50.198  1.00  0.00     0.245 S 
HETATM    5  O   UNL     1       5.490  29.304  49.552  1.00  0.00    -0.206 OA
HETATM    6  O   UNL     1       3.593  28.799  51.159  1.00  0.00    -0.206 OA
BRANCH   4   7
HETATM    7  C   UNL     1       3.737  27.448  48.960  1.00  0.00     0.107 A 
HETATM    8  C   UNL     1       2.854  28.099  48.095  1.00  0.00     0.091 A 
HETATM    9  C   UNL     1       2.223  27.387  47.073  1.00  0.00     0.038 A 
HETATM   10  C   UNL     1       2.440  26.016  46.939  1.00  0.00     0.003 A 
HETATM   11  C   UNL     1       3.295  25.357  47.822  1.00  0.00     0.002 A 
HETATM   12  C   UNL     1       3.945  26.070  48.833  1.00  0.00     0.028 A 
BRANCH   8  13
HETATM   13  O   UNL     1       2.614  29.442  48.159  1.00  0.00    -0.354 OA
HETATM   14  C   UNL     1       1.218  29.721  48.293  1.00  0.00     0.210 C 
ENDBRANCH   8  13
ENDBRANCH   4   7
ENDBRANCH   2   4
ENDBRANCH   1   2
BRANCH   1  15
HETATM   15  C   UNL     1       5.494  25.672  52.926  1.00  0.00     0.254 C 
HETATM   16  N   UNL     1       6.813  25.276  52.953  1.00  0.00    -0.156 N 
HETATM   17  H   UNL     1       7.570  25.884  52.674  1.00  0.00     0.187 HD
HETATM   18  O   UNL     1       4.535  24.934  53.168  1.00  0.00    -0.271 OA
BRANCH  16  19
HETATM   19  C   UNL     1       7.199  24.039  53.399  1.00  0.00     0.708 A 
HETATM   20  N   UNL     1       7.776  23.132  52.647  1.00  0.00    -0.062 NA
HETATM   21  C   UNL     1       8.028  22.074  53.491  1.00  0.00     0.103 A 
HETATM   22  C   UNL     1       7.603  22.354  54.785  1.00  0.00     0.078 A 
HETATM   23  C   UNL     1       8.629  20.836  53.222  1.00  0.00     0.034 A 
HETATM   24  N   UNL     1       7.058  23.606  54.692  1.00  0.00    -0.188 N 
HETATM   25  C   UNL     1       7.759  21.471  55.855  1.00  0.00     0.032 A 
HETATM   26  H   UNL     1       6.643  24.156  55.434  1.00  0.00     0.184 HD
HETATM   27  C   UNL     1       8.371  20.244  55.569  1.00  0.00     0.002 A 
HETATM   28  C   UNL     1       8.793  19.926  54.275  1.00  0.00     0.002 A 
ENDBRANCH  16  19
ENDBRANCH   1  15
BRANCH   1  29
HETATM   29  C   UNL     1       6.302  28.007  53.255  1.00  0.00     0.040 C 
BRANCH  29  30
HETATM   30  C   UNL     1       5.765  28.656  54.531  1.00  0.00     0.075 C 
BRANCH  30  31
HETATM   31  S   UNL     1       6.995  28.835  55.866  1.00  0.00    -0.173 SA
HETATM   32  C   UNL     1       7.553  27.119  56.008  1.00  0.00     0.089 C 
ENDBRANCH  30  31
ENDBRANCH  29  30
ENDBRANCH   1  29
TORSDOF 9
ENDMDL
MODEL 10
REMARK VINA RESULT:      -7.5      6.127     10.277
REMARK  9 active torsions:
REMARK  status: ('A' for Active; 'I' for Inactive)
REMARK    1  A    between atoms: O_2  and  C_3 
REMARK    2  A    between atoms: C_4  and  S_5 
REMARK    3  A    between atoms: S_5  and  N_6 
REMARK    4  A    between atoms: N_6  and  C_7 
REMARK    5  A    between atoms: C_7  and  C_8 
REMARK    6  A    between atoms: C_7  and  C_21 
REMARK       I    between atoms: C_8  and  N_9 
REMARK    7  A    between atoms: N_9  and  C_10 
REMARK    8  A    between atoms: C_21  and  C_22 
REMARK    9  A    between atoms: C_22  and  S_23 
ROOT
HETATM    1  C   UNL     1       6.131  32.411  63.258  1.00  0.00     0.165 C 
ENDROOT
BRANCH   1   2
HETATM    2  N   UNL     1       5.293  33.333  62.443  1.00  0.00    -0.202 NA
HETATM    3  H   UNL     1       5.604  33.414  61.468  1.00  0.00     0.141 HD
BRANCH   2   4
HETATM    4  S   UNL     1       3.630  32.961  62.395  1.00  0.00     0.245 S 
HETATM    5  O   UNL     1       3.059  33.395  63.650  1.00  0.00    -0.206 OA
HETATM    6  O   UNL     1       3.569  31.590  61.940  1.00  0.00    -0.206 OA
BRANCH   4   7
HETATM    7  C   UNL     1       2.977  33.960  61.092  1.00  0.00     0.107 A 
HETATM    8  C   UNL     1       3.693  34.087  59.899  1.00  0.00     0.091 A 
HETATM    9  C   UNL     1       3.161  34.823  58.838  1.00  0.00     0.038 A 
HETATM   10  C   UNL     1       1.933  35.467  58.982  1.00  0.00     0.003 A 
HETATM   11  C   UNL     1       1.232  35.370  60.183  1.00  0.00     0.002 A 
HETATM   12  C   UNL     1       1.751  34.618  61.240  1.00  0.00     0.028 A 
BRANCH   8  13
HETATM   13  O   UNL     1       4.890  33.464  59.686  1.00  0.00    -0.354 OA
HETATM   14  C   UNL     1       5.106  33.200  58.298  1.00  0.00     0.210 C 
ENDBRANCH   8  13
ENDBRANCH   4   7
ENDBRANCH   2   4
ENDBRANCH   1   2
BRANCH   1  15
HETATM   15  C   UNL     1       7.132  31.700  62.327  1.00  0.00     0.254 C 
HETATM   16  N   UNL     1       6.816  31.802  60.990  1.00  0.00    -0.156 N 
HETATM   17  H   UNL     1       5.982  32.269  60.662  1.00  0.00     0.187 HD
HETATM   18  O   UNL     1       8.087  31.061  62.775  1.00  0.00    -0.271 OA
BRANCH  16  19
HETATM   19  C   UNL     1       7.631  31.312  60.004  1.00  0.00     0.708 A 
HETATM   20  N   UNL     1       8.756  31.873  59.631  1.00  0.00    -0.062 NA
HETATM   21  C   UNL     1       9.267  31.043  58.659  1.00  0.00     0.103 A 
HETATM   22  C   UNL     1       8.435  29.949  58.449  1.00  0.00     0.078 A 
HETATM   23  C   UNL     1      10.449  31.157  57.912  1.00  0.00     0.034 A 
HETATM   24  N   UNL     1       7.389  30.157  59.305  1.00  0.00    -0.188 N 
HETATM   25  C   UNL     1       8.721  28.928  57.539  1.00  0.00     0.032 A 
HETATM   26  H   UNL     1       6.577  29.568  59.445  1.00  0.00     0.184 HD
HETATM   27  C   UNL     1       9.910  29.054  56.811  1.00  0.00     0.002 A 
HETATM   28  C   UNL     1      10.758  30.151  56.987  1.00  0.00     0.002 A 
ENDBRANCH  16  19
ENDBRANCH   1  15
BRANCH   1  29
HETATM   29  C   UNL     1       6.928  33.212  64.298  1.00  0.00     0.040 C 
BRANCH  29  30
HETATM   30  C   UNL     1       6.234  34.470  64.821  1.00  0.00     0.075 C 
BRANCH  30  31
HETATM   31  S   UNL     1       5.318  34.238  66.381  1.00  0.00    -0.173 SA
HETATM   32  C   UNL     1       4.534  35.863  66.527  1.00  0.00     0.089 C 
ENDBRANCH  30  31
ENDBRANCH  29  30
ENDBRANCH   1  29
TORSDOF 9
ENDMDL
