MODEL 1
REMARK VINA RESULT:     -10.2      0.000      0.000
REMARK  6 active torsions:
REMARK  status: ('A' for Active; 'I' for Inactive)
REMARK    1  A    between atoms: C_3  and  C_4 
REMARK       I    between atoms: C_4  and  N_5 
REMARK    2  A    between atoms: N_5  and  C_6 
REMARK    3  A    between atoms: C_14  and  N_15 
REMARK       I    between atoms: N_15  and  C_16 
REMARK    4  A    between atoms: C_16  and  C_17 
REMARK    5  A    between atoms: C_17  and  S_18 
REMARK    6  A    between atoms: S_18  and  C_19 
ROOT
HETATM    1  C   UNL     1       8.295  20.510  53.402  1.00  0.00     0.001 A 
HETATM    2  C   UNL     1       7.956  21.745  52.852  1.00  0.00     0.019 A 
HETATM    3  C   UNL     1       7.603  22.826  53.684  1.00  0.00     0.059 A 
HETATM    4  C   UNL     1       7.537  22.649  55.085  1.00  0.00     0.050 A 
HETATM    5  C   UNL     1       7.895  21.402  55.614  1.00  0.00     0.030 A 
HETATM    6  C   UNL     1       8.276  20.346  54.782  1.00  0.00     0.002 A 
ENDROOT
BRANCH   4   7
HETATM    7  N   UNL     1       7.079  23.708  55.908  1.00  0.00    -0.326 N 
HETATM    8  C   UNL     1       7.813  24.527  56.740  1.00  0.00     0.231 C 
HETATM    9  O   UNL     1       9.044  24.529  56.813  1.00  0.00    -0.272 OA
HETATM   10  H   UNL     1       6.067  23.862  55.892  1.00  0.00     0.169 HD
BRANCH   8  11
HETATM   11  C   UNL     1       7.022  25.452  57.657  1.00  0.00     0.185 C 
BRANCH  11  12
HETATM   12  S   UNL     1       6.228  26.859  56.830  1.00  0.00    -0.083 SA
BRANCH  12  13
HETATM   13  C   UNL     1       7.359  28.113  57.173  1.00  0.00     0.168 A 
HETATM   14  N   UNL     1       8.574  28.230  56.699  1.00  0.00    -0.223 NA
HETATM   15  C   UNL     1       9.083  29.343  57.324  1.00  0.00     0.086 A 
HETATM   16  C   UNL     1       8.139  29.917  58.174  1.00  0.00     0.063 A 
HETATM   17  C   UNL     1      10.351  29.931  57.216  1.00  0.00     0.034 A 
HETATM   18  N   UNL     1       7.046  29.097  58.061  1.00  0.00    -0.333 N 
HETATM   19  C   UNL     1       8.383  31.068  58.926  1.00  0.00     0.032 A 
HETATM   20  H   UNL     1       6.171  29.181  58.554  1.00  0.00     0.168 HD
HETATM   21  C   UNL     1       9.654  31.641  58.801  1.00  0.00     0.002 A 
HETATM   22  C   UNL     1      10.625  31.083  57.964  1.00  0.00     0.002 A 
ENDBRANCH  12  13
ENDBRANCH  11  12
ENDBRANCH   8  11
ENDBRANCH   4   7
BRANCH   3  23
HETATM   23  C   UNL     1       7.326  24.159  53.061  1.00  0.00     0.258 C 
HETATM   24  N   UNL     1       5.987  24.433  52.835  1.00  0.00    -0.323 N 
HETATM   25  H   UNL     1       5.333  23.674  52.978  1.00  0.00     0.169 HD
HETATM   26  O   UNL     1       8.268  24.874  52.743  1.00  0.00    -0.267 OA
BRANCH  24  27
HETATM   27  C   UNL     1       5.434  25.624  52.320  1.00  0.00     0.035 A 
HETATM   28  C   UNL     1       4.913  26.650  53.115  1.00  0.00     0.032 A 
HETATM   29  C   UNL     1       4.378  27.799  52.526  1.00  0.00     0.044 A 
HETATM   30  C   UNL     1       4.359  27.919  51.143  1.00  0.00     0.116 A 
HETATM   31  F   UNL     1       3.845  29.021  50.580  1.00  0.00    -0.206 F 
HETATM   32  C   UNL     1       4.862  26.909  50.335  1.00  0.00     0.044 A 
HETATM   33  C   UNL     1       5.398  25.760  50.924  1.00  0.00     0.032 A 
ENDBRANCH  24  27
ENDBRANCH   3  23
TORSDOF 6
ENDMDL
MODEL 2
REMARK VINA RESULT:     -10.0      4.135      9.308
REMARK  6 active torsions:
REMARK  status: ('A' for Active; 'I' for Inactive)
REMARK    1  A    between atoms: C_3  and  C_4 
REMARK       I    between atoms: C_4  and  N_5 
REMARK    2  A    between atoms: N_5  and  C_6 
REMARK    3  A    between atoms: C_14  and  N_15 
REMARK       I    between atoms: N_15  and  C_16 
REMARK    4  A    between atoms: C_16  and  C_17 
REMARK    5  A    between atoms: C_17  and  S_18 
REMARK    6  A    between atoms: S_18  and  C_19 
ROOT
HETATM    1  C   UNL     1      11.172  30.612  57.595  1.00  0.00     0.001 A 
HETATM    2  C   UNL     1      10.250  31.269  58.407  1.00  0.00     0.019 A 
HETATM    3  C   UNL     1       8.892  30.894  58.395  1.00  0.00     0.059 A 
HETATM    4  C   UNL     1       8.444  29.882  57.516  1.00  0.00     0.050 A 
HETATM    5  C   UNL     1       9.393  29.227  56.719  1.00  0.00     0.030 A 
HETATM    6  C   UNL     1      10.744  29.584  56.763  1.00  0.00     0.002 A 
ENDROOT
BRANCH   4   7
HETATM    7  N   UNL     1       7.061  29.584  57.431  1.00  0.00    -0.326 N 
HETATM    8  C   UNL     1       6.447  28.349  57.455  1.00  0.00     0.231 C 
HETATM    9  O   UNL     1       7.027  27.282  57.673  1.00  0.00    -0.272 OA
HETATM   10  H   UNL     1       6.449  30.396  57.314  1.00  0.00     0.169 HD
BRANCH   8  11
HETATM   11  C   UNL     1       4.955  28.323  57.145  1.00  0.00     0.185 C 
BRANCH  11  12
HETATM   12  S   UNL     1       4.531  28.509  55.391  1.00  0.00    -0.083 SA
BRANCH  12  13
HETATM   13  C   UNL     1       5.494  27.262  54.694  1.00  0.00     0.168 A 
HETATM   14  N   UNL     1       6.291  27.366  53.661  1.00  0.00    -0.223 NA
HETATM   15  C   UNL     1       6.766  26.092  53.462  1.00  0.00     0.086 A 
HETATM   16  C   UNL     1       6.258  25.211  54.415  1.00  0.00     0.063 A 
HETATM   17  C   UNL     1       7.642  25.605  52.481  1.00  0.00     0.034 A 
HETATM   18  N   UNL     1       5.436  25.993  55.186  1.00  0.00    -0.333 N 
HETATM   19  C   UNL     1       6.584  23.855  54.458  1.00  0.00     0.032 A 
HETATM   20  H   UNL     1       4.870  25.694  55.964  1.00  0.00     0.168 HD
HETATM   21  C   UNL     1       7.463  23.390  53.472  1.00  0.00     0.002 A 
HETATM   22  C   UNL     1       7.982  24.246  52.497  1.00  0.00     0.002 A 
ENDBRANCH  12  13
ENDBRANCH  11  12
ENDBRANCH   8  11
ENDBRANCH   4   7
BRANCH   3  23
HETATM   23  C   UNL     1       7.947  31.567  59.341  1.00  0.00     0.258 C 
HETATM   24  N   UNL     1       8.162  31.291  60.681  1.00  0.00    -0.323 N 
HETATM   25  H   UNL     1       8.837  30.568  60.898  1.00  0.00     0.169 HD
HETATM   26  O   UNL     1       7.034  32.246  58.887  1.00  0.00    -0.267 OA
BRANCH  24  27
HETATM   27  C   UNL     1       7.469  31.828  61.786  1.00  0.00     0.035 A 
HETATM   28  C   UNL     1       6.075  31.919  61.864  1.00  0.00     0.032 A 
HETATM   29  C   UNL     1       5.465  32.469  62.995  1.00  0.00     0.044 A 
HETATM   30  C   UNL     1       6.247  32.932  64.044  1.00  0.00     0.116 A 
HETATM   31  F   UNL     1       5.661  33.459  65.126  1.00  0.00    -0.206 F 
HETATM   32  C   UNL     1       7.632  32.859  63.983  1.00  0.00     0.044 A 
HETATM   33  C   UNL     1       8.243  32.309  62.852  1.00  0.00     0.032 A 
ENDBRANCH  24  27
ENDBRANCH   3  23
TORSDOF 6
ENDMDL
MODEL 3
REMARK VINA RESULT:      -9.9      2.618      5.297
REMARK  6 active torsions:
REMARK  status: ('A' for Active; 'I' for Inactive)
REMARK    1  A    between atoms: C_3  and  C_4 
REMARK       I    between atoms: C_4  and  N_5 
REMARK    2  A    between atoms: N_5  and  C_6 
REMARK    3  A    between atoms: C_14  and  N_15 
REMARK       I    between atoms: N_15  and  C_16 
REMARK    4  A    between atoms: C_16  and  C_17 
REMARK    5  A    between atoms: C_17  and  S_18 
REMARK    6  A    between atoms: S_18  and  C_19 
ROOT
HETATM    1  C   UNL     1       4.750  27.347  49.531  1.00  0.00     0.001 A 
HETATM    2  C   UNL     1       5.229  26.349  50.377  1.00  0.00     0.019 A 
HETATM    3  C   UNL     1       5.003  26.419  51.766  1.00  0.00     0.059 A 
HETATM    4  C   UNL     1       4.334  27.535  52.319  1.00  0.00     0.050 A 
HETATM    5  C   UNL     1       3.850  28.519  51.446  1.00  0.00     0.030 A 
HETATM    6  C   UNL     1       4.051  28.422  50.066  1.00  0.00     0.002 A 
ENDROOT
BRANCH   4   7
HETATM    7  N   UNL     1       4.203  27.652  53.726  1.00  0.00    -0.326 N 
HETATM    8  C   UNL     1       5.130  28.112  54.637  1.00  0.00     0.231 C 
HETATM    9  O   UNL     1       6.217  28.613  54.340  1.00  0.00    -0.272 OA
HETATM   10  H   UNL     1       3.310  27.329  54.105  1.00  0.00     0.169 HD
BRANCH   8  11
HETATM   11  C   UNL     1       4.781  27.937  56.111  1.00  0.00     0.185 C 
BRANCH  11  12
HETATM   12  S   UNL     1       5.928  26.896  57.055  1.00  0.00    -0.083 SA
BRANCH  12  13
HETATM   13  C   UNL     1       7.201  28.017  57.359  1.00  0.00     0.168 A 
HETATM   14  N   UNL     1       7.149  29.083  58.116  1.00  0.00    -0.223 NA
HETATM   15  C   UNL     1       8.383  29.670  57.973  1.00  0.00     0.086 A 
HETATM   16  C   UNL     1       9.201  28.921  57.129  1.00  0.00     0.063 A 
HETATM   17  C   UNL     1       8.885  30.851  58.537  1.00  0.00     0.034 A 
HETATM   18  N   UNL     1       8.408  27.870  56.744  1.00  0.00    -0.333 N 
HETATM   19  C   UNL     1      10.514  29.277  56.816  1.00  0.00     0.032 A 
HETATM   20  H   UNL     1       8.651  27.129  56.106  1.00  0.00     0.168 HD
HETATM   21  C   UNL     1      10.997  30.458  57.393  1.00  0.00     0.002 A 
HETATM   22  C   UNL     1      10.198  31.235  58.237  1.00  0.00     0.002 A 
ENDBRANCH  12  13
ENDBRANCH  11  12
ENDBRANCH   8  11
ENDBRANCH   4   7
BRANCH   3  23
HETATM   23  C   UNL     1       5.461  25.288  52.633  1.00  0.00     0.258 C 
HETATM   24  N   UNL     1       6.828  25.068  52.637  1.00  0.00    -0.323 N 
HETATM   25  H   UNL     1       7.379  25.589  51.965  1.00  0.00     0.169 HD
HETATM   26  O   UNL     1       4.624  24.609  53.214  1.00  0.00    -0.267 OA
BRANCH  24  27
HETATM   27  C   UNL     1       7.539  24.118  53.400  1.00  0.00     0.035 A 
HETATM   28  C   UNL     1       8.026  24.358  54.689  1.00  0.00     0.032 A 
HETATM   29  C   UNL     1       8.725  23.363  55.377  1.00  0.00     0.044 A 
HETATM   30  C   UNL     1       8.943  22.131  54.775  1.00  0.00     0.116 A 
HETATM   31  F   UNL     1       9.614  21.179  55.436  1.00  0.00    -0.206 F 
HETATM   32  C   UNL     1       8.476  21.876  53.493  1.00  0.00     0.044 A 
HETATM   33  C   UNL     1       7.776  22.870  52.804  1.00  0.00     0.032 A 
ENDBRANCH  24  27
ENDBRANCH   3  23
TORSDOF 6
ENDMDL
MODEL 4
REMARK VINA RESULT:      -9.8      2.881      5.426
REMARK  6 active torsions:
REMARK  status: ('A' for Active; 'I' for Inactive)
REMARK    1  A    between atoms: C_3  and  C_4 
REMARK       I    between atoms: C_4  and  N_5 
REMARK    2  A    between atoms: N_5  and  C_6 
REMARK    3  A    between atoms: C_14  and  N_15 
REMARK       I    between atoms: N_15  and  C_16 
REMARK    4  A    between atoms: C_16  and  C_17 
REMARK    5  A    between atoms: C_17  and  S_18 
REMARK    6  A    between atoms: S_18  and  C_19 
ROOT
HETATM    1  C   UNL     1       4.978  27.000  50.022  1.00  0.00     0.001 A 
HETATM    2  C   UNL     1       5.385  25.985  50.885  1.00  0.00     0.019 A 
HETATM    3  C   UNL     1       5.689  26.269  52.231  1.00  0.00     0.059 A 
HETATM    4  C   UNL     1       5.635  27.600  52.704  1.00  0.00     0.050 A 
HETATM    5  C   UNL     1       5.209  28.601  51.821  1.00  0.00     0.030 A 
HETATM    6  C   UNL     1       4.878  28.303  50.495  1.00  0.00     0.002 A 
ENDROOT
BRANCH   4   7
HETATM    7  N   UNL     1       6.044  27.895  54.029  1.00  0.00    -0.326 N 
HETATM    8  C   UNL     1       7.312  28.175  54.492  1.00  0.00     0.231 C 
HETATM    9  O   UNL     1       8.304  28.323  53.775  1.00  0.00    -0.272 OA
HETATM   10  H   UNL     1       5.296  27.872  54.727  1.00  0.00     0.169 HD
BRANCH   8  11
HETATM   11  C   UNL     1       7.481  28.257  56.005  1.00  0.00     0.185 C 
BRANCH  11  12
HETATM   12  S   UNL     1       6.110  29.049  56.891  1.00  0.00    -0.083 SA
BRANCH  12  13
HETATM   13  C   UNL     1       6.966  29.865  58.143  1.00  0.00     0.168 A 
HETATM   14  N   UNL     1       8.118  29.523  58.664  1.00  0.00    -0.223 NA
HETATM   15  C   UNL     1       8.333  30.442  59.662  1.00  0.00     0.086 A 
HETATM   16  C   UNL     1       7.295  31.371  59.722  1.00  0.00     0.063 A 
HETATM   17  C   UNL     1       9.399  30.552  60.566  1.00  0.00     0.034 A 
HETATM   18  N   UNL     1       6.429  30.965  58.739  1.00  0.00    -0.333 N 
HETATM   19  C   UNL     1       7.260  32.425  60.636  1.00  0.00     0.032 A 
HETATM   20  H   UNL     1       5.542  31.383  58.503  1.00  0.00     0.168 HD
HETATM   21  C   UNL     1       8.336  32.519  61.527  1.00  0.00     0.002 A 
HETATM   22  C   UNL     1       9.387  31.598  61.497  1.00  0.00     0.002 A 
ENDBRANCH  12  13
ENDBRANCH  11  12
ENDBRANCH   8  11
ENDBRANCH   4   7
BRANCH   3  23
HETATM   23  C   UNL     1       6.044  25.140  53.148  1.00  0.00     0.258 C 
HETATM   24  N   UNL     1       7.168  24.418  52.781  1.00  0.00    -0.323 N 
HETATM   25  H   UNL     1       7.568  24.621  51.873  1.00  0.00     0.169 HD
HETATM   26  O   UNL     1       5.310  24.891  54.097  1.00  0.00    -0.267 OA
BRANCH  24  27
HETATM   27  C   UNL     1       7.763  23.349  53.483  1.00  0.00     0.035 A 
HETATM   28  C   UNL     1       7.803  22.032  53.013  1.00  0.00     0.032 A 
HETATM   29  C   UNL     1       8.409  21.028  53.773  1.00  0.00     0.044 A 
HETATM   30  C   UNL     1       8.970  21.339  55.004  1.00  0.00     0.116 A 
HETATM   31  F   UNL     1       9.550  20.375  55.730  1.00  0.00    -0.206 F 
HETATM   32  C   UNL     1       8.933  22.637  55.493  1.00  0.00     0.044 A 
HETATM   33  C   UNL     1       8.327  23.642  54.733  1.00  0.00     0.032 A 
ENDBRANCH  24  27
ENDBRANCH   3  23
TORSDOF 6
ENDMDL
MODEL 5
REMARK VINA RESULT:      -9.7      1.535      1.846
REMARK  6 active torsions:
REMARK  status: ('A' for Active; 'I' for Inactive)
REMARK    1  A    between atoms: C_3  and  C_4 
REMARK       I    between atoms: C_4  and  N_5 
REMARK    2  A    between atoms: N_5  and  C_6 
REMARK    3  A    between atoms: C_14  and  N_15 
REMARK       I    between atoms: N_15  and  C_16 
REMARK    4  A    between atoms: C_16  and  C_17 
REMARK    5  A    between atoms: C_17  and  S_18 
REMARK    6  A    between atoms: S_18  and  C_19 
ROOT
HETATM    1  C   UNL     1       8.131  21.786  53.205  1.00  0.00     0.001 A 
HETATM    2  C   UNL     1       7.600  23.035  52.888  1.00  0.00     0.019 A 
HETATM    3  C   UNL     1       7.640  24.088  53.822  1.00  0.00     0.059 A 
HETATM    4  C   UNL     1       8.172  23.869  55.114  1.00  0.00     0.050 A 
HETATM    5  C   UNL     1       8.712  22.609  55.404  1.00  0.00     0.030 A 
HETATM    6  C   UNL     1       8.698  21.580  54.458  1.00  0.00     0.002 A 
ENDROOT
BRANCH   4   7
HETATM    7  N   UNL     1       8.113  24.900  56.085  1.00  0.00    -0.326 N 
HETATM    8  C   UNL     1       7.019  25.345  56.797  1.00  0.00     0.231 C 
HETATM    9  O   UNL     1       5.905  24.818  56.773  1.00  0.00    -0.272 OA
HETATM   10  H   UNL     1       8.997  25.386  56.254  1.00  0.00     0.169 HD
BRANCH   8  11
HETATM   11  C   UNL     1       7.216  26.607  57.629  1.00  0.00     0.185 C 
BRANCH  11  12
HETATM   12  S   UNL     1       6.803  28.159  56.785  1.00  0.00    -0.083 SA
BRANCH  12  13
HETATM   13  C   UNL     1       7.342  29.310  57.949  1.00  0.00     0.168 A 
HETATM   14  N   UNL     1       8.451  29.269  58.642  1.00  0.00    -0.223 NA
HETATM   15  C   UNL     1       8.381  30.364  59.471  1.00  0.00     0.086 A 
HETATM   16  C   UNL     1       7.211  31.088  59.248  1.00  0.00     0.063 A 
HETATM   17  C   UNL     1       9.283  30.809  60.446  1.00  0.00     0.034 A 
HETATM   18  N   UNL     1       6.561  30.378  58.271  1.00  0.00    -0.333 N 
HETATM   19  C   UNL     1       6.886  32.255  59.941  1.00  0.00     0.032 A 
HETATM   20  H   UNL     1       5.660  30.585  57.869  1.00  0.00     0.168 HD
HETATM   21  C   UNL     1       7.803  32.685  60.909  1.00  0.00     0.002 A 
HETATM   22  C   UNL     1       8.981  31.975  61.162  1.00  0.00     0.002 A 
ENDBRANCH  12  13
ENDBRANCH  11  12
ENDBRANCH   8  11
ENDBRANCH   4   7
BRANCH   3  23
HETATM   23  C   UNL     1       7.135  25.437  53.416  1.00  0.00     0.258 C 
HETATM   24  N   UNL     1       5.820  25.463  52.980  1.00  0.00    -0.323 N 
HETATM   25  H   UNL     1       5.363  24.570  52.845  1.00  0.00     0.169 HD
HETATM   26  O   UNL     1       7.904  26.390  53.432  1.00  0.00    -0.267 OA
BRANCH  24  27
HETATM   27  C   UNL     1       5.070  26.594  52.595  1.00  0.00     0.035 A 
HETATM   28  C   UNL     1       4.345  27.391  53.487  1.00  0.00     0.032 A 
HETATM   29  C   UNL     1       3.622  28.494  53.024  1.00  0.00     0.044 A 
HETATM   30  C   UNL     1       3.621  28.798  51.670  1.00  0.00     0.116 A 
HETATM   31  F   UNL     1       2.928  29.855  51.228  1.00  0.00    -0.206 F 
HETATM   32  C   UNL     1       4.327  28.015  50.766  1.00  0.00     0.044 A 
HETATM   33  C   UNL     1       5.049  26.912  51.229  1.00  0.00     0.032 A 
ENDBRANCH  24  27
ENDBRANCH   3  23
TORSDOF 6
ENDMDL
MODEL 6
REMARK VINA RESULT:      -9.7      1.723      2.205
REMARK  6 active torsions:
REMARK  status: ('A' for Active; 'I' for Inactive)
REMARK    1  A    between atoms: C_3  and  C_4 
REMARK       I    between atoms: C_4  and  N_5 
REMARK    2  A    between atoms: N_5  and  C_6 
REMARK    3  A    between atoms: C_14  and  N_15 
REMARK       I    between atoms: N_15  and  C_16 
REMARK    4  A    between atoms: C_16  and  C_17 
REMARK    5  A    between atoms: C_17  and  S_18 
REMARK    6  A    between atoms: S_18  and  C_19 
ROOT
HETATM    1  C   UNL     1       8.260  22.342  53.603  1.00  0.00     0.001 A 
HETATM    2  C   UNL     1       7.207  23.011  52.982  1.00  0.00     0.019 A 
HETATM    3  C   UNL     1       6.683  24.194  53.539  1.00  0.00     0.059 A 
HETATM    4  C   UNL     1       7.187  24.683  54.766  1.00  0.00     0.050 A 
HETATM    5  C   UNL     1       8.255  24.001  55.364  1.00  0.00     0.030 A 
HETATM    6  C   UNL     1       8.790  22.846  54.786  1.00  0.00     0.002 A 
ENDROOT
BRANCH   4   7
HETATM    7  N   UNL     1       6.585  25.813  55.375  1.00  0.00    -0.326 N 
HETATM    8  C   UNL     1       5.610  25.843  56.349  1.00  0.00     0.231 C 
HETATM    9  O   UNL     1       5.175  24.851  56.938  1.00  0.00    -0.272 OA
HETATM   10  H   UNL     1       6.908  26.717  55.022  1.00  0.00     0.169 HD
BRANCH   8  11
HETATM   11  C   UNL     1       5.011  27.208  56.671  1.00  0.00     0.185 C 
BRANCH  11  12
HETATM   12  S   UNL     1       5.358  28.507  55.454  1.00  0.00    -0.083 SA
BRANCH  12  13
HETATM   13  C   UNL     1       6.864  29.104  56.041  1.00  0.00     0.168 A 
HETATM   14  N   UNL     1       8.055  28.837  55.570  1.00  0.00    -0.223 NA
HETATM   15  C   UNL     1       8.917  29.490  56.418  1.00  0.00     0.086 A 
HETATM   16  C   UNL     1       8.219  30.184  57.406  1.00  0.00     0.063 A 
HETATM   17  C   UNL     1      10.318  29.539  56.410  1.00  0.00     0.034 A 
HETATM   18  N   UNL     1       6.903  29.907  57.141  1.00  0.00    -0.333 N 
HETATM   19  C   UNL     1       8.843  30.946  58.395  1.00  0.00     0.032 A 
HETATM   20  H   UNL     1       6.100  30.216  57.667  1.00  0.00     0.168 HD
HETATM   21  C   UNL     1      10.243  30.985  58.366  1.00  0.00     0.002 A 
HETATM   22  C   UNL     1      10.971  30.292  57.394  1.00  0.00     0.002 A 
ENDBRANCH  12  13
ENDBRANCH  11  12
ENDBRANCH   8  11
ENDBRANCH   4   7
BRANCH   3  23
HETATM   23  C   UNL     1       5.608  24.929  52.800  1.00  0.00     0.258 C 
HETATM   24  N   UNL     1       6.055  25.744  51.773  1.00  0.00    -0.323 N 
HETATM   25  H   UNL     1       7.056  25.879  51.696  1.00  0.00     0.169 HD
HETATM   26  O   UNL     1       4.447  24.819  53.175  1.00  0.00    -0.267 OA
BRANCH  24  27
HETATM   27  C   UNL     1       5.269  26.500  50.879  1.00  0.00     0.035 A 
HETATM   28  C   UNL     1       4.742  25.997  49.685  1.00  0.00     0.032 A 
HETATM   29  C   UNL     1       3.974  26.815  48.850  1.00  0.00     0.044 A 
HETATM   30  C   UNL     1       3.740  28.136  49.206  1.00  0.00     0.116 A 
HETATM   31  F   UNL     1       3.005  28.918  48.405  1.00  0.00    -0.206 F 
HETATM   32  C   UNL     1       4.262  28.658  50.382  1.00  0.00     0.044 A 
HETATM   33  C   UNL     1       5.029  27.840  51.217  1.00  0.00     0.032 A 
ENDBRANCH  24  27
ENDBRANCH   3  23
TORSDOF 6
ENDMDL
MODEL 7
REMARK VINA RESULT:      -9.4      3.935      6.830
REMARK  6 active torsions:
REMARK  status: ('A' for Active; 'I' for Inactive)
REMARK    1  A    between atoms: C_3  and  C_4 
REMARK       I    between atoms: C_4  and  N_5 
REMARK    2  A    between atoms: N_5  and  C_6 
REMARK    3  A    between atoms: C_14  and  N_15 
REMARK       I    between atoms: N_15  and  C_16 
REMARK    4  A    between atoms: C_16  and  C_17 
REMARK    5  A    between atoms: C_17  and  S_18 
REMARK    6  A    between atoms: S_18  and  C_19 
ROOT
HETATM    1  C   UNL     1       2.944  26.201  47.349  1.00  0.00     0.001 A 
HETATM    2  C   UNL     1       3.914  26.084  48.343  1.00  0.00     0.019 A 
HETATM    3  C   UNL     1       4.021  27.056  49.357  1.00  0.00     0.059 A 
HETATM    4  C   UNL     1       3.177  28.191  49.342  1.00  0.00     0.050 A 
HETATM    5  C   UNL     1       2.201  28.278  48.341  1.00  0.00     0.030 A 
HETATM    6  C   UNL     1       2.082  27.291  47.358  1.00  0.00     0.002 A 
ENDROOT
BRANCH   4   7
HETATM    7  N   UNL     1       3.360  29.217  50.302  1.00  0.00    -0.326 N 
HETATM    8  C   UNL     1       4.045  30.406  50.166  1.00  0.00     0.231 C 
HETATM    9  O   UNL     1       4.531  30.819  49.111  1.00  0.00    -0.272 OA
HETATM   10  H   UNL     1       2.943  29.031  51.218  1.00  0.00     0.169 HD
BRANCH   8  11
HETATM   11  C   UNL     1       4.242  31.227  51.435  1.00  0.00     0.185 C 
BRANCH  11  12
HETATM   12  S   UNL     1       3.147  30.789  52.813  1.00  0.00    -0.083 SA
BRANCH  12  13
HETATM   13  C   UNL     1       4.199  29.804  53.758  1.00  0.00     0.168 A 
HETATM   14  N   UNL     1       4.005  29.396  54.987  1.00  0.00    -0.223 NA
HETATM   15  C   UNL     1       5.151  28.710  55.309  1.00  0.00     0.086 A 
HETATM   16  C   UNL     1       6.041  28.689  54.236  1.00  0.00     0.063 A 
HETATM   17  C   UNL     1       5.509  28.072  56.505  1.00  0.00     0.034 A 
HETATM   18  N   UNL     1       5.403  29.409  53.259  1.00  0.00    -0.333 N 
HETATM   19  C   UNL     1       7.281  28.049  54.280  1.00  0.00     0.032 A 
HETATM   20  H   UNL     1       5.756  29.632  52.342  1.00  0.00     0.168 HD
HETATM   21  C   UNL     1       7.617  27.415  55.483  1.00  0.00     0.002 A 
HETATM   22  C   UNL     1       6.750  27.427  56.579  1.00  0.00     0.002 A 
ENDBRANCH  12  13
ENDBRANCH  11  12
ENDBRANCH   8  11
ENDBRANCH   4   7
BRANCH   3  23
HETATM   23  C   UNL     1       5.020  26.854  50.453  1.00  0.00     0.258 C 
HETATM   24  N   UNL     1       4.938  25.634  51.103  1.00  0.00    -0.323 N 
HETATM   25  H   UNL     1       4.141  25.049  50.883  1.00  0.00     0.169 HD
HETATM   26  O   UNL     1       5.782  27.769  50.740  1.00  0.00    -0.267 OA
BRANCH  24  27
HETATM   27  C   UNL     1       5.782  25.152  52.126  1.00  0.00     0.035 A 
HETATM   28  C   UNL     1       5.349  24.863  53.424  1.00  0.00     0.032 A 
HETATM   29  C   UNL     1       6.252  24.392  54.382  1.00  0.00     0.044 A 
HETATM   30  C   UNL     1       7.586  24.216  54.043  1.00  0.00     0.116 A 
HETATM   31  F   UNL     1       8.449  23.765  54.963  1.00  0.00    -0.206 F 
HETATM   32  C   UNL     1       8.038  24.505  52.763  1.00  0.00     0.044 A 
HETATM   33  C   UNL     1       7.136  24.975  51.805  1.00  0.00     0.032 A 
ENDBRANCH  24  27
ENDBRANCH   3  23
TORSDOF 6
ENDMDL
MODEL 8
REMARK VINA RESULT:      -9.3      3.102      7.563
REMARK  6 active torsions:
REMARK  status: ('A' for Active; 'I' for Inactive)
REMARK    1  A    between atoms: C_3  and  C_4 
REMARK       I    between atoms: C_4  and  N_5 
REMARK    2  A    between atoms: N_5  and  C_6 
REMARK    3  A    between atoms: C_14  and  N_15 
REMARK       I    between atoms: N_15  and  C_16 
REMARK    4  A    between atoms: C_16  and  C_17 
REMARK    5  A    between atoms: C_17  and  S_18 
REMARK    6  A    between atoms: S_18  and  C_19 
ROOT
HETATM    1  C   UNL     1       9.286  21.825  55.099  1.00  0.00     0.001 A 
HETATM    2  C   UNL     1       8.759  22.971  55.691  1.00  0.00     0.019 A 
HETATM    3  C   UNL     1       7.702  23.671  55.077  1.00  0.00     0.059 A 
HETATM    4  C   UNL     1       7.203  23.246  53.825  1.00  0.00     0.050 A 
HETATM    5  C   UNL     1       7.741  22.083  53.257  1.00  0.00     0.030 A 
HETATM    6  C   UNL     1       8.767  21.377  53.890  1.00  0.00     0.002 A 
ENDROOT
BRANCH   4   7
HETATM    7  N   UNL     1       6.214  24.015  53.163  1.00  0.00    -0.326 N 
HETATM    8  C   UNL     1       6.388  25.074  52.297  1.00  0.00     0.231 C 
HETATM    9  O   UNL     1       7.479  25.456  51.867  1.00  0.00    -0.272 OA
HETATM   10  H   UNL     1       5.248  23.757  53.381  1.00  0.00     0.169 HD
BRANCH   8  11
HETATM   11  C   UNL     1       5.132  25.837  51.893  1.00  0.00     0.185 C 
BRANCH  11  12
HETATM   12  S   UNL     1       5.405  27.561  51.399  1.00  0.00    -0.083 SA
BRANCH  12  13
HETATM   13  C   UNL     1       4.213  27.734  50.166  1.00  0.00     0.168 A 
HETATM   14  N   UNL     1       3.533  28.814  49.873  1.00  0.00    -0.223 NA
HETATM   15  C   UNL     1       2.671  28.420  48.878  1.00  0.00     0.086 A 
HETATM   16  C   UNL     1       2.859  27.078  48.553  1.00  0.00     0.063 A 
HETATM   17  C   UNL     1       1.693  29.156  48.196  1.00  0.00     0.034 A 
HETATM   18  N   UNL     1       3.850  26.664  49.406  1.00  0.00    -0.333 N 
HETATM   19  C   UNL     1       2.127  26.417  47.565  1.00  0.00     0.032 A 
HETATM   20  H   UNL     1       4.235  25.736  49.483  1.00  0.00     0.168 HD
HETATM   21  C   UNL     1       1.157  27.172  46.893  1.00  0.00     0.002 A 
HETATM   22  C   UNL     1       0.939  28.517  47.203  1.00  0.00     0.002 A 
ENDBRANCH  12  13
ENDBRANCH  11  12
ENDBRANCH   8  11
ENDBRANCH   4   7
BRANCH   3  23
HETATM   23  C   UNL     1       7.107  24.849  55.784  1.00  0.00     0.258 C 
HETATM   24  N   UNL     1       7.843  26.020  55.694  1.00  0.00    -0.323 N 
HETATM   25  H   UNL     1       8.767  25.951  55.285  1.00  0.00     0.169 HD
HETATM   26  O   UNL     1       6.077  24.698  56.428  1.00  0.00    -0.267 OA
BRANCH  24  27
HETATM   27  C   UNL     1       7.498  27.287  56.208  1.00  0.00     0.035 A 
HETATM   28  C   UNL     1       7.883  27.749  57.471  1.00  0.00     0.032 A 
HETATM   29  C   UNL     1       7.495  29.019  57.908  1.00  0.00     0.044 A 
HETATM   30  C   UNL     1       6.718  29.824  57.085  1.00  0.00     0.116 A 
HETATM   31  F   UNL     1       6.348  31.040  57.505  1.00  0.00    -0.206 F 
HETATM   32  C   UNL     1       6.318  29.380  55.832  1.00  0.00     0.044 A 
HETATM   33  C   UNL     1       6.706  28.111  55.394  1.00  0.00     0.032 A 
ENDBRANCH  24  27
ENDBRANCH   3  23
TORSDOF 6
ENDMDL
MODEL 9
REMARK VINA RESULT:      -9.1      3.763      9.115
REMARK  6 active torsions:
REMARK  status: ('A' for Active; 'I' for Inactive)
REMARK    1  A    between atoms: C_3  and  C_4 
REMARK       I    between atoms: C_4  and  N_5 
REMARK    2  A    between atoms: N_5  and  C_6 
REMARK    3  A    between atoms: C_14  and  N_15 
REMARK       I    between atoms: N_15  and  C_16 
REMARK    4  A    between atoms: C_16  and  C_17 
REMARK    5  A    between atoms: C_17  and  S_18 
REMARK    6  A    between atoms: S_18  and  C_19 
ROOT
HETATM    1  C   UNL     1       2.560  32.090  55.657  1.00  0.00     0.001 A 
HETATM    2  C   UNL     1       3.465  31.739  56.657  1.00  0.00     0.019 A 
HETATM    3  C   UNL     1       4.572  30.918  56.364  1.00  0.00     0.059 A 
HETATM    4  C   UNL     1       4.743  30.397  55.061  1.00  0.00     0.050 A 
HETATM    5  C   UNL     1       3.827  30.776  54.070  1.00  0.00     0.030 A 
HETATM    6  C   UNL     1       2.751  31.618  54.364  1.00  0.00     0.002 A 
ENDROOT
BRANCH   4   7
HETATM    7  N   UNL     1       5.797  29.487  54.799  1.00  0.00    -0.326 N 
HETATM    8  C   UNL     1       5.720  28.131  54.562  1.00  0.00     0.231 C 
HETATM    9  O   UNL     1       4.668  27.501  54.431  1.00  0.00    -0.272 OA
HETATM   10  H   UNL     1       6.735  29.897  54.811  1.00  0.00     0.169 HD
BRANCH   8  11
HETATM   11  C   UNL     1       7.041  27.373  54.508  1.00  0.00     0.185 C 
BRANCH  11  12
HETATM   12  S   UNL     1       7.445  26.423  56.000  1.00  0.00    -0.083 SA
BRANCH  12  13
HETATM   13  C   UNL     1       7.644  24.847  55.332  1.00  0.00     0.168 A 
HETATM   14  N   UNL     1       7.771  24.537  54.066  1.00  0.00    -0.223 NA
HETATM   15  C   UNL     1       7.826  23.164  54.051  1.00  0.00     0.086 A 
HETATM   16  C   UNL     1       7.756  22.644  55.342  1.00  0.00     0.063 A 
HETATM   17  C   UNL     1       7.939  22.283  52.966  1.00  0.00     0.034 A 
HETATM   18  N   UNL     1       7.629  23.751  56.141  1.00  0.00    -0.333 N 
HETATM   19  C   UNL     1       7.803  21.277  55.623  1.00  0.00     0.032 A 
HETATM   20  H   UNL     1       7.523  23.766  57.143  1.00  0.00     0.168 HD
HETATM   21  C   UNL     1       7.920  20.415  54.525  1.00  0.00     0.002 A 
HETATM   22  C   UNL     1       7.984  20.906  53.218  1.00  0.00     0.002 A 
ENDBRANCH  12  13
ENDBRANCH  11  12
ENDBRANCH   8  11
ENDBRANCH   4   7
BRANCH   3  23
HETATM   23  C   UNL     1       5.567  30.631  57.445  1.00  0.00     0.258 C 
HETATM   24  N   UNL     1       6.244  31.739  57.928  1.00  0.00    -0.323 N 
HETATM   25  H   UNL     1       6.114  32.610  57.428  1.00  0.00     0.169 HD
HETATM   26  O   UNL     1       5.760  29.469  57.782  1.00  0.00    -0.267 OA
BRANCH  24  27
HETATM   27  C   UNL     1       7.186  31.774  58.977  1.00  0.00     0.035 A 
HETATM   28  C   UNL     1       6.897  32.221  60.271  1.00  0.00     0.032 A 
HETATM   29  C   UNL     1       7.890  32.228  61.255  1.00  0.00     0.044 A 
HETATM   30  C   UNL     1       9.172  31.794  60.944  1.00  0.00     0.116 A 
HETATM   31  F   UNL     1      10.121  31.802  61.888  1.00  0.00    -0.206 F 
HETATM   32  C   UNL     1       9.481  31.354  59.664  1.00  0.00     0.044 A 
HETATM   33  C   UNL     1       8.489  31.347  58.680  1.00  0.00     0.032 A 
ENDBRANCH  24  27
ENDBRANCH   3  23
TORSDOF 6
ENDMDL
MODEL 10
REMARK VINA RESULT:      -8.9      2.385      3.434
REMARK  6 active torsions:
REMARK  status: ('A' for Active; 'I' for Inactive)
REMARK    1  A    between atoms: C_3  and  C_4 
REMARK       I    between atoms: C_4  and  N_5 
REMARK    2  A    between atoms: N_5  and  C_6 
REMARK    3  A    between atoms: C_14  and  N_15 
REMARK       I    between atoms: N_15  and  C_16 
REMARK    4  A    between atoms: C_16  and  C_17 
REMARK    5  A    between atoms: C_17  and  S_18 
REMARK    6  A    between atoms: S_18  and  C_19 
ROOT
HETATM    1  C   UNL     1       7.714  22.518  55.459  1.00  0.00     0.001 A 
HETATM    2  C   UNL     1       6.877  23.376  54.747  1.00  0.00     0.019 A 
HETATM    3  C   UNL     1       6.940  24.768  54.951  1.00  0.00     0.059 A 
HETATM    4  C   UNL     1       7.817  25.303  55.922  1.00  0.00     0.050 A 
HETATM    5  C   UNL     1       8.657  24.422  56.615  1.00  0.00     0.030 A 
HETATM    6  C   UNL     1       8.610  23.044  56.381  1.00  0.00     0.002 A 
ENDROOT
BRANCH   4   7
HETATM    7  N   UNL     1       7.799  26.694  56.198  1.00  0.00    -0.326 N 
HETATM    8  C   UNL     1       7.666  27.324  57.417  1.00  0.00     0.231 C 
HETATM    9  O   UNL     1       7.651  26.748  58.507  1.00  0.00    -0.272 OA
HETATM   10  H   UNL     1       7.872  27.298  55.375  1.00  0.00     0.169 HD
BRANCH   8  11
HETATM   11  C   UNL     1       7.482  28.837  57.384  1.00  0.00     0.185 C 
BRANCH  11  12
HETATM   12  S   UNL     1       8.948  29.801  57.847  1.00  0.00    -0.083 SA
BRANCH  12  13
HETATM   13  C   UNL     1       8.356  30.641  59.230  1.00  0.00     0.168 A 
HETATM   14  N   UNL     1       7.261  31.354  59.311  1.00  0.00    -0.223 NA
HETATM   15  C   UNL     1       7.276  31.867  60.586  1.00  0.00     0.086 A 
HETATM   16  C   UNL     1       8.395  31.428  61.291  1.00  0.00     0.063 A 
HETATM   17  C   UNL     1       6.362  32.720  61.219  1.00  0.00     0.034 A 
HETATM   18  N   UNL     1       9.073  30.650  60.388  1.00  0.00    -0.333 N 
HETATM   19  C   UNL     1       8.657  31.784  62.615  1.00  0.00     0.032 A 
HETATM   20  H   UNL     1       9.954  30.181  60.533  1.00  0.00     0.168 HD
HETATM   21  C   UNL     1       7.729  32.634  63.230  1.00  0.00     0.002 A 
HETATM   22  C   UNL     1       6.602  33.098  62.546  1.00  0.00     0.002 A 
ENDBRANCH  12  13
ENDBRANCH  11  12
ENDBRANCH   8  11
ENDBRANCH   4   7
BRANCH   3  23
HETATM   23  C   UNL     1       6.085  25.663  54.109  1.00  0.00     0.258 C 
HETATM   24  N   UNL     1       6.484  25.783  52.788  1.00  0.00    -0.323 N 
HETATM   25  H   UNL     1       7.378  25.376  52.540  1.00  0.00     0.169 HD
HETATM   26  O   UNL     1       5.154  26.262  54.634  1.00  0.00    -0.267 OA
BRANCH  24  27
HETATM   27  C   UNL     1       5.839  26.504  51.762  1.00  0.00     0.035 A 
HETATM   28  C   UNL     1       5.166  25.906  50.692  1.00  0.00     0.032 A 
HETATM   29  C   UNL     1       4.555  26.694  49.712  1.00  0.00     0.044 A 
HETATM   30  C   UNL     1       4.622  28.078  49.799  1.00  0.00     0.116 A 
HETATM   31  F   UNL     1       4.036  28.831  48.860  1.00  0.00    -0.206 F 
HETATM   32  C   UNL     1       5.293  28.691  50.849  1.00  0.00     0.044 A 
HETATM   33  C   UNL     1       5.904  27.904  51.829  1.00  0.00     0.032 A 
ENDBRANCH  24  27
ENDBRANCH   3  23
TORSDOF 6
ENDMDL
