MODEL 1
REMARK VINA RESULT:     -10.5      0.000      0.000
REMARK  5 active torsions:
REMARK  status: ('A' for Active; 'I' for Inactive)
REMARK    1  A    between atoms: C_3  and  O_4 
REMARK    2  A    between atoms: C_8  and  C_9 
REMARK       I    between atoms: N_10  and  C_11 
REMARK    3  A    between atoms: C_11  and  C_12 
REMARK    4  A    between atoms: C_12  and  C_13 
REMARK    5  A    between atoms: C_13  and  C_14 
ROOT
HETATM    1  C   UNL     1       6.628  27.318  53.898  1.00  0.00     0.171 C 
HETATM    2  N   UNL     1       6.075  28.244  54.923  1.00  0.00    -0.338 N 
HETATM    3  C   UNL     1       6.857  28.953  55.831  1.00  0.00     0.221 C 
HETATM    4  O   UNL     1       6.356  29.701  56.672  1.00  0.00    -0.273 OA
HETATM    5  C   UNL     1       4.607  28.451  54.944  1.00  0.00     0.131 C 
HETATM    6  C   UNL     1       4.077  28.990  53.604  1.00  0.00     0.061 C 
HETATM    7  C   UNL     1       4.622  28.158  52.498  1.00  0.00    -0.019 A 
HETATM    8  C   UNL     1       5.760  27.391  52.671  1.00  0.00     0.044 A 
HETATM    9  N   UNL     1       6.009  26.749  51.486  1.00  0.00    -0.356 N 
HETATM   10  H   UNL     1       6.766  26.104  51.311  1.00  0.00     0.166 HD
HETATM   11  C   UNL     1       5.088  27.135  50.536  1.00  0.00     0.043 A 
HETATM   12  C   UNL     1       4.196  28.014  51.152  1.00  0.00    -0.001 A 
HETATM   13  C   UNL     1       4.986  26.778  49.186  1.00  0.00     0.030 A 
HETATM   14  C   UNL     1       3.944  27.341  48.444  1.00  0.00     0.002 A 
HETATM   15  C   UNL     1       3.036  28.218  49.033  1.00  0.00     0.001 A 
HETATM   16  C   UNL     1       3.148  28.562  50.385  1.00  0.00     0.014 A 
ENDROOT
BRANCH   1  17
HETATM   17  C   UNL     1       6.863  25.897  54.404  1.00  0.00    -0.029 A 
HETATM   18  C   UNL     1       6.650  25.510  55.733  1.00  0.00     0.012 A 
HETATM   19  C   UNL     1       6.859  24.190  56.148  1.00  0.00     0.038 A 
HETATM   20  C   UNL     1       7.279  23.216  55.241  1.00  0.00     0.074 A 
HETATM   21  C   UNL     1       7.502  23.577  53.903  1.00  0.00    -0.028 A 
HETATM   22  C   UNL     1       7.986  22.565  52.899  1.00  0.00     0.051 C 
HETATM   23  C   UNL     1       7.309  24.911  53.503  1.00  0.00     0.019 A 
BRANCH  20  24
HETATM   24  O   UNL     1       7.516  21.904  55.558  1.00  0.00    -0.355 OA
HETATM   25  C   UNL     1       8.361  21.647  56.672  1.00  0.00     0.210 C 
ENDBRANCH  20  24
ENDBRANCH   1  17
BRANCH   3  26
HETATM   26  C   UNL     1       8.368  28.835  55.687  1.00  0.00     0.108 C 
BRANCH  26  27
HETATM   27  C   UNL     1       9.095  28.626  57.014  1.00  0.00     0.051 C 
BRANCH  27  28
HETATM   28  C   UNL     1       9.354  29.874  57.792  1.00  0.00    -0.021 A 
HETATM   29  C   UNL     1       8.765  30.316  58.960  1.00  0.00     0.120 A 
HETATM   30  N   UNL     1       9.383  31.489  59.283  1.00  0.00    -0.285 N 
HETATM   31  C   UNL     1       9.116  32.325  60.427  1.00  0.00     0.179 C 
HETATM   32  N   UNL     1      10.350  31.840  58.418  1.00  0.00    -0.185 NA
HETATM   33  C   UNL     1      10.322  30.865  57.506  1.00  0.00     0.147 A 
ENDBRANCH  27  28
ENDBRANCH  26  27
ENDBRANCH   3  26
TORSDOF 5
ENDMDL
MODEL 2
REMARK VINA RESULT:      -9.6      4.405      8.961
REMARK  5 active torsions:
REMARK  status: ('A' for Active; 'I' for Inactive)
REMARK    1  A    between atoms: C_3  and  O_4 
REMARK    2  A    between atoms: C_8  and  C_9 
REMARK       I    between atoms: N_10  and  C_11 
REMARK    3  A    between atoms: C_11  and  C_12 
REMARK    4  A    between atoms: C_12  and  C_13 
REMARK    5  A    between atoms: C_13  and  C_14 
ROOT
HETATM    1  C   UNL     1       6.799  31.184  59.530  1.00  0.00     0.171 C 
HETATM    2  N   UNL     1       8.222  31.512  59.812  1.00  0.00    -0.338 N 
HETATM    3  C   UNL     1       8.712  31.814  61.079  1.00  0.00     0.221 C 
HETATM    4  O   UNL     1       9.898  32.093  61.267  1.00  0.00    -0.273 OA
HETATM    5  C   UNL     1       9.176  31.472  58.678  1.00  0.00     0.131 C 
HETATM    6  C   UNL     1       9.220  30.090  58.004  1.00  0.00     0.061 C 
HETATM    7  C   UNL     1       7.829  29.642  57.727  1.00  0.00    -0.019 A 
HETATM    8  C   UNL     1       6.753  30.177  58.413  1.00  0.00     0.044 A 
HETATM    9  N   UNL     1       5.620  29.567  57.943  1.00  0.00    -0.356 N 
HETATM   10  H   UNL     1       4.676  29.763  58.243  1.00  0.00     0.166 HD
HETATM   11  C   UNL     1       5.950  28.607  57.011  1.00  0.00     0.043 A 
HETATM   12  C   UNL     1       7.336  28.642  56.848  1.00  0.00    -0.001 A 
HETATM   13  C   UNL     1       5.130  27.713  56.311  1.00  0.00     0.030 A 
HETATM   14  C   UNL     1       5.747  26.828  55.424  1.00  0.00     0.002 A 
HETATM   15  C   UNL     1       7.128  26.842  55.238  1.00  0.00     0.001 A 
HETATM   16  C   UNL     1       7.934  27.745  55.942  1.00  0.00     0.014 A 
ENDROOT
BRANCH   1  17
HETATM   17  C   UNL     1       5.912  32.405  59.295  1.00  0.00    -0.029 A 
HETATM   18  C   UNL     1       5.550  32.856  58.020  1.00  0.00     0.012 A 
HETATM   19  C   UNL     1       4.717  33.969  57.853  1.00  0.00     0.038 A 
HETATM   20  C   UNL     1       4.215  34.657  58.959  1.00  0.00     0.074 A 
HETATM   21  C   UNL     1       4.564  34.227  60.249  1.00  0.00    -0.028 A 
HETATM   22  C   UNL     1       4.072  34.958  61.468  1.00  0.00     0.051 C 
HETATM   23  C   UNL     1       5.419  33.121  60.403  1.00  0.00     0.019 A 
BRANCH  20  24
HETATM   24  O   UNL     1       3.402  35.757  58.891  1.00  0.00    -0.355 OA
HETATM   25  C   UNL     1       3.917  36.907  58.232  1.00  0.00     0.210 C 
ENDBRANCH  20  24
ENDBRANCH   1  17
BRANCH   3  26
HETATM   26  C   UNL     1       7.740  31.701  62.245  1.00  0.00     0.108 C 
BRANCH  26  27
HETATM   27  C   UNL     1       8.045  32.663  63.392  1.00  0.00     0.051 C 
BRANCH  27  28
HETATM   28  C   UNL     1       6.874  33.004  64.254  1.00  0.00    -0.021 A 
HETATM   29  C   UNL     1       6.834  33.721  65.434  1.00  0.00     0.120 A 
HETATM   30  N   UNL     1       5.522  33.787  65.800  1.00  0.00    -0.285 N 
HETATM   31  C   UNL     1       4.977  34.442  66.964  1.00  0.00     0.179 C 
HETATM   32  N   UNL     1       4.693  33.179  64.934  1.00  0.00    -0.185 NA
HETATM   33  C   UNL     1       5.517  32.693  64.002  1.00  0.00     0.147 A 
ENDBRANCH  27  28
ENDBRANCH  26  27
ENDBRANCH   3  26
TORSDOF 5
ENDMDL
MODEL 3
REMARK VINA RESULT:      -9.3      8.045     12.787
REMARK  5 active torsions:
REMARK  status: ('A' for Active; 'I' for Inactive)
REMARK    1  A    between atoms: C_3  and  O_4 
REMARK    2  A    between atoms: C_8  and  C_9 
REMARK       I    between atoms: N_10  and  C_11 
REMARK    3  A    between atoms: C_11  and  C_12 
REMARK    4  A    between atoms: C_12  and  C_13 
REMARK    5  A    between atoms: C_13  and  C_14 
ROOT
HETATM    1  C   UNL     1       5.179  35.402  62.496  1.00  0.00     0.171 C 
HETATM    2  N   UNL     1       4.690  34.847  63.786  1.00  0.00    -0.338 N 
HETATM    3  C   UNL     1       4.841  33.517  64.166  1.00  0.00     0.221 C 
HETATM    4  O   UNL     1       4.409  33.096  65.241  1.00  0.00    -0.273 OA
HETATM    5  C   UNL     1       4.041  35.783  64.737  1.00  0.00     0.131 C 
HETATM    6  C   UNL     1       4.971  36.941  65.136  1.00  0.00     0.061 C 
HETATM    7  C   UNL     1       5.561  37.535  63.906  1.00  0.00    -0.019 A 
HETATM    8  C   UNL     1       5.614  36.824  62.721  1.00  0.00     0.044 A 
HETATM    9  N   UNL     1       6.209  37.628  61.784  1.00  0.00    -0.356 N 
HETATM   10  H   UNL     1       6.371  37.389  60.817  1.00  0.00     0.166 HD
HETATM   11  C   UNL     1       6.595  38.820  62.359  1.00  0.00     0.043 A 
HETATM   12  C   UNL     1       6.188  38.791  63.694  1.00  0.00    -0.001 A 
HETATM   13  C   UNL     1       7.274  39.909  61.800  1.00  0.00     0.030 A 
HETATM   14  C   UNL     1       7.550  40.997  62.633  1.00  0.00     0.002 A 
HETATM   15  C   UNL     1       7.152  40.998  63.969  1.00  0.00     0.001 A 
HETATM   16  C   UNL     1       6.469  39.903  64.511  1.00  0.00     0.014 A 
ENDROOT
BRANCH   1  17
HETATM   17  C   UNL     1       4.202  35.233  61.334  1.00  0.00    -0.029 A 
HETATM   18  C   UNL     1       2.987  35.923  61.246  1.00  0.00     0.012 A 
HETATM   19  C   UNL     1       2.132  35.752  60.151  1.00  0.00     0.038 A 
HETATM   20  C   UNL     1       2.473  34.890  59.108  1.00  0.00     0.074 A 
HETATM   21  C   UNL     1       3.684  34.184  59.172  1.00  0.00    -0.028 A 
HETATM   22  C   UNL     1       4.076  33.221  58.084  1.00  0.00     0.051 C 
HETATM   23  C   UNL     1       4.525  34.349  60.286  1.00  0.00     0.019 A 
BRANCH  20  24
HETATM   24  O   UNL     1       1.696  34.656  58.004  1.00  0.00    -0.355 OA
HETATM   25  C   UNL     1       1.279  35.786  57.249  1.00  0.00     0.210 C 
ENDBRANCH  20  24
ENDBRANCH   1  17
BRANCH   3  26
HETATM   26  C   UNL     1       5.641  32.616  63.236  1.00  0.00     0.108 C 
BRANCH  26  27
HETATM   27  C   UNL     1       7.152  32.712  63.441  1.00  0.00     0.051 C 
BRANCH  27  28
HETATM   28  C   UNL     1       7.974  32.085  62.363  1.00  0.00    -0.021 A 
HETATM   29  C   UNL     1       8.277  32.561  61.103  1.00  0.00     0.120 A 
HETATM   30  N   UNL     1       9.093  31.633  60.526  1.00  0.00    -0.285 N 
HETATM   31  C   UNL     1       9.679  31.690  59.209  1.00  0.00     0.179 C 
HETATM   32  N   UNL     1       9.363  30.587  61.326  1.00  0.00    -0.185 NA
HETATM   33  C   UNL     1       8.672  30.856  62.436  1.00  0.00     0.147 A 
ENDBRANCH  27  28
ENDBRANCH  26  27
ENDBRANCH   3  26
TORSDOF 5
ENDMDL
MODEL 4
REMARK VINA RESULT:      -9.1      4.616      7.994
REMARK  5 active torsions:
REMARK  status: ('A' for Active; 'I' for Inactive)
REMARK    1  A    between atoms: C_3  and  O_4 
REMARK    2  A    between atoms: C_8  and  C_9 
REMARK       I    between atoms: N_10  and  C_11 
REMARK    3  A    between atoms: C_11  and  C_12 
REMARK    4  A    between atoms: C_12  and  C_13 
REMARK    5  A    between atoms: C_13  and  C_14 
ROOT
HETATM    1  C   UNL     1       6.712  30.634  58.276  1.00  0.00     0.171 C 
HETATM    2  N   UNL     1       8.100  31.156  58.381  1.00  0.00    -0.338 N 
HETATM    3  C   UNL     1       8.523  32.045  59.365  1.00  0.00     0.221 C 
HETATM    4  O   UNL     1       9.682  32.463  59.407  1.00  0.00    -0.273 OA
HETATM    5  C   UNL     1       9.097  30.663  57.400  1.00  0.00     0.131 C 
HETATM    6  C   UNL     1       9.251  29.133  57.446  1.00  0.00     0.061 C 
HETATM    7  C   UNL     1       7.900  28.510  57.403  1.00  0.00    -0.019 A 
HETATM    8  C   UNL     1       6.770  29.223  57.756  1.00  0.00     0.044 A 
HETATM    9  N   UNL     1       5.694  28.385  57.617  1.00  0.00    -0.356 N 
HETATM   10  H   UNL     1       4.729  28.630  57.787  1.00  0.00     0.166 HD
HETATM   11  C   UNL     1       6.117  27.129  57.240  1.00  0.00     0.043 A 
HETATM   12  C   UNL     1       7.503  27.184  57.087  1.00  0.00    -0.001 A 
HETATM   13  C   UNL     1       5.380  25.957  57.032  1.00  0.00     0.030 A 
HETATM   14  C   UNL     1       6.083  24.808  56.661  1.00  0.00     0.002 A 
HETATM   15  C   UNL     1       7.466  24.833  56.497  1.00  0.00     0.001 A 
HETATM   16  C   UNL     1       8.188  26.014  56.705  1.00  0.00     0.014 A 
ENDROOT
BRANCH   1  17
HETATM   17  C   UNL     1       5.762  31.540  57.496  1.00  0.00    -0.029 A 
HETATM   18  C   UNL     1       5.497  31.381  56.131  1.00  0.00     0.012 A 
HETATM   19  C   UNL     1       4.602  32.223  55.460  1.00  0.00     0.038 A 
HETATM   20  C   UNL     1       3.939  33.245  56.142  1.00  0.00     0.074 A 
HETATM   21  C   UNL     1       4.187  33.428  57.511  1.00  0.00    -0.028 A 
HETATM   22  C   UNL     1       3.517  34.537  58.277  1.00  0.00     0.051 C 
HETATM   23  C   UNL     1       5.104  32.588  58.168  1.00  0.00     0.019 A 
BRANCH  20  24
HETATM   24  O   UNL     1       3.054  34.119  55.568  1.00  0.00    -0.355 OA
HETATM   25  C   UNL     1       1.845  33.577  55.052  1.00  0.00     0.210 C 
ENDBRANCH  20  24
ENDBRANCH   1  17
BRANCH   3  26
HETATM   26  C   UNL     1       7.516  32.416  60.445  1.00  0.00     0.108 C 
BRANCH  26  27
HETATM   27  C   UNL     1       8.017  32.155  61.864  1.00  0.00     0.051 C 
BRANCH  27  28
HETATM   28  C   UNL     1       7.035  32.467  62.944  1.00  0.00    -0.021 A 
HETATM   29  C   UNL     1       7.181  33.272  64.057  1.00  0.00     0.120 A 
HETATM   30  N   UNL     1       5.980  33.258  64.704  1.00  0.00    -0.285 N 
HETATM   31  C   UNL     1       5.640  33.958  65.918  1.00  0.00     0.179 C 
HETATM   32  N   UNL     1       5.047  32.516  64.084  1.00  0.00    -0.185 NA
HETATM   33  C   UNL     1       5.693  32.025  63.023  1.00  0.00     0.147 A 
ENDBRANCH  27  28
ENDBRANCH  26  27
ENDBRANCH   3  26
TORSDOF 5
ENDMDL
MODEL 5
REMARK VINA RESULT:      -9.0      5.475      9.453
REMARK  5 active torsions:
REMARK  status: ('A' for Active; 'I' for Inactive)
REMARK    1  A    between atoms: C_3  and  O_4 
REMARK    2  A    between atoms: C_8  and  C_9 
REMARK       I    between atoms: N_10  and  C_11 
REMARK    3  A    between atoms: C_11  and  C_12 
REMARK    4  A    between atoms: C_12  and  C_13 
REMARK    5  A    between atoms: C_13  and  C_14 
ROOT
HETATM    1  C   UNL     1       5.389  32.849  59.003  1.00  0.00     0.171 C 
HETATM    2  N   UNL     1       4.100  32.899  58.263  1.00  0.00    -0.338 N 
HETATM    3  C   UNL     1       3.414  34.075  57.977  1.00  0.00     0.221 C 
HETATM    4  O   UNL     1       2.340  34.070  57.372  1.00  0.00    -0.273 OA
HETATM    5  C   UNL     1       3.539  31.618  57.768  1.00  0.00     0.131 C 
HETATM    6  C   UNL     1       4.507  30.890  56.820  1.00  0.00     0.061 C 
HETATM    7  C   UNL     1       5.854  30.835  57.449  1.00  0.00    -0.019 A 
HETATM    8  C   UNL     1       6.212  31.716  58.453  1.00  0.00     0.044 A 
HETATM    9  N   UNL     1       7.498  31.420  58.821  1.00  0.00    -0.356 N 
HETATM   10  H   UNL     1       8.027  31.884  59.546  1.00  0.00     0.166 HD
HETATM   11  C   UNL     1       7.996  30.406  58.032  1.00  0.00     0.043 A 
HETATM   12  C   UNL     1       6.975  30.012  57.165  1.00  0.00    -0.001 A 
HETATM   13  C   UNL     1       9.267  29.819  58.017  1.00  0.00     0.030 A 
HETATM   14  C   UNL     1       9.501  28.804  57.086  1.00  0.00     0.002 A 
HETATM   15  C   UNL     1       8.499  28.387  56.211  1.00  0.00     0.001 A 
HETATM   16  C   UNL     1       7.232  28.980  56.242  1.00  0.00     0.014 A 
ENDROOT
BRANCH   1  17
HETATM   17  C   UNL     1       5.236  32.820  60.522  1.00  0.00    -0.029 A 
HETATM   18  C   UNL     1       4.012  32.604  61.166  1.00  0.00     0.012 A 
HETATM   19  C   UNL     1       3.922  32.564  62.562  1.00  0.00     0.038 A 
HETATM   20  C   UNL     1       5.059  32.732  63.354  1.00  0.00     0.074 A 
HETATM   21  C   UNL     1       6.299  32.952  62.735  1.00  0.00    -0.028 A 
HETATM   22  C   UNL     1       7.544  33.170  63.552  1.00  0.00     0.051 C 
HETATM   23  C   UNL     1       6.372  33.010  61.332  1.00  0.00     0.019 A 
BRANCH  20  24
HETATM   24  O   UNL     1       5.065  32.716  64.724  1.00  0.00    -0.355 OA
HETATM   25  C   UNL     1       4.425  33.798  65.390  1.00  0.00     0.210 C 
ENDBRANCH  20  24
ENDBRANCH   1  17
BRANCH   3  26
HETATM   26  C   UNL     1       4.087  35.384  58.367  1.00  0.00     0.108 C 
BRANCH  26  27
HETATM   27  C   UNL     1       3.228  36.270  59.267  1.00  0.00     0.051 C 
BRANCH  27  28
HETATM   28  C   UNL     1       3.621  36.272  60.708  1.00  0.00    -0.021 A 
HETATM   29  C   UNL     1       4.843  36.558  61.282  1.00  0.00     0.120 A 
HETATM   30  N   UNL     1       4.668  36.459  62.631  1.00  0.00    -0.285 N 
HETATM   31  C   UNL     1       5.661  36.676  63.655  1.00  0.00     0.179 C 
HETATM   32  N   UNL     1       3.410  36.145  62.986  1.00  0.00    -0.185 NA
HETATM   33  C   UNL     1       2.778  36.019  61.816  1.00  0.00     0.147 A 
ENDBRANCH  27  28
ENDBRANCH  26  27
ENDBRANCH   3  26
TORSDOF 5
ENDMDL
MODEL 6
REMARK VINA RESULT:      -8.9      2.963      5.896
REMARK  5 active torsions:
REMARK  status: ('A' for Active; 'I' for Inactive)
REMARK    1  A    between atoms: C_3  and  O_4 
REMARK    2  A    between atoms: C_8  and  C_9 
REMARK       I    between atoms: N_10  and  C_11 
REMARK    3  A    between atoms: C_11  and  C_12 
REMARK    4  A    between atoms: C_12  and  C_13 
REMARK    5  A    between atoms: C_13  and  C_14 
ROOT
HETATM    1  C   UNL     1       4.882  28.325  53.413  1.00  0.00     0.171 C 
HETATM    2  N   UNL     1       5.100  27.766  52.052  1.00  0.00    -0.338 N 
HETATM    3  C   UNL     1       5.099  26.405  51.762  1.00  0.00     0.221 C 
HETATM    4  O   UNL     1       5.297  25.984  50.621  1.00  0.00    -0.273 OA
HETATM    5  C   UNL     1       5.289  28.724  50.936  1.00  0.00     0.131 C 
HETATM    6  C   UNL     1       4.091  29.676  50.780  1.00  0.00     0.061 C 
HETATM    7  C   UNL     1       3.753  30.252  52.110  1.00  0.00    -0.019 A 
HETATM    8  C   UNL     1       4.150  29.632  53.281  1.00  0.00     0.044 A 
HETATM    9  N   UNL     1       3.690  30.392  54.325  1.00  0.00    -0.356 N 
HETATM   10  H   UNL     1       3.840  30.201  55.306  1.00  0.00     0.166 HD
HETATM   11  C   UNL     1       2.954  31.455  53.850  1.00  0.00     0.043 A 
HETATM   12  C   UNL     1       2.987  31.396  52.455  1.00  0.00    -0.001 A 
HETATM   13  C   UNL     1       2.261  32.452  54.547  1.00  0.00     0.030 A 
HETATM   14  C   UNL     1       1.579  33.413  53.796  1.00  0.00     0.002 A 
HETATM   15  C   UNL     1       1.598  33.382  52.402  1.00  0.00     0.001 A 
HETATM   16  C   UNL     1       2.299  32.381  51.720  1.00  0.00     0.014 A 
ENDROOT
BRANCH   1  17
HETATM   17  C   UNL     1       6.147  28.409  54.263  1.00  0.00    -0.029 A 
HETATM   18  C   UNL     1       7.434  28.220  53.745  1.00  0.00     0.012 A 
HETATM   19  C   UNL     1       8.568  28.328  54.558  1.00  0.00     0.038 A 
HETATM   20  C   UNL     1       8.447  28.638  55.914  1.00  0.00     0.074 A 
HETATM   21  C   UNL     1       7.169  28.831  56.460  1.00  0.00    -0.028 A 
HETATM   22  C   UNL     1       6.990  29.136  57.923  1.00  0.00     0.051 C 
HETATM   23  C   UNL     1       6.036  28.699  55.637  1.00  0.00     0.019 A 
BRANCH  20  24
HETATM   24  O   UNL     1       9.498  28.756  56.784  1.00  0.00    -0.355 OA
HETATM   25  C   UNL     1      10.486  29.732  56.482  1.00  0.00     0.210 C 
ENDBRANCH  20  24
ENDBRANCH   1  17
BRANCH   3  26
HETATM   26  C   UNL     1       4.755  25.453  52.900  1.00  0.00     0.108 C 
BRANCH  26  27
HETATM   27  C   UNL     1       5.928  24.581  53.345  1.00  0.00     0.051 C 
BRANCH  27  28
HETATM   28  C   UNL     1       6.379  24.804  54.751  1.00  0.00    -0.021 A 
HETATM   29  C   UNL     1       7.655  24.775  55.276  1.00  0.00     0.120 A 
HETATM   30  N   UNL     1       7.534  25.085  56.600  1.00  0.00    -0.285 N 
HETATM   31  C   UNL     1       8.598  25.187  57.568  1.00  0.00     0.179 C 
HETATM   32  N   UNL     1       6.268  25.332  56.977  1.00  0.00    -0.185 NA
HETATM   33  C   UNL     1       5.566  25.148  55.857  1.00  0.00     0.147 A 
ENDBRANCH  27  28
ENDBRANCH  26  27
ENDBRANCH   3  26
TORSDOF 5
ENDMDL
MODEL 7
REMARK VINA RESULT:      -8.9      8.987     12.933
REMARK  5 active torsions:
REMARK  status: ('A' for Active; 'I' for Inactive)
REMARK    1  A    between atoms: C_3  and  O_4 
REMARK    2  A    between atoms: C_8  and  C_9 
REMARK       I    between atoms: N_10  and  C_11 
REMARK    3  A    between atoms: C_11  and  C_12 
REMARK    4  A    between atoms: C_12  and  C_13 
REMARK    5  A    between atoms: C_13  and  C_14 
ROOT
HETATM    1  C   UNL     1       5.767  35.300  63.805  1.00  0.00     0.171 C 
HETATM    2  N   UNL     1       4.416  34.962  64.327  1.00  0.00    -0.338 N 
HETATM    3  C   UNL     1       4.181  34.448  65.598  1.00  0.00     0.221 C 
HETATM    4  O   UNL     1       3.045  34.169  65.987  1.00  0.00    -0.273 OA
HETATM    5  C   UNL     1       3.251  35.230  63.449  1.00  0.00     0.131 C 
HETATM    6  C   UNL     1       3.155  36.712  63.048  1.00  0.00     0.061 C 
HETATM    7  C   UNL     1       4.484  37.169  62.559  1.00  0.00    -0.019 A 
HETATM    8  C   UNL     1       5.643  36.492  62.895  1.00  0.00     0.044 A 
HETATM    9  N   UNL     1       6.690  37.149  62.303  1.00  0.00    -0.356 N 
HETATM   10  H   UNL     1       7.662  36.878  62.354  1.00  0.00     0.166 HD
HETATM   11  C   UNL     1       6.234  38.269  61.643  1.00  0.00     0.043 A 
HETATM   12  C   UNL     1       4.845  38.299  61.780  1.00  0.00    -0.001 A 
HETATM   13  C   UNL     1       6.945  39.254  60.947  1.00  0.00     0.030 A 
HETATM   14  C   UNL     1       6.215  40.301  60.380  1.00  0.00     0.002 A 
HETATM   15  C   UNL     1       4.827  40.355  60.496  1.00  0.00     0.001 A 
HETATM   16  C   UNL     1       4.130  39.360  61.192  1.00  0.00     0.014 A 
ENDROOT
BRANCH   1  17
HETATM   17  C   UNL     1       6.507  34.121  63.178  1.00  0.00    -0.029 A 
HETATM   18  C   UNL     1       7.480  33.377  63.857  1.00  0.00     0.012 A 
HETATM   19  C   UNL     1       8.118  32.289  63.250  1.00  0.00     0.038 A 
HETATM   20  C   UNL     1       7.793  31.909  61.947  1.00  0.00     0.074 A 
HETATM   21  C   UNL     1       6.823  32.638  61.243  1.00  0.00    -0.028 A 
HETATM   22  C   UNL     1       6.466  32.283  59.824  1.00  0.00     0.051 C 
HETATM   23  C   UNL     1       6.204  33.742  61.856  1.00  0.00     0.019 A 
BRANCH  20  24
HETATM   24  O   UNL     1       8.370  30.866  61.272  1.00  0.00    -0.355 OA
HETATM   25  C   UNL     1       9.486  30.233  61.884  1.00  0.00     0.210 C 
ENDBRANCH  20  24
ENDBRANCH   1  17
BRANCH   3  26
HETATM   26  C   UNL     1       5.380  34.323  66.529  1.00  0.00     0.108 C 
BRANCH  26  27
HETATM   27  C   UNL     1       4.999  34.158  67.999  1.00  0.00     0.051 C 
BRANCH  27  28
HETATM   28  C   UNL     1       6.148  34.174  68.952  1.00  0.00    -0.021 A 
HETATM   29  C   UNL     1       6.302  33.508  70.151  1.00  0.00     0.120 A 
HETATM   30  N   UNL     1       7.546  33.824  70.612  1.00  0.00    -0.285 N 
HETATM   31  C   UNL     1       8.165  33.361  71.830  1.00  0.00     0.179 C 
HETATM   32  N   UNL     1       8.230  34.639  69.791  1.00  0.00    -0.185 NA
HETATM   33  C   UNL     1       7.375  34.862  68.789  1.00  0.00     0.147 A 
ENDBRANCH  27  28
ENDBRANCH  26  27
ENDBRANCH   3  26
TORSDOF 5
ENDMDL
MODEL 8
REMARK VINA RESULT:      -8.8      7.982     13.227
REMARK  5 active torsions:
REMARK  status: ('A' for Active; 'I' for Inactive)
REMARK    1  A    between atoms: C_3  and  O_4 
REMARK    2  A    between atoms: C_8  and  C_9 
REMARK       I    between atoms: N_10  and  C_11 
REMARK    3  A    between atoms: C_11  and  C_12 
REMARK    4  A    between atoms: C_12  and  C_13 
REMARK    5  A    between atoms: C_13  and  C_14 
ROOT
HETATM    1  C   UNL     1       4.883  35.657  62.228  1.00  0.00     0.171 C 
HETATM    2  N   UNL     1       4.491  34.978  63.492  1.00  0.00    -0.338 N 
HETATM    3  C   UNL     1       4.633  33.612  63.715  1.00  0.00     0.221 C 
HETATM    4  O   UNL     1       4.284  33.088  64.775  1.00  0.00    -0.273 OA
HETATM    5  C   UNL     1       3.958  35.820  64.590  1.00  0.00     0.131 C 
HETATM    6  C   UNL     1       4.955  36.909  65.024  1.00  0.00     0.061 C 
HETATM    7  C   UNL     1       5.454  37.618  63.815  1.00  0.00    -0.019 A 
HETATM    8  C   UNL     1       5.380  37.038  62.562  1.00  0.00     0.044 A 
HETATM    9  N   UNL     1       5.916  37.924  61.665  1.00  0.00    -0.356 N 
HETATM   10  H   UNL     1       5.985  37.786  60.667  1.00  0.00     0.166 HD
HETATM   11  C   UNL     1       6.388  39.039  62.324  1.00  0.00     0.043 A 
HETATM   12  C   UNL     1       6.098  38.876  63.680  1.00  0.00    -0.001 A 
HETATM   13  C   UNL     1       7.050  40.166  61.824  1.00  0.00     0.030 A 
HETATM   14  C   UNL     1       7.431  41.152  62.738  1.00  0.00     0.002 A 
HETATM   15  C   UNL     1       7.152  41.018  64.097  1.00  0.00     0.001 A 
HETATM   16  C   UNL     1       6.485  39.887  64.581  1.00  0.00     0.014 A 
ENDROOT
BRANCH   1  17
HETATM   17  C   UNL     1       3.804  35.635  61.148  1.00  0.00    -0.029 A 
HETATM   18  C   UNL     1       4.041  36.004  59.819  1.00  0.00     0.012 A 
HETATM   19  C   UNL     1       3.025  35.948  58.857  1.00  0.00     0.038 A 
HETATM   20  C   UNL     1       1.744  35.512  59.198  1.00  0.00     0.074 A 
HETATM   21  C   UNL     1       1.478  35.138  60.524  1.00  0.00    -0.028 A 
HETATM   22  C   UNL     1       0.103  34.692  60.941  1.00  0.00     0.051 C 
HETATM   23  C   UNL     1       2.501  35.219  61.485  1.00  0.00     0.019 A 
BRANCH  20  24
HETATM   24  O   UNL     1       0.689  35.433  58.327  1.00  0.00    -0.355 OA
HETATM   25  C   UNL     1       0.985  35.510  56.938  1.00  0.00     0.210 C 
ENDBRANCH  20  24
ENDBRANCH   1  17
BRANCH   3  26
HETATM   26  C   UNL     1       5.321  32.798  62.628  1.00  0.00     0.108 C 
BRANCH  26  27
HETATM   27  C   UNL     1       4.350  32.047  61.719  1.00  0.00     0.051 C 
BRANCH  27  28
HETATM   28  C   UNL     1       4.531  32.301  60.258  1.00  0.00    -0.021 A 
HETATM   29  C   UNL     1       3.600  32.266  59.240  1.00  0.00     0.120 A 
HETATM   30  N   UNL     1       4.262  32.613  58.099  1.00  0.00    -0.285 N 
HETATM   31  C   UNL     1       3.707  32.725  56.773  1.00  0.00     0.179 C 
HETATM   32  N   UNL     1       5.561  32.892  58.299  1.00  0.00    -0.185 NA
HETATM   33  C   UNL     1       5.727  32.689  59.608  1.00  0.00     0.147 A 
ENDBRANCH  27  28
ENDBRANCH  26  27
ENDBRANCH   3  26
TORSDOF 5
ENDMDL
MODEL 9
REMARK VINA RESULT:      -8.7      2.848      6.743
REMARK  5 active torsions:
REMARK  status: ('A' for Active; 'I' for Inactive)
REMARK    1  A    between atoms: C_3  and  O_4 
REMARK    2  A    between atoms: C_8  and  C_9 
REMARK       I    between atoms: N_10  and  C_11 
REMARK    3  A    between atoms: C_11  and  C_12 
REMARK    4  A    between atoms: C_12  and  C_13 
REMARK    5  A    between atoms: C_13  and  C_14 
ROOT
HETATM    1  C   UNL     1       5.603  28.562  55.308  1.00  0.00     0.171 C 
HETATM    2  N   UNL     1       5.776  27.701  54.108  1.00  0.00    -0.338 N 
HETATM    3  C   UNL     1       5.875  26.313  54.156  1.00  0.00     0.221 C 
HETATM    4  O   UNL     1       6.030  25.638  53.136  1.00  0.00    -0.273 OA
HETATM    5  C   UNL     1       5.803  28.364  52.782  1.00  0.00     0.131 C 
HETATM    6  C   UNL     1       4.518  29.164  52.507  1.00  0.00     0.061 C 
HETATM    7  C   UNL     1       4.223  30.025  53.684  1.00  0.00    -0.019 A 
HETATM    8  C   UNL     1       4.752  29.743  54.930  1.00  0.00     0.044 A 
HETATM    9  N   UNL     1       4.300  30.704  55.797  1.00  0.00    -0.356 N 
HETATM   10  H   UNL     1       4.533  30.771  56.777  1.00  0.00     0.166 HD
HETATM   11  C   UNL     1       3.443  31.564  55.146  1.00  0.00     0.043 A 
HETATM   12  C   UNL     1       3.385  31.165  53.810  1.00  0.00    -0.001 A 
HETATM   13  C   UNL     1       2.714  32.653  55.641  1.00  0.00     0.030 A 
HETATM   14  C   UNL     1       1.901  33.349  54.743  1.00  0.00     0.002 A 
HETATM   15  C   UNL     1       1.826  32.976  53.403  1.00  0.00     0.001 A 
HETATM   16  C   UNL     1       2.564  31.888  52.922  1.00  0.00     0.014 A 
ENDROOT
BRANCH   1  17
HETATM   17  C   UNL     1       6.912  28.940  55.998  1.00  0.00    -0.029 A 
HETATM   18  C   UNL     1       8.164  28.828  55.382  1.00  0.00     0.012 A 
HETATM   19  C   UNL     1       9.337  29.207  56.046  1.00  0.00     0.038 A 
HETATM   20  C   UNL     1       9.288  29.718  57.344  1.00  0.00     0.074 A 
HETATM   21  C   UNL     1       8.046  29.839  57.986  1.00  0.00    -0.028 A 
HETATM   22  C   UNL     1       7.950  30.355  59.397  1.00  0.00     0.051 C 
HETATM   23  C   UNL     1       6.877  29.436  57.316  1.00  0.00     0.019 A 
BRANCH  20  24
HETATM   24  O   UNL     1      10.382  30.106  58.072  1.00  0.00    -0.355 OA
HETATM   25  C   UNL     1      11.639  30.105  57.408  1.00  0.00     0.210 C 
ENDBRANCH  20  24
ENDBRANCH   1  17
BRANCH   3  26
HETATM   26  C   UNL     1       5.694  25.651  55.515  1.00  0.00     0.108 C 
BRANCH  26  27
HETATM   27  C   UNL     1       7.012  25.312  56.210  1.00  0.00     0.051 C 
BRANCH  27  28
HETATM   28  C   UNL     1       7.453  23.893  56.065  1.00  0.00    -0.021 A 
HETATM   29  C   UNL     1       7.242  23.012  55.023  1.00  0.00     0.120 A 
HETATM   30  N   UNL     1       7.884  21.856  55.360  1.00  0.00    -0.285 N 
HETATM   31  C   UNL     1       7.956  20.644  54.581  1.00  0.00     0.179 C 
HETATM   32  N   UNL     1       8.519  21.922  56.542  1.00  0.00    -0.185 NA
HETATM   33  C   UNL     1       8.245  23.154  56.976  1.00  0.00     0.147 A 
ENDBRANCH  27  28
ENDBRANCH  26  27
ENDBRANCH   3  26
TORSDOF 5
ENDMDL
MODEL 10
REMARK VINA RESULT:      -8.6      2.708      6.154
REMARK  5 active torsions:
REMARK  status: ('A' for Active; 'I' for Inactive)
REMARK    1  A    between atoms: C_3  and  O_4 
REMARK    2  A    between atoms: C_8  and  C_9 
REMARK       I    between atoms: N_10  and  C_11 
REMARK    3  A    between atoms: C_11  and  C_12 
REMARK    4  A    between atoms: C_12  and  C_13 
REMARK    5  A    between atoms: C_13  and  C_14 
ROOT
HETATM    1  C   UNL     1       5.562  27.562  53.941  1.00  0.00     0.171 C 
HETATM    2  N   UNL     1       5.962  26.384  53.124  1.00  0.00    -0.338 N 
HETATM    3  C   UNL     1       6.014  25.083  53.613  1.00  0.00     0.221 C 
HETATM    4  O   UNL     1       6.363  24.136  52.905  1.00  0.00    -0.273 OA
HETATM    5  C   UNL     1       6.281  26.614  51.695  1.00  0.00     0.131 C 
HETATM    6  C   UNL     1       5.102  27.238  50.929  1.00  0.00     0.061 C 
HETATM    7  C   UNL     1       4.588  28.403  51.698  1.00  0.00    -0.019 A 
HETATM    8  C   UNL     1       4.838  28.536  53.052  1.00  0.00     0.044 A 
HETATM    9  N   UNL     1       4.238  29.695  53.470  1.00  0.00    -0.356 N 
HETATM   10  H   UNL     1       4.262  30.067  54.409  1.00  0.00     0.166 HD
HETATM   11  C   UNL     1       3.557  30.280  52.425  1.00  0.00     0.043 A 
HETATM   12  C   UNL     1       3.771  29.491  51.293  1.00  0.00    -0.001 A 
HETATM   13  C   UNL     1       2.768  31.436  52.401  1.00  0.00     0.030 A 
HETATM   14  C   UNL     1       2.177  31.792  51.186  1.00  0.00     0.002 A 
HETATM   15  C   UNL     1       2.376  31.026  50.039  1.00  0.00     0.001 A 
HETATM   16  C   UNL     1       3.171  29.875  50.078  1.00  0.00     0.014 A 
ENDROOT
BRANCH   1  17
HETATM   17  C   UNL     1       6.706  28.186  54.736  1.00  0.00    -0.029 A 
HETATM   18  C   UNL     1       8.021  28.262  54.260  1.00  0.00     0.012 A 
HETATM   19  C   UNL     1       9.034  28.862  55.016  1.00  0.00     0.038 A 
HETATM   20  C   UNL     1       8.758  29.413  56.268  1.00  0.00     0.074 A 
HETATM   21  C   UNL     1       7.450  29.350  56.770  1.00  0.00    -0.028 A 
HETATM   22  C   UNL     1       7.114  29.903  58.130  1.00  0.00     0.051 C 
HETATM   23  C   UNL     1       6.445  28.725  56.011  1.00  0.00     0.019 A 
BRANCH  20  24
HETATM   24  O   UNL     1       9.686  30.012  57.079  1.00  0.00    -0.355 OA
HETATM   25  C   UNL     1      11.042  29.615  56.920  1.00  0.00     0.210 C 
ENDBRANCH  20  24
ENDBRANCH   1  17
BRANCH   3  26
HETATM   26  C   UNL     1       5.538  24.857  55.042  1.00  0.00     0.108 C 
BRANCH  26  27
HETATM   27  C   UNL     1       6.675  24.694  56.048  1.00  0.00     0.051 C 
BRANCH  27  28
HETATM   28  C   UNL     1       7.593  23.547  55.779  1.00  0.00    -0.021 A 
HETATM   29  C   UNL     1       7.316  22.195  55.736  1.00  0.00     0.120 A 
HETATM   30  N   UNL     1       8.485  21.573  55.410  1.00  0.00    -0.285 N 
HETATM   31  C   UNL     1       8.696  20.156  55.238  1.00  0.00     0.179 C 
HETATM   32  N   UNL     1       9.509  22.422  55.218  1.00  0.00    -0.185 NA
HETATM   33  C   UNL     1       8.969  23.620  55.455  1.00  0.00     0.147 A 
ENDBRANCH  27  28
ENDBRANCH  26  27
ENDBRANCH   3  26
TORSDOF 5
ENDMDL
