MODEL 1
REMARK VINA RESULT:     -10.2      0.000      0.000
REMARK  10 active torsions:
REMARK  status: ('A' for Active; 'I' for Inactive)
REMARK    1  A    between atoms: C_2  and  O_3 
REMARK    2  A    between atoms: O_3  and  C_4 
REMARK    3  A    between atoms: C_4  and  C_5 
REMARK    4  A    between atoms: C_6  and  C_7 
REMARK    5  A    between atoms: C_7  and  O_8 
REMARK    6  A    between atoms: O_8  and  C_9 
REMARK    7  A    between atoms: C_9  and  C_10 
REMARK       I    between atoms: C_10  and  N_11 
REMARK    8  A    between atoms: N_11  and  C_12 
REMARK    9  A    between atoms: C_12  and  C_13 
REMARK       I    between atoms: C_13  and  N_14 
REMARK   10  A    between atoms: N_14  and  C_15 
ROOT
HETATM    1  C   UNL     1       7.160  28.058  55.818  1.00  0.00     0.281 C 
ENDROOT
BRANCH   1   2
HETATM    2  O   UNL     1       7.432  26.814  55.187  1.00  0.00    -0.307 OA
BRANCH   2   3
HETATM    3  C   UNL     1       6.457  25.874  55.351  1.00  0.00     0.318 C 
HETATM    4  O   UNL     1       5.375  26.097  55.891  1.00  0.00    -0.257 OA
BRANCH   3   5
HETATM    5  C   UNL     1       6.924  24.589  54.876  1.00  0.00     0.160 A 
HETATM    6  C   UNL     1       7.096  24.097  53.588  1.00  0.00     0.018 A 
HETATM    7  C   UNL     1       7.518  22.739  53.732  1.00  0.00     0.009 A 
HETATM    8  C   UNL     1       7.598  22.505  55.097  1.00  0.00     0.087 A 
HETATM    9  C   UNL     1       7.849  21.685  52.857  1.00  0.00     0.015 A 
HETATM   10  O   UNL     1       7.241  23.617  55.789  1.00  0.00    -0.303 OA
HETATM   11  C   UNL     1       7.986  21.295  55.667  1.00  0.00     0.038 A 
HETATM   12  C   UNL     1       8.306  20.261  54.781  1.00  0.00     0.003 A 
HETATM   13  C   UNL     1       8.238  20.451  53.399  1.00  0.00     0.001 A 
BRANCH   6  14
HETATM   14  C   UNL     1       6.913  24.853  52.322  1.00  0.00     0.210 C 
BRANCH  14  15
HETATM   15  O   UNL     1       5.559  25.280  52.203  1.00  0.00    -0.387 OA
BRANCH  15  16
HETATM   16  C   UNL     1       5.439  26.523  51.522  1.00  0.00     0.163 C 
HETATM   17  C   UNL     1       4.914  26.258  50.125  1.00  0.00     0.033 C 
ENDBRANCH  15  16
ENDBRANCH  14  15
ENDBRANCH   6  14
ENDBRANCH   3   5
ENDBRANCH   2   3
ENDBRANCH   1   2
BRANCH   1  18
HETATM   18  C   UNL     1       8.137  28.444  56.935  1.00  0.00     0.242 C 
HETATM   19  N   UNL     1       9.035  29.434  56.592  1.00  0.00    -0.350 N 
HETATM   20  H   UNL     1       9.097  29.760  55.636  1.00  0.00     0.163 HD
HETATM   21  O   UNL     1       8.118  27.915  58.041  1.00  0.00    -0.271 OA
BRANCH  19  22
HETATM   22  C   UNL     1       9.961  29.980  57.571  1.00  0.00     0.225 C 
BRANCH  22  23
HETATM   23  C   UNL     1       9.425  31.113  58.458  1.00  0.00     0.239 C 
HETATM   24  N   UNL     1       8.316  30.758  59.208  1.00  0.00    -0.325 N 
HETATM   25  H   UNL     1       7.723  30.069  58.750  1.00  0.00     0.169 HD
HETATM   26  O   UNL     1      10.034  32.178  58.515  1.00  0.00    -0.271 OA
BRANCH  24  27
HETATM   27  C   UNL     1       7.695  31.523  60.227  1.00  0.00     0.041 C 
HETATM   28  C   UNL     1       8.115  31.623  61.573  1.00  0.00    -0.029 C 
HETATM   29  C   UNL     1       9.172  30.728  62.170  1.00  0.00     0.051 C 
HETATM   30  C   UNL     1       7.479  32.566  62.426  1.00  0.00    -0.054 C 
HETATM   31  C   UNL     1       7.952  32.812  63.836  1.00  0.00     0.049 C 
HETATM   32  C   UNL     1       6.349  33.263  61.979  1.00  0.00     0.007 C 
HETATM   33  C   UNL     1       5.861  33.060  60.697  1.00  0.00     0.003 C 
HETATM   34  C   UNL     1       6.536  32.208  59.827  1.00  0.00     0.030 C 
ENDBRANCH  24  27
ENDBRANCH  22  23
ENDBRANCH  19  22
ENDBRANCH   1  18
TORSDOF 10
ENDMDL
MODEL 2
REMARK VINA RESULT:     -10.1      0.590      1.489
REMARK  10 active torsions:
REMARK  status: ('A' for Active; 'I' for Inactive)
REMARK    1  A    between atoms: C_2  and  O_3 
REMARK    2  A    between atoms: O_3  and  C_4 
REMARK    3  A    between atoms: C_4  and  C_5 
REMARK    4  A    between atoms: C_6  and  C_7 
REMARK    5  A    between atoms: C_7  and  O_8 
REMARK    6  A    between atoms: O_8  and  C_9 
REMARK    7  A    between atoms: C_9  and  C_10 
REMARK       I    between atoms: C_10  and  N_11 
REMARK    8  A    between atoms: N_11  and  C_12 
REMARK    9  A    between atoms: C_12  and  C_13 
REMARK       I    between atoms: C_13  and  N_14 
REMARK   10  A    between atoms: N_14  and  C_15 
ROOT
HETATM    1  C   UNL     1       7.349  28.195  55.869  1.00  0.00     0.281 C 
ENDROOT
BRANCH   1   2
HETATM    2  O   UNL     1       7.607  26.939  55.258  1.00  0.00    -0.307 OA
BRANCH   2   3
HETATM    3  C   UNL     1       6.601  26.027  55.396  1.00  0.00     0.318 C 
HETATM    4  O   UNL     1       5.511  26.283  55.903  1.00  0.00    -0.257 OA
BRANCH   3   5
HETATM    5  C   UNL     1       7.044  24.728  54.937  1.00  0.00     0.160 A 
HETATM    6  C   UNL     1       7.354  24.263  53.665  1.00  0.00     0.018 A 
HETATM    7  C   UNL     1       7.667  22.876  53.811  1.00  0.00     0.009 A 
HETATM    8  C   UNL     1       7.549  22.598  55.166  1.00  0.00     0.087 A 
HETATM    9  C   UNL     1       8.043  21.828  52.948  1.00  0.00     0.015 A 
HETATM   10  O   UNL     1       7.175  23.711  55.847  1.00  0.00    -0.303 OA
HETATM   11  C   UNL     1       7.781  21.348  55.735  1.00  0.00     0.038 A 
HETATM   12  C   UNL     1       8.150  20.321  54.860  1.00  0.00     0.003 A 
HETATM   13  C   UNL     1       8.278  20.555  53.489  1.00  0.00     0.001 A 
BRANCH   6  14
HETATM   14  C   UNL     1       7.390  25.067  52.415  1.00  0.00     0.210 C 
BRANCH  14  15
HETATM   15  O   UNL     1       6.062  25.316  51.961  1.00  0.00    -0.387 OA
BRANCH  15  16
HETATM   16  C   UNL     1       5.853  26.680  51.615  1.00  0.00     0.163 C 
HETATM   17  C   UNL     1       4.727  27.227  52.470  1.00  0.00     0.033 C 
ENDBRANCH  15  16
ENDBRANCH  14  15
ENDBRANCH   6  14
ENDBRANCH   3   5
ENDBRANCH   2   3
ENDBRANCH   1   2
BRANCH   1  18
HETATM   18  C   UNL     1       8.241  28.526  57.071  1.00  0.00     0.242 C 
HETATM   19  N   UNL     1       9.240  29.441  56.806  1.00  0.00    -0.350 N 
HETATM   20  H   UNL     1       9.416  29.746  55.858  1.00  0.00     0.163 HD
HETATM   21  O   UNL     1       8.077  28.017  58.175  1.00  0.00    -0.271 OA
BRANCH  19  22
HETATM   22  C   UNL     1      10.107  29.932  57.865  1.00  0.00     0.225 C 
BRANCH  22  23
HETATM   23  C   UNL     1       9.565  31.098  58.704  1.00  0.00     0.239 C 
HETATM   24  N   UNL     1       8.643  30.715  59.665  1.00  0.00    -0.325 N 
HETATM   25  H   UNL     1       8.086  29.909  59.390  1.00  0.00     0.169 HD
HETATM   26  O   UNL     1      10.024  32.226  58.543  1.00  0.00    -0.271 OA
BRANCH  24  27
HETATM   27  C   UNL     1       8.089  31.526  60.686  1.00  0.00     0.041 C 
HETATM   28  C   UNL     1       6.893  32.274  60.606  1.00  0.00    -0.029 C 
HETATM   29  C   UNL     1       6.148  32.492  59.312  1.00  0.00     0.051 C 
HETATM   30  C   UNL     1       6.391  32.901  61.779  1.00  0.00    -0.054 C 
HETATM   31  C   UNL     1       5.062  33.614  61.797  1.00  0.00     0.049 C 
HETATM   32  C   UNL     1       7.160  32.911  62.950  1.00  0.00     0.007 C 
HETATM   33  C   UNL     1       8.397  32.287  62.983  1.00  0.00     0.003 C 
HETATM   34  C   UNL     1       8.851  31.591  61.865  1.00  0.00     0.030 C 
ENDBRANCH  24  27
ENDBRANCH  22  23
ENDBRANCH  19  22
ENDBRANCH   1  18
TORSDOF 10
ENDMDL
MODEL 3
REMARK VINA RESULT:      -9.8      1.716      2.344
REMARK  10 active torsions:
REMARK  status: ('A' for Active; 'I' for Inactive)
REMARK    1  A    between atoms: C_2  and  O_3 
REMARK    2  A    between atoms: O_3  and  C_4 
REMARK    3  A    between atoms: C_4  and  C_5 
REMARK    4  A    between atoms: C_6  and  C_7 
REMARK    5  A    between atoms: C_7  and  O_8 
REMARK    6  A    between atoms: O_8  and  C_9 
REMARK    7  A    between atoms: C_9  and  C_10 
REMARK       I    between atoms: C_10  and  N_11 
REMARK    8  A    between atoms: N_11  and  C_12 
REMARK    9  A    between atoms: C_12  and  C_13 
REMARK       I    between atoms: C_13  and  N_14 
REMARK   10  A    between atoms: N_14  and  C_15 
ROOT
HETATM    1  C   UNL     1       6.269  28.017  55.313  1.00  0.00     0.281 C 
ENDROOT
BRANCH   1   2
HETATM    2  O   UNL     1       6.231  26.618  55.554  1.00  0.00    -0.307 OA
BRANCH   2   3
HETATM    3  C   UNL     1       7.418  26.084  55.965  1.00  0.00     0.318 C 
HETATM    4  O   UNL     1       8.209  26.665  56.706  1.00  0.00    -0.257 OA
BRANCH   3   5
HETATM    5  C   UNL     1       7.626  24.798  55.336  1.00  0.00     0.160 A 
HETATM    6  C   UNL     1       7.831  24.451  54.006  1.00  0.00     0.018 A 
HETATM    7  C   UNL     1       7.906  23.024  53.971  1.00  0.00     0.009 A 
HETATM    8  C   UNL     1       7.767  22.602  55.285  1.00  0.00     0.087 A 
HETATM    9  C   UNL     1       8.083  22.045  52.973  1.00  0.00     0.015 A 
HETATM   10  O   UNL     1       7.600  23.666  56.110  1.00  0.00    -0.303 OA
HETATM   11  C   UNL     1       7.793  21.269  55.690  1.00  0.00     0.038 A 
HETATM   12  C   UNL     1       7.967  20.313  54.684  1.00  0.00     0.003 A 
HETATM   13  C   UNL     1       8.108  20.693  53.347  1.00  0.00     0.001 A 
BRANCH   6  14
HETATM   14  C   UNL     1       7.979  25.388  52.862  1.00  0.00     0.210 C 
BRANCH  14  15
HETATM   15  O   UNL     1       7.001  25.097  51.867  1.00  0.00    -0.387 OA
BRANCH  15  16
HETATM   16  C   UNL     1       5.811  25.859  52.036  1.00  0.00     0.163 C 
HETATM   17  C   UNL     1       4.723  24.941  52.558  1.00  0.00     0.033 C 
ENDBRANCH  15  16
ENDBRANCH  14  15
ENDBRANCH   6  14
ENDBRANCH   3   5
ENDBRANCH   2   3
ENDBRANCH   1   2
BRANCH   1  18
HETATM   18  C   UNL     1       5.613  28.879  56.397  1.00  0.00     0.242 C 
HETATM   19  N   UNL     1       5.477  30.212  56.064  1.00  0.00    -0.350 N 
HETATM   20  H   UNL     1       5.904  30.575  55.222  1.00  0.00     0.163 HD
HETATM   21  O   UNL     1       5.239  28.419  57.471  1.00  0.00    -0.271 OA
BRANCH  19  22
HETATM   22  C   UNL     1       4.786  31.139  56.945  1.00  0.00     0.225 C 
BRANCH  22  23
HETATM   23  C   UNL     1       5.662  31.925  57.931  1.00  0.00     0.239 C 
HETATM   24  N   UNL     1       6.315  31.128  58.857  1.00  0.00    -0.325 N 
HETATM   25  H   UNL     1       5.794  30.291  59.107  1.00  0.00     0.169 HD
HETATM   26  O   UNL     1       5.798  33.137  57.788  1.00  0.00    -0.271 OA
BRANCH  24  27
HETATM   27  C   UNL     1       7.307  31.535  59.784  1.00  0.00     0.041 C 
HETATM   28  C   UNL     1       7.084  31.994  61.102  1.00  0.00    -0.029 C 
HETATM   29  C   UNL     1       5.712  32.333  61.630  1.00  0.00     0.051 C 
HETATM   30  C   UNL     1       8.199  32.204  61.958  1.00  0.00    -0.054 C 
HETATM   31  C   UNL     1       8.032  32.577  63.409  1.00  0.00     0.049 C 
HETATM   32  C   UNL     1       9.500  32.115  61.446  1.00  0.00     0.007 C 
HETATM   33  C   UNL     1       9.709  31.793  60.113  1.00  0.00     0.003 C 
HETATM   34  C   UNL     1       8.623  31.495  59.295  1.00  0.00     0.030 C 
ENDBRANCH  24  27
ENDBRANCH  22  23
ENDBRANCH  19  22
ENDBRANCH   1  18
TORSDOF 10
ENDMDL
MODEL 4
REMARK VINA RESULT:      -9.6      2.247     10.541
REMARK  10 active torsions:
REMARK  status: ('A' for Active; 'I' for Inactive)
REMARK    1  A    between atoms: C_2  and  O_3 
REMARK    2  A    between atoms: O_3  and  C_4 
REMARK    3  A    between atoms: C_4  and  C_5 
REMARK    4  A    between atoms: C_6  and  C_7 
REMARK    5  A    between atoms: C_7  and  O_8 
REMARK    6  A    between atoms: O_8  and  C_9 
REMARK    7  A    between atoms: C_9  and  C_10 
REMARK       I    between atoms: C_10  and  N_11 
REMARK    8  A    between atoms: N_11  and  C_12 
REMARK    9  A    between atoms: C_12  and  C_13 
REMARK       I    between atoms: C_13  and  N_14 
REMARK   10  A    between atoms: N_14  and  C_15 
ROOT
HETATM    1  C   UNL     1       9.643  29.678  57.471  1.00  0.00     0.281 C 
ENDROOT
BRANCH   1   2
HETATM    2  O   UNL     1       9.027  30.150  58.661  1.00  0.00    -0.307 OA
BRANCH   2   3
HETATM    3  C   UNL     1       9.300  31.453  58.959  1.00  0.00     0.318 C 
HETATM    4  O   UNL     1      10.190  32.106  58.418  1.00  0.00    -0.257 OA
BRANCH   3   5
HETATM    5  C   UNL     1       8.453  31.901  60.044  1.00  0.00     0.160 A 
HETATM    6  C   UNL     1       7.145  32.369  60.049  1.00  0.00     0.018 A 
HETATM    7  C   UNL     1       6.854  32.728  61.402  1.00  0.00     0.009 A 
HETATM    8  C   UNL     1       7.998  32.431  62.131  1.00  0.00     0.087 A 
HETATM    9  C   UNL     1       5.749  33.265  62.091  1.00  0.00     0.015 A 
HETATM   10  O   UNL     1       8.962  31.932  61.317  1.00  0.00    -0.303 OA
HETATM   11  C   UNL     1       8.128  32.626  63.504  1.00  0.00     0.038 A 
HETATM   12  C   UNL     1       7.020  33.162  64.168  1.00  0.00     0.003 A 
HETATM   13  C   UNL     1       5.850  33.479  63.474  1.00  0.00     0.001 A 
BRANCH   6  14
HETATM   14  C   UNL     1       6.227  32.440  58.883  1.00  0.00     0.210 C 
BRANCH  14  15
HETATM   15  O   UNL     1       5.591  31.179  58.688  1.00  0.00    -0.387 OA
BRANCH  15  16
HETATM   16  C   UNL     1       5.631  30.755  57.330  1.00  0.00     0.163 C 
HETATM   17  C   UNL     1       5.195  29.305  57.266  1.00  0.00     0.033 C 
ENDBRANCH  15  16
ENDBRANCH  14  15
ENDBRANCH   6  14
ENDBRANCH   3   5
ENDBRANCH   2   3
ENDBRANCH   1   2
BRANCH   1  18
HETATM   18  C   UNL     1       8.795  28.706  56.644  1.00  0.00     0.242 C 
HETATM   19  N   UNL     1       8.532  27.503  57.269  1.00  0.00    -0.350 N 
HETATM   20  H   UNL     1       8.985  27.271  58.144  1.00  0.00     0.163 HD
HETATM   21  O   UNL     1       8.385  28.977  55.521  1.00  0.00    -0.271 OA
BRANCH  19  22
HETATM   22  C   UNL     1       7.659  26.514  56.657  1.00  0.00     0.225 C 
BRANCH  22  23
HETATM   23  C   UNL     1       8.183  25.072  56.622  1.00  0.00     0.239 C 
HETATM   24  N   UNL     1       7.376  24.200  55.910  1.00  0.00    -0.325 N 
HETATM   25  H   UNL     1       6.388  24.442  55.950  1.00  0.00     0.169 HD
HETATM   26  O   UNL     1       9.275  24.811  57.122  1.00  0.00    -0.271 OA
BRANCH  24  27
HETATM   27  C   UNL     1       7.667  22.856  55.566  1.00  0.00     0.041 C 
HETATM   28  C   UNL     1       7.790  22.333  54.260  1.00  0.00    -0.029 C 
HETATM   29  C   UNL     1       7.394  23.108  53.027  1.00  0.00     0.051 C 
HETATM   30  C   UNL     1       8.251  20.999  54.090  1.00  0.00    -0.054 C 
HETATM   31  C   UNL     1       8.520  20.415  52.727  1.00  0.00     0.049 C 
HETATM   32  C   UNL     1       8.421  20.171  55.208  1.00  0.00     0.007 C 
HETATM   33  C   UNL     1       8.169  20.653  56.483  1.00  0.00     0.003 C 
HETATM   34  C   UNL     1       7.808  21.986  56.660  1.00  0.00     0.030 C 
ENDBRANCH  24  27
ENDBRANCH  22  23
ENDBRANCH  19  22
ENDBRANCH   1  18
TORSDOF 10
ENDMDL
MODEL 5
REMARK VINA RESULT:      -9.3      1.891     10.148
REMARK  10 active torsions:
REMARK  status: ('A' for Active; 'I' for Inactive)
REMARK    1  A    between atoms: C_2  and  O_3 
REMARK    2  A    between atoms: O_3  and  C_4 
REMARK    3  A    between atoms: C_4  and  C_5 
REMARK    4  A    between atoms: C_6  and  C_7 
REMARK    5  A    between atoms: C_7  and  O_8 
REMARK    6  A    between atoms: O_8  and  C_9 
REMARK    7  A    between atoms: C_9  and  C_10 
REMARK       I    between atoms: C_10  and  N_11 
REMARK    8  A    between atoms: N_11  and  C_12 
REMARK    9  A    between atoms: C_12  and  C_13 
REMARK       I    between atoms: C_13  and  N_14 
REMARK   10  A    between atoms: N_14  and  C_15 
ROOT
HETATM    1  C   UNL     1       9.656  29.186  56.938  1.00  0.00     0.281 C 
ENDROOT
BRANCH   1   2
HETATM    2  O   UNL     1       9.177  29.624  58.202  1.00  0.00    -0.307 OA
BRANCH   2   3
HETATM    3  C   UNL     1       9.486  30.919  58.503  1.00  0.00     0.318 C 
HETATM    4  O   UNL     1      10.391  31.550  57.962  1.00  0.00    -0.257 OA
BRANCH   3   5
HETATM    5  C   UNL     1       8.652  31.387  59.589  1.00  0.00     0.160 A 
HETATM    6  C   UNL     1       7.315  31.764  59.620  1.00  0.00     0.018 A 
HETATM    7  C   UNL     1       7.053  32.201  60.956  1.00  0.00     0.009 A 
HETATM    8  C   UNL     1       8.243  32.036  61.652  1.00  0.00     0.087 A 
HETATM    9  C   UNL     1       5.940  32.710  61.653  1.00  0.00     0.015 A 
HETATM   10  O   UNL     1       9.207  31.545  60.833  1.00  0.00    -0.303 OA
HETATM   11  C   UNL     1       8.413  32.339  63.001  1.00  0.00     0.038 A 
HETATM   12  C   UNL     1       7.296  32.846  63.674  1.00  0.00     0.003 A 
HETATM   13  C   UNL     1       6.080  33.031  63.012  1.00  0.00     0.001 A 
BRANCH   6  14
HETATM   14  C   UNL     1       6.349  31.687  58.493  1.00  0.00     0.210 C 
BRANCH  14  15
HETATM   15  O   UNL     1       5.976  33.000  58.084  1.00  0.00    -0.387 OA
BRANCH  15  16
HETATM   16  C   UNL     1       4.571  33.137  57.910  1.00  0.00     0.163 C 
HETATM   17  C   UNL     1       4.085  34.273  58.788  1.00  0.00     0.033 C 
ENDBRANCH  15  16
ENDBRANCH  14  15
ENDBRANCH   6  14
ENDBRANCH   3   5
ENDBRANCH   2   3
ENDBRANCH   1   2
BRANCH   1  18
HETATM   18  C   UNL     1       8.575  28.678  55.977  1.00  0.00     0.242 C 
HETATM   19  N   UNL     1       7.567  27.955  56.582  1.00  0.00    -0.350 N 
HETATM   20  H   UNL     1       7.638  27.694  57.557  1.00  0.00     0.163 HD
HETATM   21  O   UNL     1       8.607  28.899  54.771  1.00  0.00    -0.271 OA
BRANCH  19  22
HETATM   22  C   UNL     1       6.417  27.489  55.822  1.00  0.00     0.225 C 
BRANCH  22  23
HETATM   23  C   UNL     1       6.325  25.975  55.587  1.00  0.00     0.239 C 
HETATM   24  N   UNL     1       7.418  25.444  54.922  1.00  0.00    -0.325 N 
HETATM   25  H   UNL     1       7.845  26.094  54.265  1.00  0.00     0.169 HD
HETATM   26  O   UNL     1       5.382  25.344  56.058  1.00  0.00    -0.271 OA
BRANCH  24  27
HETATM   27  C   UNL     1       7.698  24.072  54.701  1.00  0.00     0.041 C 
HETATM   28  C   UNL     1       8.071  23.125  55.681  1.00  0.00    -0.029 C 
HETATM   29  C   UNL     1       8.447  23.509  57.090  1.00  0.00     0.051 C 
HETATM   30  C   UNL     1       8.152  21.753  55.318  1.00  0.00    -0.054 C 
HETATM   31  C   UNL     1       8.426  20.673  56.335  1.00  0.00     0.049 C 
HETATM   32  C   UNL     1       8.026  21.376  53.975  1.00  0.00     0.007 C 
HETATM   33  C   UNL     1       7.792  22.331  52.997  1.00  0.00     0.003 C 
HETATM   34  C   UNL     1       7.618  23.664  53.360  1.00  0.00     0.030 C 
ENDBRANCH  24  27
ENDBRANCH  22  23
ENDBRANCH  19  22
ENDBRANCH   1  18
TORSDOF 10
ENDMDL
MODEL 6
REMARK VINA RESULT:      -9.3      2.139     10.094
REMARK  10 active torsions:
REMARK  status: ('A' for Active; 'I' for Inactive)
REMARK    1  A    between atoms: C_2  and  O_3 
REMARK    2  A    between atoms: O_3  and  C_4 
REMARK    3  A    between atoms: C_4  and  C_5 
REMARK    4  A    between atoms: C_6  and  C_7 
REMARK    5  A    between atoms: C_7  and  O_8 
REMARK    6  A    between atoms: O_8  and  C_9 
REMARK    7  A    between atoms: C_9  and  C_10 
REMARK       I    between atoms: C_10  and  N_11 
REMARK    8  A    between atoms: N_11  and  C_12 
REMARK    9  A    between atoms: C_12  and  C_13 
REMARK       I    between atoms: C_13  and  N_14 
REMARK   10  A    between atoms: N_14  and  C_15 
ROOT
HETATM    1  C   UNL     1       5.916  29.008  57.393  1.00  0.00     0.281 C 
ENDROOT
BRANCH   1   2
HETATM    2  O   UNL     1       5.101  30.100  57.795  1.00  0.00    -0.307 OA
BRANCH   2   3
HETATM    3  C   UNL     1       5.714  31.317  57.723  1.00  0.00     0.318 C 
HETATM    4  O   UNL     1       5.771  31.995  56.699  1.00  0.00    -0.257 OA
BRANCH   3   5
HETATM    5  C   UNL     1       6.340  31.632  58.989  1.00  0.00     0.160 A 
HETATM    6  C   UNL     1       7.668  31.573  59.394  1.00  0.00     0.018 A 
HETATM    7  C   UNL     1       7.682  31.937  60.776  1.00  0.00     0.009 A 
HETATM    8  C   UNL     1       6.364  32.216  61.112  1.00  0.00     0.087 A 
HETATM    9  C   UNL     1       8.664  32.068  61.777  1.00  0.00     0.015 A 
HETATM   10  O   UNL     1       5.554  32.034  60.039  1.00  0.00    -0.303 OA
HETATM   11  C   UNL     1       5.944  32.621  62.377  1.00  0.00     0.038 A 
HETATM   12  C   UNL     1       6.934  32.741  63.356  1.00  0.00     0.003 A 
HETATM   13  C   UNL     1       8.273  32.468  63.064  1.00  0.00     0.001 A 
BRANCH   6  14
HETATM   14  C   UNL     1       8.837  31.236  58.540  1.00  0.00     0.210 C 
BRANCH  14  15
HETATM   15  O   UNL     1       9.023  29.824  58.507  1.00  0.00    -0.387 OA
BRANCH  15  16
HETATM   16  C   UNL     1       9.588  29.379  57.280  1.00  0.00     0.163 C 
HETATM   17  C   UNL     1      11.016  29.881  57.197  1.00  0.00     0.033 C 
ENDBRANCH  15  16
ENDBRANCH  14  15
ENDBRANCH   6  14
ENDBRANCH   3   5
ENDBRANCH   2   3
ENDBRANCH   1   2
BRANCH   1  18
HETATM   18  C   UNL     1       5.592  28.434  56.009  1.00  0.00     0.242 C 
HETATM   19  N   UNL     1       6.670  27.872  55.356  1.00  0.00    -0.350 N 
HETATM   20  H   UNL     1       7.604  27.965  55.735  1.00  0.00     0.163 HD
HETATM   21  O   UNL     1       4.466  28.473  55.526  1.00  0.00    -0.271 OA
BRANCH  19  22
HETATM   22  C   UNL     1       6.505  27.197  54.078  1.00  0.00     0.225 C 
BRANCH  22  23
HETATM   23  C   UNL     1       6.369  25.669  54.128  1.00  0.00     0.239 C 
HETATM   24  N   UNL     1       7.570  24.994  53.979  1.00  0.00    -0.325 N 
HETATM   25  H   UNL     1       8.237  25.484  53.386  1.00  0.00     0.169 HD
HETATM   26  O   UNL     1       5.276  25.165  54.375  1.00  0.00    -0.271 OA
BRANCH  24  27
HETATM   27  C   UNL     1       7.793  23.604  54.137  1.00  0.00     0.041 C 
HETATM   28  C   UNL     1       8.037  22.927  55.353  1.00  0.00    -0.029 C 
HETATM   29  C   UNL     1       8.324  23.646  56.648  1.00  0.00     0.051 C 
HETATM   30  C   UNL     1       8.072  21.506  55.357  1.00  0.00    -0.054 C 
HETATM   31  C   UNL     1       8.208  20.714  56.633  1.00  0.00     0.049 C 
HETATM   32  C   UNL     1       8.030  20.802  54.146  1.00  0.00     0.007 C 
HETATM   33  C   UNL     1       7.924  21.482  52.942  1.00  0.00     0.003 C 
HETATM   34  C   UNL     1       7.795  22.868  52.940  1.00  0.00     0.030 C 
ENDBRANCH  24  27
ENDBRANCH  22  23
ENDBRANCH  19  22
ENDBRANCH   1  18
TORSDOF 10
ENDMDL
MODEL 7
REMARK VINA RESULT:      -9.2      1.857      3.462
REMARK  10 active torsions:
REMARK  status: ('A' for Active; 'I' for Inactive)
REMARK    1  A    between atoms: C_2  and  O_3 
REMARK    2  A    between atoms: O_3  and  C_4 
REMARK    3  A    between atoms: C_4  and  C_5 
REMARK    4  A    between atoms: C_6  and  C_7 
REMARK    5  A    between atoms: C_7  and  O_8 
REMARK    6  A    between atoms: O_8  and  C_9 
REMARK    7  A    between atoms: C_9  and  C_10 
REMARK       I    between atoms: C_10  and  N_11 
REMARK    8  A    between atoms: N_11  and  C_12 
REMARK    9  A    between atoms: C_12  and  C_13 
REMARK       I    between atoms: C_13  and  N_14 
REMARK   10  A    between atoms: N_14  and  C_15 
ROOT
HETATM    1  C   UNL     1       5.744  28.814  53.800  1.00  0.00     0.281 C 
ENDROOT
BRANCH   1   2
HETATM    2  O   UNL     1       6.450  27.582  53.795  1.00  0.00    -0.307 OA
BRANCH   2   3
HETATM    3  C   UNL     1       5.733  26.523  53.319  1.00  0.00     0.318 C 
HETATM    4  O   UNL     1       4.711  26.636  52.646  1.00  0.00    -0.257 OA
BRANCH   3   5
HETATM    5  C   UNL     1       6.308  25.282  53.795  1.00  0.00     0.160 A 
HETATM    6  C   UNL     1       6.573  24.830  55.082  1.00  0.00     0.018 A 
HETATM    7  C   UNL     1       7.207  23.558  54.936  1.00  0.00     0.009 A 
HETATM    8  C   UNL     1       7.262  23.312  53.571  1.00  0.00     0.087 A 
HETATM    9  C   UNL     1       7.734  22.584  55.808  1.00  0.00     0.015 A 
HETATM   10  O   UNL     1       6.721  24.347  52.881  1.00  0.00    -0.303 OA
HETATM   11  C   UNL     1       7.803  22.162  53.000  1.00  0.00     0.038 A 
HETATM   12  C   UNL     1       8.323  21.211  53.883  1.00  0.00     0.003 A 
HETATM   13  C   UNL     1       8.292  21.417  55.264  1.00  0.00     0.001 A 
BRANCH   6  14
HETATM   14  C   UNL     1       6.226  25.522  56.350  1.00  0.00     0.210 C 
BRANCH  14  15
HETATM   15  O   UNL     1       7.406  26.038  56.960  1.00  0.00    -0.387 OA
BRANCH  15  16
HETATM   16  C   UNL     1       7.196  27.310  57.561  1.00  0.00     0.163 C 
HETATM   17  C   UNL     1       8.284  28.252  57.085  1.00  0.00     0.033 C 
ENDBRANCH  15  16
ENDBRANCH  14  15
ENDBRANCH   6  14
ENDBRANCH   3   5
ENDBRANCH   2   3
ENDBRANCH   1   2
BRANCH   1  18
HETATM   18  C   UNL     1       5.016  29.138  55.109  1.00  0.00     0.242 C 
HETATM   19  N   UNL     1       5.512  30.236  55.782  1.00  0.00    -0.350 N 
HETATM   20  H   UNL     1       6.365  30.685  55.473  1.00  0.00     0.163 HD
HETATM   21  O   UNL     1       4.071  28.475  55.521  1.00  0.00    -0.271 OA
BRANCH  19  22
HETATM   22  C   UNL     1       4.868  30.731  56.989  1.00  0.00     0.225 C 
BRANCH  22  23
HETATM   23  C   UNL     1       5.731  31.602  57.913  1.00  0.00     0.239 C 
HETATM   24  N   UNL     1       6.414  30.884  58.881  1.00  0.00    -0.325 N 
HETATM   25  H   UNL     1       5.918  30.050  59.189  1.00  0.00     0.169 HD
HETATM   26  O   UNL     1       5.831  32.806  57.693  1.00  0.00    -0.271 OA
BRANCH  24  27
HETATM   27  C   UNL     1       7.401  31.376  59.770  1.00  0.00     0.041 C 
HETATM   28  C   UNL     1       7.179  31.892  61.067  1.00  0.00    -0.029 C 
HETATM   29  C   UNL     1       5.803  32.203  61.600  1.00  0.00     0.051 C 
HETATM   30  C   UNL     1       8.298  32.189  61.893  1.00  0.00    -0.054 C 
HETATM   31  C   UNL     1       8.137  32.628  63.326  1.00  0.00     0.049 C 
HETATM   32  C   UNL     1       9.594  32.125  61.364  1.00  0.00     0.007 C 
HETATM   33  C   UNL     1       9.796  31.744  60.046  1.00  0.00     0.003 C 
HETATM   34  C   UNL     1       8.711  31.363  59.262  1.00  0.00     0.030 C 
ENDBRANCH  24  27
ENDBRANCH  22  23
ENDBRANCH  19  22
ENDBRANCH   1  18
TORSDOF 10
ENDMDL
MODEL 8
REMARK VINA RESULT:      -8.8      2.407      9.654
REMARK  10 active torsions:
REMARK  status: ('A' for Active; 'I' for Inactive)
REMARK    1  A    between atoms: C_2  and  O_3 
REMARK    2  A    between atoms: O_3  and  C_4 
REMARK    3  A    between atoms: C_4  and  C_5 
REMARK    4  A    between atoms: C_6  and  C_7 
REMARK    5  A    between atoms: C_7  and  O_8 
REMARK    6  A    between atoms: O_8  and  C_9 
REMARK    7  A    between atoms: C_9  and  C_10 
REMARK       I    between atoms: C_10  and  N_11 
REMARK    8  A    between atoms: N_11  and  C_12 
REMARK    9  A    between atoms: C_12  and  C_13 
REMARK       I    between atoms: C_13  and  N_14 
REMARK   10  A    between atoms: N_14  and  C_15 
ROOT
HETATM    1  C   UNL     1       5.700  29.018  55.005  1.00  0.00     0.281 C 
ENDROOT
BRANCH   1   2
HETATM    2  O   UNL     1       6.914  28.911  55.736  1.00  0.00    -0.307 OA
BRANCH   2   3
HETATM    3  C   UNL     1       6.772  28.399  56.993  1.00  0.00     0.318 C 
HETATM    4  O   UNL     1       6.356  27.266  57.227  1.00  0.00    -0.257 OA
BRANCH   3   5
HETATM    5  C   UNL     1       7.100  29.407  57.978  1.00  0.00     0.160 A 
HETATM    6  C   UNL     1       6.480  30.608  58.301  1.00  0.00     0.018 A 
HETATM    7  C   UNL     1       7.291  31.218  59.308  1.00  0.00     0.009 A 
HETATM    8  C   UNL     1       8.334  30.335  59.547  1.00  0.00     0.087 A 
HETATM    9  C   UNL     1       7.252  32.416  60.049  1.00  0.00     0.015 A 
HETATM   10  O   UNL     1       8.222  29.243  58.749  1.00  0.00    -0.303 OA
HETATM   11  C   UNL     1       9.351  30.551  60.475  1.00  0.00     0.038 A 
HETATM   12  C   UNL     1       9.295  31.747  61.197  1.00  0.00     0.003 A 
HETATM   13  C   UNL     1       8.265  32.667  60.987  1.00  0.00     0.001 A 
BRANCH   6  14
HETATM   14  C   UNL     1       5.208  31.126  57.734  1.00  0.00     0.210 C 
BRANCH  14  15
HETATM   15  O   UNL     1       5.464  32.290  56.952  1.00  0.00    -0.387 OA
BRANCH  15  16
HETATM   16  C   UNL     1       4.675  33.402  57.359  1.00  0.00     0.163 C 
HETATM   17  C   UNL     1       4.167  34.111  56.119  1.00  0.00     0.033 C 
ENDBRANCH  15  16
ENDBRANCH  14  15
ENDBRANCH   6  14
ENDBRANCH   3   5
ENDBRANCH   2   3
ENDBRANCH   1   2
BRANCH   1  18
HETATM   18  C   UNL     1       5.538  28.002  53.869  1.00  0.00     0.242 C 
HETATM   19  N   UNL     1       6.714  27.399  53.469  1.00  0.00    -0.350 N 
HETATM   20  H   UNL     1       7.603  27.721  53.831  1.00  0.00     0.163 HD
HETATM   21  O   UNL     1       4.452  27.749  53.359  1.00  0.00    -0.271 OA
BRANCH  19  22
HETATM   22  C   UNL     1       6.714  26.342  52.470  1.00  0.00     0.225 C 
BRANCH  22  23
HETATM   23  C   UNL     1       6.561  24.908  52.996  1.00  0.00     0.239 C 
HETATM   24  N   UNL     1       7.763  24.239  53.156  1.00  0.00    -0.325 N 
HETATM   25  H   UNL     1       8.474  24.522  52.485  1.00  0.00     0.169 HD
HETATM   26  O   UNL     1       5.449  24.495  53.315  1.00  0.00    -0.271 OA
BRANCH  24  27
HETATM   27  C   UNL     1       7.961  22.975  53.765  1.00  0.00     0.041 C 
HETATM   28  C   UNL     1       8.208  22.735  55.135  1.00  0.00    -0.029 C 
HETATM   29  C   UNL     1       8.524  23.836  56.116  1.00  0.00     0.051 C 
HETATM   30  C   UNL     1       8.216  21.395  55.611  1.00  0.00    -0.054 C 
HETATM   31  C   UNL     1       8.353  21.069  57.077  1.00  0.00     0.049 C 
HETATM   32  C   UNL     1       8.146  20.330  54.703  1.00  0.00     0.007 C 
HETATM   33  C   UNL     1       8.038  20.574  53.342  1.00  0.00     0.003 C 
HETATM   34  C   UNL     1       7.934  21.884  52.880  1.00  0.00     0.030 C 
ENDBRANCH  24  27
ENDBRANCH  22  23
ENDBRANCH  19  22
ENDBRANCH   1  18
TORSDOF 10
ENDMDL
MODEL 9
REMARK VINA RESULT:      -8.8      2.294      9.598
REMARK  10 active torsions:
REMARK  status: ('A' for Active; 'I' for Inactive)
REMARK    1  A    between atoms: C_2  and  O_3 
REMARK    2  A    between atoms: O_3  and  C_4 
REMARK    3  A    between atoms: C_4  and  C_5 
REMARK    4  A    between atoms: C_6  and  C_7 
REMARK    5  A    between atoms: C_7  and  O_8 
REMARK    6  A    between atoms: O_8  and  C_9 
REMARK    7  A    between atoms: C_9  and  C_10 
REMARK       I    between atoms: C_10  and  N_11 
REMARK    8  A    between atoms: N_11  and  C_12 
REMARK    9  A    between atoms: C_12  and  C_13 
REMARK       I    between atoms: C_13  and  N_14 
REMARK   10  A    between atoms: N_14  and  C_15 
ROOT
HETATM    1  C   UNL     1       4.569  30.783  56.884  1.00  0.00     0.281 C 
ENDROOT
BRANCH   1   2
HETATM    2  O   UNL     1       5.841  31.356  57.153  1.00  0.00    -0.307 OA
BRANCH   2   3
HETATM    3  C   UNL     1       6.701  30.532  57.820  1.00  0.00     0.318 C 
HETATM    4  O   UNL     1       7.061  29.435  57.399  1.00  0.00    -0.257 OA
BRANCH   3   5
HETATM    5  C   UNL     1       7.041  31.106  59.104  1.00  0.00     0.160 A 
HETATM    6  C   UNL     1       8.221  31.075  59.837  1.00  0.00     0.018 A 
HETATM    7  C   UNL     1       7.949  31.758  61.063  1.00  0.00     0.009 A 
HETATM    8  C   UNL     1       6.629  32.180  60.981  1.00  0.00     0.087 A 
HETATM    9  C   UNL     1       8.676  32.072  62.229  1.00  0.00     0.015 A 
HETATM   10  O   UNL     1       6.080  31.790  59.803  1.00  0.00    -0.303 OA
HETATM   11  C   UNL     1       5.970  32.898  61.976  1.00  0.00     0.038 A 
HETATM   12  C   UNL     1       6.709  33.196  63.126  1.00  0.00     0.003 A 
HETATM   13  C   UNL     1       8.039  32.789  63.253  1.00  0.00     0.001 A 
BRANCH   6  14
HETATM   14  C   UNL     1       9.514  30.481  59.406  1.00  0.00     0.210 C 
BRANCH  14  15
HETATM   15  O   UNL     1       9.900  31.023  58.146  1.00  0.00    -0.387 OA
BRANCH  15  16
HETATM   16  C   UNL     1      10.855  30.210  57.475  1.00  0.00     0.163 C 
HETATM   17  C   UNL     1      10.289  29.819  56.124  1.00  0.00     0.033 C 
ENDBRANCH  15  16
ENDBRANCH  14  15
ENDBRANCH   6  14
ENDBRANCH   3   5
ENDBRANCH   2   3
ENDBRANCH   1   2
BRANCH   1  18
HETATM   18  C   UNL     1       4.588  29.586  55.928  1.00  0.00     0.242 C 
HETATM   19  N   UNL     1       5.354  29.771  54.795  1.00  0.00    -0.350 N 
HETATM   20  H   UNL     1       5.748  30.679  54.586  1.00  0.00     0.163 HD
HETATM   21  O   UNL     1       3.973  28.550  56.155  1.00  0.00    -0.271 OA
BRANCH  19  22
HETATM   22  C   UNL     1       5.553  28.694  53.838  1.00  0.00     0.225 C 
BRANCH  22  23
HETATM   23  C   UNL     1       6.714  27.732  54.128  1.00  0.00     0.239 C 
HETATM   24  N   UNL     1       6.344  26.611  54.854  1.00  0.00    -0.325 N 
HETATM   25  H   UNL     1       5.579  26.785  55.502  1.00  0.00     0.169 HD
HETATM   26  O   UNL     1       7.821  27.955  53.645  1.00  0.00    -0.271 OA
BRANCH  24  27
HETATM   27  C   UNL     1       7.145  25.477  55.138  1.00  0.00     0.041 C 
HETATM   28  C   UNL     1       7.375  24.378  54.281  1.00  0.00    -0.029 C 
HETATM   29  C   UNL     1       6.598  24.155  53.007  1.00  0.00     0.051 C 
HETATM   30  C   UNL     1       8.340  23.402  54.653  1.00  0.00    -0.054 C 
HETATM   31  C   UNL     1       8.723  22.268  53.736  1.00  0.00     0.049 C 
HETATM   32  C   UNL     1       8.927  23.448  55.925  1.00  0.00     0.007 C 
HETATM   33  C   UNL     1       8.595  24.459  56.814  1.00  0.00     0.003 C 
HETATM   34  C   UNL     1       7.722  25.469  56.419  1.00  0.00     0.030 C 
ENDBRANCH  24  27
ENDBRANCH  22  23
ENDBRANCH  19  22
ENDBRANCH   1  18
TORSDOF 10
ENDMDL
MODEL 10
REMARK VINA RESULT:      -8.7      2.337      3.200
REMARK  10 active torsions:
REMARK  status: ('A' for Active; 'I' for Inactive)
REMARK    1  A    between atoms: C_2  and  O_3 
REMARK    2  A    between atoms: O_3  and  C_4 
REMARK    3  A    between atoms: C_4  and  C_5 
REMARK    4  A    between atoms: C_6  and  C_7 
REMARK    5  A    between atoms: C_7  and  O_8 
REMARK    6  A    between atoms: O_8  and  C_9 
REMARK    7  A    between atoms: C_9  and  C_10 
REMARK       I    between atoms: C_10  and  N_11 
REMARK    8  A    between atoms: N_11  and  C_12 
REMARK    9  A    between atoms: C_12  and  C_13 
REMARK       I    between atoms: C_13  and  N_14 
REMARK   10  A    between atoms: N_14  and  C_15 
ROOT
HETATM    1  C   UNL     1       5.182  26.965  56.602  1.00  0.00     0.281 C 
ENDROOT
BRANCH   1   2
HETATM    2  O   UNL     1       5.489  26.314  55.376  1.00  0.00    -0.307 OA
BRANCH   2   3
HETATM    3  C   UNL     1       6.824  26.232  55.101  1.00  0.00     0.318 C 
HETATM    4  O   UNL     1       7.586  27.196  55.118  1.00  0.00    -0.257 OA
BRANCH   3   5
HETATM    5  C   UNL     1       7.167  24.880  54.715  1.00  0.00     0.160 A 
HETATM    6  C   UNL     1       7.359  24.306  53.464  1.00  0.00     0.018 A 
HETATM    7  C   UNL     1       7.612  22.919  53.695  1.00  0.00     0.009 A 
HETATM    8  C   UNL     1       7.580  22.748  55.072  1.00  0.00     0.087 A 
HETATM    9  C   UNL     1       7.871  21.791  52.892  1.00  0.00     0.015 A 
HETATM   10  O   UNL     1       7.313  23.926  55.689  1.00  0.00    -0.303 OA
HETATM   11  C   UNL     1       7.790  21.532  55.719  1.00  0.00     0.038 A 
HETATM   12  C   UNL     1       8.042  20.425  54.903  1.00  0.00     0.003 A 
HETATM   13  C   UNL     1       8.081  20.550  53.513  1.00  0.00     0.001 A 
BRANCH   6  14
HETATM   14  C   UNL     1       7.343  25.012  52.157  1.00  0.00     0.210 C 
BRANCH  14  15
HETATM   15  O   UNL     1       6.002  25.324  51.790  1.00  0.00    -0.387 OA
BRANCH  15  16
HETATM   16  C   UNL     1       5.862  26.663  51.330  1.00  0.00     0.163 C 
HETATM   17  C   UNL     1       4.738  27.323  52.105  1.00  0.00     0.033 C 
ENDBRANCH  15  16
ENDBRANCH  14  15
ENDBRANCH   6  14
ENDBRANCH   3   5
ENDBRANCH   2   3
ENDBRANCH   1   2
BRANCH   1  18
HETATM   18  C   UNL     1       4.489  28.324  56.456  1.00  0.00     0.242 C 
HETATM   19  N   UNL     1       4.507  29.100  57.597  1.00  0.00    -0.350 N 
HETATM   20  H   UNL     1       4.845  28.718  58.471  1.00  0.00     0.163 HD
HETATM   21  O   UNL     1       3.962  28.688  55.411  1.00  0.00    -0.271 OA
BRANCH  19  22
HETATM   22  C   UNL     1       3.979  30.455  57.593  1.00  0.00     0.225 C 
BRANCH  22  23
HETATM   23  C   UNL     1       3.995  31.197  58.937  1.00  0.00     0.239 C 
HETATM   24  N   UNL     1       5.196  31.833  59.210  1.00  0.00    -0.325 N 
HETATM   25  H   UNL     1       6.004  31.354  58.818  1.00  0.00     0.169 HD
HETATM   26  O   UNL     1       2.969  31.257  59.609  1.00  0.00    -0.271 OA
BRANCH  24  27
HETATM   27  C   UNL     1       5.466  32.720  60.282  1.00  0.00     0.041 C 
HETATM   28  C   UNL     1       4.877  33.987  60.490  1.00  0.00    -0.029 C 
HETATM   29  C   UNL     1       4.027  34.676  59.451  1.00  0.00     0.051 C 
HETATM   30  C   UNL     1       5.135  34.677  61.706  1.00  0.00    -0.054 C 
HETATM   31  C   UNL     1       4.448  35.975  62.048  1.00  0.00     0.049 C 
HETATM   32  C   UNL     1       6.088  34.179  62.604  1.00  0.00     0.007 C 
HETATM   33  C   UNL     1       6.762  32.999  62.329  1.00  0.00     0.003 C 
HETATM   34  C   UNL     1       6.444  32.271  61.185  1.00  0.00     0.030 C 
ENDBRANCH  24  27
ENDBRANCH  22  23
ENDBRANCH  19  22
ENDBRANCH   1  18
TORSDOF 10
ENDMDL
