MODEL 1
REMARK VINA RESULT:     -10.4      0.000      0.000
REMARK  6 active torsions:
REMARK  status: ('A' for Active; 'I' for Inactive)
REMARK    1  A    between atoms: C_6  and  S_7 
REMARK    2  A    between atoms: S_7  and  C_8 
REMARK    3  A    between atoms: C_8  and  C_9 
REMARK    4  A    between atoms: C_9  and  C_10 
REMARK    5  A    between atoms: C_19  and  N_20 
REMARK    6  A    between atoms: N_20  and  C_21 
ROOT
HETATM    1  C   UNL     1       7.580  23.400  55.890  1.00  0.00     0.001 A 
HETATM    2  C   UNL     1       6.722  24.443  55.548  1.00  0.00     0.018 A 
HETATM    3  C   UNL     1       6.860  25.726  56.140  1.00  0.00     0.039 A 
HETATM    4  C   UNL     1       7.863  25.936  57.092  1.00  0.00     0.073 A 
HETATM    5  N   UNL     1       8.042  27.106  57.711  1.00  0.00    -0.222 NA
HETATM    6  C   UNL     1       7.207  28.102  57.390  1.00  0.00     0.191 A 
HETATM    7  N   UNL     1       6.221  28.017  56.492  1.00  0.00    -0.204 NA
HETATM    8  C   UNL     1       6.048  26.843  55.862  1.00  0.00     0.143 A 
HETATM    9  C   UNL     1       8.709  24.881  57.415  1.00  0.00     0.032 A 
HETATM   10  C   UNL     1       8.580  23.622  56.824  1.00  0.00     0.002 A 
ENDROOT
BRANCH   6  11
HETATM   11  S   UNL     1       7.401  29.670  58.199  1.00  0.00    -0.082 SA
BRANCH  11  12
HETATM   12  C   UNL     1       9.193  29.892  58.013  1.00  0.00     0.166 C 
BRANCH  12  13
HETATM   13  C   UNL     1       9.699  31.150  58.696  1.00  0.00     0.169 C 
HETATM   14  O   UNL     1      10.535  31.911  58.212  1.00  0.00    -0.291 OA
BRANCH  13  15
HETATM   15  C   UNL     1       9.153  31.475  60.054  1.00  0.00     0.011 A 
HETATM   16  C   UNL     1       9.449  30.708  61.190  1.00  0.00     0.017 A 
HETATM   17  C   UNL     1       8.910  31.056  62.434  1.00  0.00     0.025 A 
HETATM   18  C   UNL     1       8.080  32.170  62.550  1.00  0.00     0.034 A 
HETATM   19 CL   UNL     1       7.423  32.590  64.082  1.00  0.00    -0.084 Cl
HETATM   20  C   UNL     1       7.781  32.942  61.431  1.00  0.00     0.025 A 
HETATM   21  C   UNL     1       8.317  32.595  60.186  1.00  0.00     0.017 A 
ENDBRANCH  13  15
ENDBRANCH  12  13
ENDBRANCH  11  12
ENDBRANCH   6  11
BRANCH   8  22
HETATM   22  N   UNL     1       5.026  26.714  54.884  1.00  0.00    -0.340 N 
HETATM   23  H   UNL     1       4.473  25.887  55.089  1.00  0.00     0.167 HD
BRANCH  22  24
HETATM   24  C   UNL     1       5.069  26.971  53.494  1.00  0.00     0.036 A 
HETATM   25  C   UNL     1       5.333  28.286  53.067  1.00  0.00     0.069 A 
HETATM   26  C   UNL     1       5.469  28.531  51.715  1.00  0.00     0.107 A 
HETATM   27  C   UNL     1       5.375  27.528  50.784  1.00  0.00     0.105 A 
HETATM   28  O   UNL     1       5.718  29.743  51.150  1.00  0.00    -0.323 OA
HETATM   29  O   UNL     1       5.549  27.979  49.514  1.00  0.00    -0.323 OA
HETATM   30  C   UNL     1       5.148  26.223  51.155  1.00  0.00     0.042 A 
HETATM   31  C   UNL     1       5.767  29.384  49.754  1.00  0.00     0.352 A 
HETATM   32  C   UNL     1       5.011  25.948  52.523  1.00  0.00     0.032 A 
ENDBRANCH  22  24
ENDBRANCH   8  22
TORSDOF 6
ENDMDL
MODEL 2
REMARK VINA RESULT:     -10.2      4.161      9.762
REMARK  6 active torsions:
REMARK  status: ('A' for Active; 'I' for Inactive)
REMARK    1  A    between atoms: C_6  and  S_7 
REMARK    2  A    between atoms: S_7  and  C_8 
REMARK    3  A    between atoms: C_8  and  C_9 
REMARK    4  A    between atoms: C_9  and  C_10 
REMARK    5  A    between atoms: C_19  and  N_20 
REMARK    6  A    between atoms: N_20  and  C_21 
ROOT
HETATM    1  C   UNL     1      11.049  30.856  57.774  1.00  0.00     0.001 A 
HETATM    2  C   UNL     1       9.765  31.176  58.209  1.00  0.00     0.018 A 
HETATM    3  C   UNL     1       8.666  30.319  57.933  1.00  0.00     0.039 A 
HETATM    4  C   UNL     1       8.879  29.147  57.199  1.00  0.00     0.073 A 
HETATM    5  N   UNL     1       7.895  28.303  56.880  1.00  0.00    -0.222 NA
HETATM    6  C   UNL     1       6.659  28.620  57.287  1.00  0.00     0.191 A 
HETATM    7  N   UNL     1       6.342  29.707  57.998  1.00  0.00    -0.204 NA
HETATM    8  C   UNL     1       7.335  30.550  58.329  1.00  0.00     0.143 A 
HETATM    9  C   UNL     1      10.170  28.848  56.779  1.00  0.00     0.032 A 
HETATM   10  C   UNL     1      11.252  29.685  57.060  1.00  0.00     0.002 A 
ENDROOT
BRANCH   6  11
HETATM   11  S   UNL     1       5.319  27.533  56.871  1.00  0.00    -0.082 SA
BRANCH  11  12
HETATM   12  C   UNL     1       6.255  26.023  56.497  1.00  0.00     0.166 C 
BRANCH  12  13
HETATM   13  C   UNL     1       6.182  25.641  55.029  1.00  0.00     0.169 C 
HETATM   14  O   UNL     1       5.608  26.307  54.168  1.00  0.00    -0.291 OA
BRANCH  13  15
HETATM   15  C   UNL     1       6.839  24.361  54.607  1.00  0.00     0.011 A 
HETATM   16  C   UNL     1       7.126  23.326  55.509  1.00  0.00     0.017 A 
HETATM   17  C   UNL     1       7.743  22.152  55.061  1.00  0.00     0.025 A 
HETATM   18  C   UNL     1       8.071  22.005  53.714  1.00  0.00     0.034 A 
HETATM   19 CL   UNL     1       8.828  20.559  53.173  1.00  0.00    -0.084 Cl
HETATM   20  C   UNL     1       7.788  23.022  52.808  1.00  0.00     0.025 A 
HETATM   21  C   UNL     1       7.173  24.197  53.253  1.00  0.00     0.017 A 
ENDBRANCH  13  15
ENDBRANCH  12  13
ENDBRANCH  11  12
ENDBRANCH   6  11
BRANCH   8  22
HETATM   22  N   UNL     1       7.045  31.706  59.102  1.00  0.00    -0.340 N 
HETATM   23  H   UNL     1       7.190  32.533  58.530  1.00  0.00     0.167 HD
BRANCH  22  24
HETATM   24  C   UNL     1       7.316  31.971  60.465  1.00  0.00     0.036 A 
HETATM   25  C   UNL     1       6.624  33.023  61.091  1.00  0.00     0.069 A 
HETATM   26  C   UNL     1       6.811  33.232  62.443  1.00  0.00     0.107 A 
HETATM   27  C   UNL     1       7.635  32.430  63.192  1.00  0.00     0.105 A 
HETATM   28  O   UNL     1       6.220  34.207  63.184  1.00  0.00    -0.323 OA
HETATM   29  O   UNL     1       7.672  32.799  64.499  1.00  0.00    -0.323 OA
HETATM   30  C   UNL     1       8.310  31.372  62.630  1.00  0.00     0.042 A 
HETATM   31  C   UNL     1       6.771  33.925  64.487  1.00  0.00     0.352 A 
HETATM   32  C   UNL     1       8.131  31.136  61.260  1.00  0.00     0.032 A 
ENDBRANCH  22  24
ENDBRANCH   8  22
TORSDOF 6
ENDMDL
MODEL 3
REMARK VINA RESULT:     -10.0      3.009      4.440
REMARK  6 active torsions:
REMARK  status: ('A' for Active; 'I' for Inactive)
REMARK    1  A    between atoms: C_6  and  S_7 
REMARK    2  A    between atoms: S_7  and  C_8 
REMARK    3  A    between atoms: C_8  and  C_9 
REMARK    4  A    between atoms: C_9  and  C_10 
REMARK    5  A    between atoms: C_19  and  N_20 
REMARK    6  A    between atoms: N_20  and  C_21 
ROOT
HETATM    1  C   UNL     1       3.861  28.586  54.800  1.00  0.00     0.001 A 
HETATM    2  C   UNL     1       5.059  28.050  54.333  1.00  0.00     0.018 A 
HETATM    3  C   UNL     1       6.302  28.431  54.905  1.00  0.00     0.039 A 
HETATM    4  C   UNL     1       6.318  29.371  55.941  1.00  0.00     0.073 A 
HETATM    5  N   UNL     1       7.447  29.798  56.514  1.00  0.00    -0.222 NA
HETATM    6  C   UNL     1       8.597  29.292  56.054  1.00  0.00     0.191 A 
HETATM    7  N   UNL     1       8.699  28.385  55.076  1.00  0.00    -0.204 NA
HETATM    8  C   UNL     1       7.563  27.948  54.508  1.00  0.00     0.143 A 
HETATM    9  C   UNL     1       5.110  29.890  56.392  1.00  0.00     0.032 A 
HETATM   10  C   UNL     1       3.887  29.506  55.837  1.00  0.00     0.002 A 
ENDROOT
BRANCH   6  11
HETATM   11  S   UNL     1      10.121  29.842  56.778  1.00  0.00    -0.082 SA
BRANCH  11  12
HETATM   12  C   UNL     1       9.595  30.014  58.507  1.00  0.00     0.166 C 
BRANCH  12  13
HETATM   13  C   UNL     1       9.626  31.455  58.986  1.00  0.00     0.169 C 
HETATM   14  O   UNL     1      10.272  32.350  58.444  1.00  0.00    -0.291 OA
BRANCH  13  15
HETATM   15  C   UNL     1       8.827  31.802  60.206  1.00  0.00     0.011 A 
HETATM   16  C   UNL     1       9.370  31.772  61.498  1.00  0.00     0.017 A 
HETATM   17  C   UNL     1       8.579  32.104  62.604  1.00  0.00     0.025 A 
HETATM   18  C   UNL     1       7.246  32.471  62.424  1.00  0.00     0.034 A 
HETATM   19 CL   UNL     1       6.280  32.878  63.787  1.00  0.00    -0.084 Cl
HETATM   20  C   UNL     1       6.694  32.509  61.146  1.00  0.00     0.025 A 
HETATM   21  C   UNL     1       7.483  32.176  60.040  1.00  0.00     0.017 A 
ENDBRANCH  13  15
ENDBRANCH  12  13
ENDBRANCH  11  12
ENDBRANCH   6  11
BRANCH   8  22
HETATM   22  N   UNL     1       7.624  26.969  53.480  1.00  0.00    -0.340 N 
HETATM   23  H   UNL     1       6.998  27.238  52.727  1.00  0.00     0.167 HD
BRANCH  22  24
HETATM   24  C   UNL     1       7.732  25.563  53.580  1.00  0.00     0.036 A 
HETATM   25  C   UNL     1       7.697  24.979  54.859  1.00  0.00     0.069 A 
HETATM   26  C   UNL     1       7.709  23.603  54.964  1.00  0.00     0.107 A 
HETATM   27  C   UNL     1       7.733  22.793  53.857  1.00  0.00     0.105 A 
HETATM   28  O   UNL     1       7.685  22.895  56.126  1.00  0.00    -0.323 OA
HETATM   29  O   UNL     1       7.731  21.472  54.178  1.00  0.00    -0.323 OA
HETATM   30  C   UNL     1       7.738  23.316  52.585  1.00  0.00     0.042 A 
HETATM   31  C   UNL     1       7.699  21.545  55.618  1.00  0.00     0.352 A 
HETATM   32  C   UNL     1       7.721  24.711  52.453  1.00  0.00     0.032 A 
ENDBRANCH  22  24
ENDBRANCH   8  22
TORSDOF 6
ENDMDL
MODEL 4
REMARK VINA RESULT:      -9.9      2.884      4.689
REMARK  6 active torsions:
REMARK  status: ('A' for Active; 'I' for Inactive)
REMARK    1  A    between atoms: C_6  and  S_7 
REMARK    2  A    between atoms: S_7  and  C_8 
REMARK    3  A    between atoms: C_8  and  C_9 
REMARK    4  A    between atoms: C_9  and  C_10 
REMARK    5  A    between atoms: C_19  and  N_20 
REMARK    6  A    between atoms: N_20  and  C_21 
ROOT
HETATM    1  C   UNL     1       3.982  28.591  55.258  1.00  0.00     0.001 A 
HETATM    2  C   UNL     1       4.867  27.768  55.949  1.00  0.00     0.018 A 
HETATM    3  C   UNL     1       5.981  28.312  56.642  1.00  0.00     0.039 A 
HETATM    4  C   UNL     1       6.197  29.694  56.612  1.00  0.00     0.073 A 
HETATM    5  N   UNL     1       7.234  30.278  57.217  1.00  0.00    -0.222 NA
HETATM    6  C   UNL     1       8.091  29.483  57.869  1.00  0.00     0.191 A 
HETATM    7  N   UNL     1       7.979  28.154  57.970  1.00  0.00    -0.204 NA
HETATM    8  C   UNL     1       6.929  27.568  57.370  1.00  0.00     0.143 A 
HETATM    9  C   UNL     1       5.299  30.495  55.917  1.00  0.00     0.032 A 
HETATM   10  C   UNL     1       4.196  29.961  55.246  1.00  0.00     0.002 A 
ENDROOT
BRANCH   6  11
HETATM   11  S   UNL     1       9.491  30.218  58.676  1.00  0.00    -0.082 SA
BRANCH  11  12
HETATM   12  C   UNL     1       8.767  30.545  60.309  1.00  0.00     0.166 C 
BRANCH  12  13
HETATM   13  C   UNL     1       8.559  32.027  60.568  1.00  0.00     0.169 C 
HETATM   14  O   UNL     1       9.061  32.924  59.893  1.00  0.00    -0.291 OA
BRANCH  13  15
HETATM   15  C   UNL     1       7.698  32.419  61.731  1.00  0.00     0.011 A 
HETATM   16  C   UNL     1       6.331  32.698  61.599  1.00  0.00     0.017 A 
HETATM   17  C   UNL     1       5.574  33.061  62.719  1.00  0.00     0.025 A 
HETATM   18  C   UNL     1       6.177  33.142  63.973  1.00  0.00     0.034 A 
HETATM   19 CL   UNL     1       5.239  33.587  65.344  1.00  0.00    -0.084 Cl
HETATM   20  C   UNL     1       7.532  32.863  64.120  1.00  0.00     0.025 A 
HETATM   21  C   UNL     1       8.291  32.503  63.001  1.00  0.00     0.017 A 
ENDBRANCH  13  15
ENDBRANCH  12  13
ENDBRANCH  11  12
ENDBRANCH   6  11
BRANCH   8  22
HETATM   22  N   UNL     1       6.760  26.161  57.469  1.00  0.00    -0.340 N 
HETATM   23  H   UNL     1       6.711  25.900  58.449  1.00  0.00     0.167 HD
BRANCH  22  24
HETATM   24  C   UNL     1       7.331  25.127  56.691  1.00  0.00     0.036 A 
HETATM   25  C   UNL     1       6.712  24.787  55.475  1.00  0.00     0.069 A 
HETATM   26  C   UNL     1       7.311  23.844  54.663  1.00  0.00     0.107 A 
HETATM   27  C   UNL     1       8.500  23.249  55.001  1.00  0.00     0.105 A 
HETATM   28  O   UNL     1       6.833  23.409  53.466  1.00  0.00    -0.323 OA
HETATM   29  O   UNL     1       8.922  22.360  54.064  1.00  0.00    -0.323 OA
HETATM   30  C   UNL     1       9.158  23.570  56.165  1.00  0.00     0.042 A 
HETATM   31  C   UNL     1       7.861  22.467  53.093  1.00  0.00     0.352 A 
HETATM   32  C   UNL     1       8.572  24.529  57.003  1.00  0.00     0.032 A 
ENDBRANCH  22  24
ENDBRANCH   8  22
TORSDOF 6
ENDMDL
MODEL 5
REMARK VINA RESULT:      -9.9      4.389      9.936
REMARK  6 active torsions:
REMARK  status: ('A' for Active; 'I' for Inactive)
REMARK    1  A    between atoms: C_6  and  S_7 
REMARK    2  A    between atoms: S_7  and  C_8 
REMARK    3  A    between atoms: C_8  and  C_9 
REMARK    4  A    between atoms: C_9  and  C_10 
REMARK    5  A    between atoms: C_19  and  N_20 
REMARK    6  A    between atoms: N_20  and  C_21 
ROOT
HETATM    1  C   UNL     1       3.865  32.298  56.865  1.00  0.00     0.001 A 
HETATM    2  C   UNL     1       5.104  32.099  57.470  1.00  0.00     0.018 A 
HETATM    3  C   UNL     1       5.709  30.814  57.491  1.00  0.00     0.039 A 
HETATM    4  C   UNL     1       5.038  29.732  56.910  1.00  0.00     0.073 A 
HETATM    5  N   UNL     1       5.529  28.490  56.910  1.00  0.00    -0.222 NA
HETATM    6  C   UNL     1       6.714  28.300  57.505  1.00  0.00     0.191 A 
HETATM    7  N   UNL     1       7.444  29.259  58.084  1.00  0.00    -0.204 NA
HETATM    8  C   UNL     1       6.955  30.510  58.073  1.00  0.00     0.143 A 
HETATM    9  C   UNL     1       3.804  29.956  56.310  1.00  0.00     0.032 A 
HETATM   10  C   UNL     1       3.215  31.222  56.280  1.00  0.00     0.002 A 
ENDROOT
BRANCH   6  11
HETATM   11  S   UNL     1       7.396  26.662  57.540  1.00  0.00    -0.082 SA
BRANCH  11  12
HETATM   12  C   UNL     1       7.486  26.328  55.757  1.00  0.00     0.166 C 
BRANCH  12  13
HETATM   13  C   UNL     1       6.495  25.268  55.312  1.00  0.00     0.169 C 
HETATM   14  O   UNL     1       5.276  25.359  55.448  1.00  0.00    -0.291 OA
BRANCH  13  15
HETATM   15  C   UNL     1       7.042  24.023  54.680  1.00  0.00     0.011 A 
HETATM   16  C   UNL     1       7.270  23.914  53.301  1.00  0.00     0.017 A 
HETATM   17  C   UNL     1       7.781  22.727  52.763  1.00  0.00     0.025 A 
HETATM   18  C   UNL     1       8.069  21.648  53.598  1.00  0.00     0.034 A 
HETATM   19 CL   UNL     1       8.697  20.194  52.929  1.00  0.00    -0.084 Cl
HETATM   20  C   UNL     1       7.850  21.744  54.969  1.00  0.00     0.025 A 
HETATM   21  C   UNL     1       7.338  22.929  55.509  1.00  0.00     0.017 A 
ENDBRANCH  13  15
ENDBRANCH  12  13
ENDBRANCH  11  12
ENDBRANCH   6  11
BRANCH   8  22
HETATM   22  N   UNL     1       7.708  31.563  58.658  1.00  0.00    -0.340 N 
HETATM   23  H   UNL     1       8.581  31.670  58.151  1.00  0.00     0.167 HD
BRANCH  22  24
HETATM   24  C   UNL     1       7.859  31.914  60.020  1.00  0.00     0.036 A 
HETATM   25  C   UNL     1       6.731  32.381  60.718  1.00  0.00     0.069 A 
HETATM   26  C   UNL     1       6.845  32.640  62.070  1.00  0.00     0.107 A 
HETATM   27  C   UNL     1       8.018  32.433  62.750  1.00  0.00     0.105 A 
HETATM   28  O   UNL     1       5.850  33.099  62.876  1.00  0.00    -0.323 OA
HETATM   29  O   UNL     1       7.915  32.739  64.070  1.00  0.00    -0.323 OA
HETATM   30  C   UNL     1       9.139  31.950  62.117  1.00  0.00     0.042 A 
HETATM   31  C   UNL     1       6.538  33.159  64.143  1.00  0.00     0.352 A 
HETATM   32  C   UNL     1       9.047  31.675  60.745  1.00  0.00     0.032 A 
ENDBRANCH  22  24
ENDBRANCH   8  22
TORSDOF 6
ENDMDL
MODEL 6
REMARK VINA RESULT:      -9.9      2.445      3.639
REMARK  6 active torsions:
REMARK  status: ('A' for Active; 'I' for Inactive)
REMARK    1  A    between atoms: C_6  and  S_7 
REMARK    2  A    between atoms: S_7  and  C_8 
REMARK    3  A    between atoms: C_8  and  C_9 
REMARK    4  A    between atoms: C_9  and  C_10 
REMARK    5  A    between atoms: C_19  and  N_20 
REMARK    6  A    between atoms: N_20  and  C_21 
ROOT
HETATM    1  C   UNL     1       8.337  20.563  53.025  1.00  0.00     0.001 A 
HETATM    2  C   UNL     1       7.642  21.765  52.912  1.00  0.00     0.018 A 
HETATM    3  C   UNL     1       7.683  22.733  53.951  1.00  0.00     0.039 A 
HETATM    4  C   UNL     1       8.420  22.463  55.110  1.00  0.00     0.073 A 
HETATM    5  N   UNL     1       8.488  23.310  56.139  1.00  0.00    -0.222 NA
HETATM    6  C   UNL     1       7.807  24.458  56.034  1.00  0.00     0.191 A 
HETATM    7  N   UNL     1       7.078  24.823  54.974  1.00  0.00    -0.204 NA
HETATM    8  C   UNL     1       7.020  23.975  53.933  1.00  0.00     0.143 A 
HETATM    9  C   UNL     1       9.107  21.257  55.198  1.00  0.00     0.032 A 
HETATM   10  C   UNL     1       9.076  20.311  54.171  1.00  0.00     0.002 A 
ENDROOT
BRANCH   6  11
HETATM   11  S   UNL     1       7.859  25.607  57.386  1.00  0.00    -0.082 SA
BRANCH  11  12
HETATM   12  C   UNL     1       6.937  26.988  56.651  1.00  0.00     0.166 C 
BRANCH  12  13
HETATM   13  C   UNL     1       7.844  28.114  56.188  1.00  0.00     0.169 C 
HETATM   14  O   UNL     1       8.197  28.283  55.023  1.00  0.00    -0.291 OA
BRANCH  13  15
HETATM   15  C   UNL     1       8.351  29.073  57.224  1.00  0.00     0.011 A 
HETATM   16  C   UNL     1       7.597  29.437  58.349  1.00  0.00     0.017 A 
HETATM   17  C   UNL     1       8.119  30.338  59.285  1.00  0.00     0.025 A 
HETATM   18  C   UNL     1       9.393  30.874  59.104  1.00  0.00     0.034 A 
HETATM   19 CL   UNL     1      10.027  31.979  60.259  1.00  0.00    -0.084 Cl
HETATM   20  C   UNL     1      10.154  30.518  57.994  1.00  0.00     0.025 A 
HETATM   21  C   UNL     1       9.633  29.619  57.056  1.00  0.00     0.017 A 
ENDBRANCH  13  15
ENDBRANCH  12  13
ENDBRANCH  11  12
ENDBRANCH   6  11
BRANCH   8  22
HETATM   22  N   UNL     1       6.274  24.331  52.778  1.00  0.00    -0.340 N 
HETATM   23  H   UNL     1       6.673  23.867  51.968  1.00  0.00     0.167 HD
BRANCH  22  24
HETATM   24  C   UNL     1       5.698  25.574  52.425  1.00  0.00     0.036 A 
HETATM   25  C   UNL     1       5.717  25.958  51.072  1.00  0.00     0.069 A 
HETATM   26  C   UNL     1       5.077  27.125  50.702  1.00  0.00     0.107 A 
HETATM   27  C   UNL     1       4.409  27.904  51.613  1.00  0.00     0.105 A 
HETATM   28  O   UNL     1       5.013  27.628  49.440  1.00  0.00    -0.323 OA
HETATM   29  O   UNL     1       3.842  29.000  51.043  1.00  0.00    -0.323 OA
HETATM   30  C   UNL     1       4.338  27.554  52.941  1.00  0.00     0.042 A 
HETATM   31  C   UNL     1       4.227  28.818  49.666  1.00  0.00     0.352 A 
HETATM   32  C   UNL     1       4.975  26.371  53.340  1.00  0.00     0.032 A 
ENDBRANCH  22  24
ENDBRANCH   8  22
TORSDOF 6
ENDMDL
MODEL 7
REMARK VINA RESULT:      -9.9      4.000      9.389
REMARK  6 active torsions:
REMARK  status: ('A' for Active; 'I' for Inactive)
REMARK    1  A    between atoms: C_6  and  S_7 
REMARK    2  A    between atoms: S_7  and  C_8 
REMARK    3  A    between atoms: C_8  and  C_9 
REMARK    4  A    between atoms: C_9  and  C_10 
REMARK    5  A    between atoms: C_19  and  N_20 
REMARK    6  A    between atoms: N_20  and  C_21 
ROOT
HETATM    1  C   UNL     1       4.311  31.013  56.645  1.00  0.00     0.001 A 
HETATM    2  C   UNL     1       5.559  30.919  57.259  1.00  0.00     0.018 A 
HETATM    3  C   UNL     1       6.225  29.670  57.371  1.00  0.00     0.039 A 
HETATM    4  C   UNL     1       5.608  28.518  56.872  1.00  0.00     0.073 A 
HETATM    5  N   UNL     1       6.159  27.305  56.961  1.00  0.00    -0.222 NA
HETATM    6  C   UNL     1       7.352  27.216  57.563  1.00  0.00     0.191 A 
HETATM    7  N   UNL     1       8.034  28.248  58.069  1.00  0.00    -0.204 NA
HETATM    8  C   UNL     1       7.484  29.471  57.969  1.00  0.00     0.143 A 
HETATM    9  C   UNL     1       4.365  28.637  56.262  1.00  0.00     0.032 A 
HETATM   10  C   UNL     1       3.715  29.868  56.141  1.00  0.00     0.002 A 
ENDROOT
BRANCH   6  11
HETATM   11  S   UNL     1       8.113  25.620  57.715  1.00  0.00    -0.082 SA
BRANCH  11  12
HETATM   12  C   UNL     1       6.989  24.644  56.676  1.00  0.00     0.166 C 
BRANCH  12  13
HETATM   13  C   UNL     1       7.633  24.207  55.371  1.00  0.00     0.169 C 
HETATM   14  O   UNL     1       8.643  23.510  55.297  1.00  0.00    -0.291 OA
BRANCH  13  15
HETATM   15  C   UNL     1       7.001  24.671  54.092  1.00  0.00     0.011 A 
HETATM   16  C   UNL     1       7.718  24.777  52.892  1.00  0.00     0.017 A 
HETATM   17  C   UNL     1       7.079  25.217  51.727  1.00  0.00     0.025 A 
HETATM   18  C   UNL     1       5.725  25.549  51.755  1.00  0.00     0.034 A 
HETATM   19 CL   UNL     1       4.948  26.089  50.319  1.00  0.00    -0.084 Cl
HETATM   20  C   UNL     1       5.001  25.446  52.939  1.00  0.00     0.025 A 
HETATM   21  C   UNL     1       5.638  25.007  54.105  1.00  0.00     0.017 A 
ENDBRANCH  13  15
ENDBRANCH  12  13
ENDBRANCH  11  12
ENDBRANCH   6  11
BRANCH   8  22
HETATM   22  N   UNL     1       8.185  30.599  58.474  1.00  0.00    -0.340 N 
HETATM   23  H   UNL     1       9.080  30.673  58.001  1.00  0.00     0.167 HD
BRANCH  22  24
HETATM   24  C   UNL     1       8.259  31.096  59.796  1.00  0.00     0.036 A 
HETATM   25  C   UNL     1       7.316  32.058  60.202  1.00  0.00     0.069 A 
HETATM   26  C   UNL     1       7.321  32.483  61.515  1.00  0.00     0.107 A 
HETATM   27  C   UNL     1       8.204  31.977  62.436  1.00  0.00     0.105 A 
HETATM   28  O   UNL     1       6.480  33.406  62.054  1.00  0.00    -0.323 OA
HETATM   29  O   UNL     1       8.036  32.520  63.670  1.00  0.00    -0.323 OA
HETATM   30  C   UNL     1       9.125  31.015  62.094  1.00  0.00     0.042 A 
HETATM   31  C   UNL     1       6.940  33.424  63.421  1.00  0.00     0.352 A 
HETATM   32  C   UNL     1       9.135  30.564  60.767  1.00  0.00     0.032 A 
ENDBRANCH  22  24
ENDBRANCH   8  22
TORSDOF 6
ENDMDL
MODEL 8
REMARK VINA RESULT:      -9.9      4.820      9.961
REMARK  6 active torsions:
REMARK  status: ('A' for Active; 'I' for Inactive)
REMARK    1  A    between atoms: C_6  and  S_7 
REMARK    2  A    between atoms: S_7  and  C_8 
REMARK    3  A    between atoms: C_8  and  C_9 
REMARK    4  A    between atoms: C_9  and  C_10 
REMARK    5  A    between atoms: C_19  and  N_20 
REMARK    6  A    between atoms: N_20  and  C_21 
ROOT
HETATM    1  C   UNL     1       7.464  23.267  55.042  1.00  0.00     0.001 A 
HETATM    2  C   UNL     1       6.653  24.384  55.228  1.00  0.00     0.018 A 
HETATM    3  C   UNL     1       6.222  25.166  54.123  1.00  0.00     0.039 A 
HETATM    4  C   UNL     1       6.635  24.814  52.833  1.00  0.00     0.073 A 
HETATM    5  N   UNL     1       6.293  25.512  51.747  1.00  0.00    -0.222 NA
HETATM    6  C   UNL     1       5.526  26.594  51.931  1.00  0.00     0.191 A 
HETATM    7  N   UNL     1       5.068  27.018  53.113  1.00  0.00    -0.204 NA
HETATM    8  C   UNL     1       5.403  26.309  54.204  1.00  0.00     0.143 A 
HETATM    9  C   UNL     1       7.442  23.694  52.673  1.00  0.00     0.032 A 
HETATM   10  C   UNL     1       7.856  22.918  53.758  1.00  0.00     0.002 A 
ENDROOT
BRANCH   6  11
HETATM   11  S   UNL     1       5.059  27.558  50.515  1.00  0.00    -0.082 SA
BRANCH  11  12
HETATM   12  C   UNL     1       4.509  26.229  49.407  1.00  0.00     0.166 C 
BRANCH  12  13
HETATM   13  C   UNL     1       4.387  26.686  47.964  1.00  0.00     0.169 C 
HETATM   14  O   UNL     1       5.268  26.548  47.117  1.00  0.00    -0.291 OA
BRANCH  13  15
HETATM   15  C   UNL     1       3.114  27.363  47.552  1.00  0.00     0.011 A 
HETATM   16  C   UNL     1       1.891  26.684  47.465  1.00  0.00     0.017 A 
HETATM   17  C   UNL     1       0.733  27.365  47.073  1.00  0.00     0.025 A 
HETATM   18  C   UNL     1       0.790  28.724  46.770  1.00  0.00     0.034 A 
HETATM   19 CL   UNL     1      -0.638  29.554  46.290  1.00  0.00    -0.084 Cl
HETATM   20  C   UNL     1       1.997  29.412  46.856  1.00  0.00     0.025 A 
HETATM   21  C   UNL     1       3.156  28.733  47.245  1.00  0.00     0.017 A 
ENDBRANCH  13  15
ENDBRANCH  12  13
ENDBRANCH  11  12
ENDBRANCH   6  11
BRANCH   8  22
HETATM   22  N   UNL     1       4.921  26.711  55.478  1.00  0.00    -0.340 N 
HETATM   23  H   UNL     1       3.913  26.600  55.503  1.00  0.00     0.167 HD
BRANCH  22  24
HETATM   24  C   UNL     1       5.340  27.781  56.303  1.00  0.00     0.036 A 
HETATM   25  C   UNL     1       6.553  27.650  57.003  1.00  0.00     0.069 A 
HETATM   26  C   UNL     1       7.017  28.722  57.739  1.00  0.00     0.107 A 
HETATM   27  C   UNL     1       6.339  29.914  57.787  1.00  0.00     0.105 A 
HETATM   28  O   UNL     1       8.164  28.746  58.470  1.00  0.00    -0.323 OA
HETATM   29  O   UNL     1       6.969  30.840  58.557  1.00  0.00    -0.323 OA
HETATM   30  C   UNL     1       5.165  30.100  57.096  1.00  0.00     0.042 A 
HETATM   31  C   UNL     1       8.126  30.093  58.985  1.00  0.00     0.352 A 
HETATM   32  C   UNL     1       4.676  29.027  56.337  1.00  0.00     0.032 A 
ENDBRANCH  22  24
ENDBRANCH   8  22
TORSDOF 6
ENDMDL
MODEL 9
REMARK VINA RESULT:      -9.8      1.679      2.328
REMARK  6 active torsions:
REMARK  status: ('A' for Active; 'I' for Inactive)
REMARK    1  A    between atoms: C_6  and  S_7 
REMARK    2  A    between atoms: S_7  and  C_8 
REMARK    3  A    between atoms: C_8  and  C_9 
REMARK    4  A    between atoms: C_9  and  C_10 
REMARK    5  A    between atoms: C_19  and  N_20 
REMARK    6  A    between atoms: N_20  and  C_21 
ROOT
HETATM    1  C   UNL     1       7.991  22.006  53.179  1.00  0.00     0.001 A 
HETATM    2  C   UNL     1       7.054  23.034  53.250  1.00  0.00     0.018 A 
HETATM    3  C   UNL     1       7.136  24.028  54.261  1.00  0.00     0.039 A 
HETATM    4  C   UNL     1       8.164  23.959  55.207  1.00  0.00     0.073 A 
HETATM    5  N   UNL     1       8.295  24.840  56.202  1.00  0.00    -0.222 NA
HETATM    6  C   UNL     1       7.385  25.820  56.276  1.00  0.00     0.191 A 
HETATM    7  N   UNL     1       6.368  25.987  55.425  1.00  0.00    -0.204 NA
HETATM    8  C   UNL     1       6.243  25.106  54.417  1.00  0.00     0.143 A 
HETATM    9  C   UNL     1       9.089  22.924  55.114  1.00  0.00     0.032 A 
HETATM   10  C   UNL     1       9.015  21.954  54.112  1.00  0.00     0.002 A 
ENDROOT
BRANCH   6  11
HETATM   11  S   UNL     1       7.514  27.005  57.591  1.00  0.00    -0.082 SA
BRANCH  11  12
HETATM   12  C   UNL     1       8.017  28.466  56.638  1.00  0.00     0.166 C 
BRANCH  12  13
HETATM   13  C   UNL     1       9.054  29.306  57.364  1.00  0.00     0.169 C 
HETATM   14  O   UNL     1      10.266  29.226  57.173  1.00  0.00    -0.291 OA
BRANCH  13  15
HETATM   15  C   UNL     1       8.565  30.285  58.389  1.00  0.00     0.011 A 
HETATM   16  C   UNL     1       7.256  30.786  58.392  1.00  0.00     0.017 A 
HETATM   17  C   UNL     1       6.853  31.700  59.372  1.00  0.00     0.025 A 
HETATM   18  C   UNL     1       7.752  32.113  60.354  1.00  0.00     0.034 A 
HETATM   19 CL   UNL     1       7.249  33.235  61.556  1.00  0.00    -0.084 Cl
HETATM   20  C   UNL     1       9.054  31.621  60.366  1.00  0.00     0.025 A 
HETATM   21  C   UNL     1       9.459  30.709  59.386  1.00  0.00     0.017 A 
ENDBRANCH  13  15
ENDBRANCH  12  13
ENDBRANCH  11  12
ENDBRANCH   6  11
BRANCH   8  22
HETATM   22  N   UNL     1       5.189  25.258  53.478  1.00  0.00    -0.340 N 
HETATM   23  H   UNL     1       4.751  24.356  53.320  1.00  0.00     0.167 HD
BRANCH  22  24
HETATM   24  C   UNL     1       5.123  26.070  52.321  1.00  0.00     0.036 A 
HETATM   25  C   UNL     1       5.514  27.417  52.427  1.00  0.00     0.069 A 
HETATM   26  C   UNL     1       5.541  28.194  51.287  1.00  0.00     0.107 A 
HETATM   27  C   UNL     1       5.218  27.684  50.055  1.00  0.00     0.105 A 
HETATM   28  O   UNL     1       5.890  29.508  51.230  1.00  0.00    -0.323 OA
HETATM   29  O   UNL     1       5.318  28.609  49.065  1.00  0.00    -0.323 OA
HETATM   30  C   UNL     1       4.858  26.366  49.897  1.00  0.00     0.042 A 
HETATM   31  C   UNL     1       5.746  29.763  49.817  1.00  0.00     0.352 A 
HETATM   32  C   UNL     1       4.828  25.555  51.040  1.00  0.00     0.032 A 
ENDBRANCH  22  24
ENDBRANCH   8  22
TORSDOF 6
ENDMDL
MODEL 10
REMARK VINA RESULT:      -9.7      3.129      4.093
REMARK  6 active torsions:
REMARK  status: ('A' for Active; 'I' for Inactive)
REMARK    1  A    between atoms: C_6  and  S_7 
REMARK    2  A    between atoms: S_7  and  C_8 
REMARK    3  A    between atoms: C_8  and  C_9 
REMARK    4  A    between atoms: C_9  and  C_10 
REMARK    5  A    between atoms: C_19  and  N_20 
REMARK    6  A    between atoms: N_20  and  C_21 
ROOT
HETATM    1  C   UNL     1       8.591  21.526  53.291  1.00  0.00     0.001 A 
HETATM    2  C   UNL     1       7.991  22.720  52.898  1.00  0.00     0.018 A 
HETATM    3  C   UNL     1       7.332  23.551  53.843  1.00  0.00     0.039 A 
HETATM    4  C   UNL     1       7.272  23.151  55.182  1.00  0.00     0.073 A 
HETATM    5  N   UNL     1       6.650  23.865  56.124  1.00  0.00    -0.222 NA
HETATM    6  C   UNL     1       6.063  25.005  55.742  1.00  0.00     0.191 A 
HETATM    7  N   UNL     1       6.063  25.487  54.494  1.00  0.00    -0.204 NA
HETATM    8  C   UNL     1       6.698  24.774  53.549  1.00  0.00     0.143 A 
HETATM    9  C   UNL     1       7.880  21.957  55.550  1.00  0.00     0.032 A 
HETATM   10  C   UNL     1       8.539  21.145  54.623  1.00  0.00     0.002 A 
ENDROOT
BRANCH   6  11
HETATM   11  S   UNL     1       5.214  25.978  56.960  1.00  0.00    -0.082 SA
BRANCH  11  12
HETATM   12  C   UNL     1       5.022  27.529  56.036  1.00  0.00     0.166 C 
BRANCH  12  13
HETATM   13  C   UNL     1       5.493  28.738  56.824  1.00  0.00     0.169 C 
HETATM   14  O   UNL     1       4.744  29.513  57.415  1.00  0.00    -0.291 OA
BRANCH  13  15
HETATM   15  C   UNL     1       6.967  29.011  56.870  1.00  0.00     0.011 A 
HETATM   16  C   UNL     1       7.798  28.862  55.750  1.00  0.00     0.017 A 
HETATM   17  C   UNL     1       9.168  29.128  55.849  1.00  0.00     0.025 A 
HETATM   18  C   UNL     1       9.713  29.549  57.062  1.00  0.00     0.034 A 
HETATM   19 CL   UNL     1      11.397  29.875  57.175  1.00  0.00    -0.084 Cl
HETATM   20  C   UNL     1       8.899  29.705  58.180  1.00  0.00     0.025 A 
HETATM   21  C   UNL     1       7.529  29.437  58.084  1.00  0.00     0.017 A 
ENDBRANCH  13  15
ENDBRANCH  12  13
ENDBRANCH  11  12
ENDBRANCH   6  11
BRANCH   8  22
HETATM   22  N   UNL     1       6.741  25.259  52.214  1.00  0.00    -0.340 N 
HETATM   23  H   UNL     1       7.710  25.355  51.926  1.00  0.00     0.167 HD
BRANCH  22  24
HETATM   24  C   UNL     1       5.919  26.217  51.577  1.00  0.00     0.036 A 
HETATM   25  C   UNL     1       6.069  27.570  51.935  1.00  0.00     0.069 A 
HETATM   26  C   UNL     1       5.338  28.523  51.255  1.00  0.00     0.107 A 
HETATM   27  C   UNL     1       4.490  28.190  50.229  1.00  0.00     0.105 A 
HETATM   28  O   UNL     1       5.370  29.863  51.488  1.00  0.00    -0.323 OA
HETATM   29  O   UNL     1       3.875  29.274  49.688  1.00  0.00    -0.323 OA
HETATM   30  C   UNL     1       4.332  26.885  49.824  1.00  0.00     0.042 A 
HETATM   31  C   UNL     1       4.439  30.332  50.490  1.00  0.00     0.352 A 
HETATM   32  C   UNL     1       5.068  25.899  50.496  1.00  0.00     0.032 A 
ENDBRANCH  22  24
ENDBRANCH   8  22
TORSDOF 6
ENDMDL
