MODEL 1
REMARK VINA RESULT:      -8.6      0.000      0.000
REMARK  8 active torsions:
REMARK  status: ('A' for Active; 'I' for Inactive)
REMARK    1  A    between atoms: C_2  and  O_3 
REMARK    2  A    between atoms: O_3  and  C_4 
REMARK    3  A    between atoms: C_5  and  O_6 
REMARK    4  A    between atoms: O_6  and  C_7 
REMARK    5  A    between atoms: C_10  and  C_11 
REMARK    6  A    between atoms: C_11  and  N_12 
REMARK    7  A    between atoms: N_12  and  C_13 
REMARK    8  A    between atoms: C_20  and  C_21 
REMARK       I    between atoms: C_21  and  N_22 
ROOT
HETATM    1  C   UNL     1       8.418  28.671  57.298  1.00  0.00     0.009 A 
HETATM    2  C   UNL     1       7.841  29.501  58.278  1.00  0.00     0.039 A 
HETATM    3  C   UNL     1       8.525  30.643  58.744  1.00  0.00     0.030 A 
HETATM    4  C   UNL     1       9.792  30.910  58.244  1.00  0.00     0.063 A 
HETATM    5  N   UNL     1      10.199  32.050  58.877  1.00  0.00    -0.277 N 
HETATM    6  H   UNL     1      11.082  32.535  58.761  1.00  0.00     0.189 HD
HETATM    7  N   UNL     1       9.305  32.555  59.744  1.00  0.00    -0.168 NA
HETATM    8  C   UNL     1       8.265  31.692  59.674  1.00  0.00     0.156 A 
HETATM    9  C   UNL     1      10.422  30.094  57.304  1.00  0.00     0.034 A 
HETATM   10  C   UNL     1       9.714  28.969  56.857  1.00  0.00     0.026 A 
ENDROOT
BRANCH   1  11
HETATM   11  N   UNL     1       7.725  27.514  56.923  1.00  0.00    -0.289 NA
HETATM   12  H   UNL     1       7.872  27.280  55.942  1.00  0.00     0.128 HD
BRANCH  11  13
HETATM   13  C   UNL     1       7.758  26.343  57.785  1.00  0.00     0.131 C 
BRANCH  13  14
HETATM   14  C   UNL     1       7.726  25.091  56.938  1.00  0.00    -0.042 A 
HETATM   15  C   UNL     1       7.025  25.062  55.723  1.00  0.00     0.048 A 
HETATM   16  C   UNL     1       7.007  23.904  54.933  1.00  0.00     0.102 A 
HETATM   17  C   UNL     1       7.703  22.757  55.362  1.00  0.00     0.102 A 
HETATM   18  C   UNL     1       8.382  22.778  56.584  1.00  0.00     0.040 A 
HETATM   19  C   UNL     1       8.392  23.935  57.365  1.00  0.00     0.011 A 
BRANCH  16  20
HETATM   20  O   UNL     1       6.359  23.798  53.727  1.00  0.00    -0.349 OA
BRANCH  20  21
HETATM   21  C   UNL     1       6.486  24.873  52.802  1.00  0.00     0.171 C 
HETATM   22  C   UNL     1       7.854  24.771  52.152  1.00  0.00     0.034 C 
ENDBRANCH  20  21
ENDBRANCH  16  20
BRANCH  17  23
HETATM   23  O   UNL     1       7.647  21.668  54.526  1.00  0.00    -0.349 OA
BRANCH  23  24
HETATM   24  C   UNL     1       8.821  21.339  53.789  1.00  0.00     0.171 C 
HETATM   25  C   UNL     1       8.419  20.405  52.662  1.00  0.00     0.034 C 
ENDBRANCH  23  24
ENDBRANCH  17  23
ENDBRANCH  13  14
ENDBRANCH  11  13
ENDBRANCH   1  11
BRANCH   8  26
HETATM   26  C   UNL     1       7.056  31.885  60.485  1.00  0.00     0.270 C 
HETATM   27  N   UNL     1       7.036  31.154  61.642  1.00  0.00    -0.365 N 
HETATM   28  H   UNL     1       7.826  30.553  61.848  1.00  0.00     0.159 HD
HETATM   29  H   UNL     1       6.247  31.219  62.264  1.00  0.00     0.159 HD
HETATM   30  O   UNL     1       6.127  32.629  60.187  1.00  0.00    -0.266 OA
ENDBRANCH   8  26
TORSDOF 8
ENDMDL
MODEL 2
REMARK VINA RESULT:      -8.5      1.111      2.326
REMARK  8 active torsions:
REMARK  status: ('A' for Active; 'I' for Inactive)
REMARK    1  A    between atoms: C_2  and  O_3 
REMARK    2  A    between atoms: O_3  and  C_4 
REMARK    3  A    between atoms: C_5  and  O_6 
REMARK    4  A    between atoms: O_6  and  C_7 
REMARK    5  A    between atoms: C_10  and  C_11 
REMARK    6  A    between atoms: C_11  and  N_12 
REMARK    7  A    between atoms: N_12  and  C_13 
REMARK    8  A    between atoms: C_20  and  C_21 
REMARK       I    between atoms: C_21  and  N_22 
ROOT
HETATM    1  C   UNL     1       7.848  28.476  57.178  1.00  0.00     0.009 A 
HETATM    2  C   UNL     1       7.460  29.383  58.182  1.00  0.00     0.039 A 
HETATM    3  C   UNL     1       8.307  30.449  58.551  1.00  0.00     0.030 A 
HETATM    4  C   UNL     1       9.543  30.563  57.931  1.00  0.00     0.063 A 
HETATM    5  N   UNL     1      10.130  31.662  58.491  1.00  0.00    -0.277 N 
HETATM    6  H   UNL     1      11.046  32.041  58.282  1.00  0.00     0.189 HD
HETATM    7  N   UNL     1       9.382  32.279  59.421  1.00  0.00    -0.168 NA
HETATM    8  C   UNL     1       8.252  31.538  59.471  1.00  0.00     0.156 A 
HETATM    9  C   UNL     1       9.989  29.664  56.961  1.00  0.00     0.034 A 
HETATM   10  C   UNL     1       9.122  28.617  56.613  1.00  0.00     0.026 A 
ENDROOT
BRANCH   1  11
HETATM   11  N   UNL     1       7.000  27.397  56.900  1.00  0.00    -0.289 NA
HETATM   12  H   UNL     1       6.297  27.266  57.626  1.00  0.00     0.128 HD
BRANCH  11  13
HETATM   13  C   UNL     1       6.454  27.235  55.562  1.00  0.00     0.131 C 
BRANCH  13  14
HETATM   14  C   UNL     1       7.054  26.008  54.916  1.00  0.00    -0.042 A 
HETATM   15  C   UNL     1       7.754  25.061  55.680  1.00  0.00     0.048 A 
HETATM   16  C   UNL     1       8.298  23.918  55.080  1.00  0.00     0.102 A 
HETATM   17  C   UNL     1       8.138  23.713  53.696  1.00  0.00     0.102 A 
HETATM   18  C   UNL     1       7.461  24.667  52.930  1.00  0.00     0.040 A 
HETATM   19  C   UNL     1       6.925  25.805  53.536  1.00  0.00     0.011 A 
BRANCH  16  20
HETATM   20  O   UNL     1       8.983  22.939  55.757  1.00  0.00    -0.349 OA
BRANCH  20  21
HETATM   21  C   UNL     1       8.300  22.235  56.789  1.00  0.00     0.171 C 
HETATM   22  C   UNL     1       8.643  20.762  56.658  1.00  0.00     0.034 C 
ENDBRANCH  20  21
ENDBRANCH  16  20
BRANCH  17  23
HETATM   23  O   UNL     1       8.690  22.562  53.187  1.00  0.00    -0.349 OA
BRANCH  23  24
HETATM   24  C   UNL     1       7.817  21.464  52.938  1.00  0.00     0.171 C 
HETATM   25  C   UNL     1       8.630  20.187  53.043  1.00  0.00     0.034 C 
ENDBRANCH  23  24
ENDBRANCH  17  23
ENDBRANCH  13  14
ENDBRANCH  11  13
ENDBRANCH   1  11
BRANCH   8  26
HETATM   26  C   UNL     1       7.152  31.880  60.382  1.00  0.00     0.270 C 
HETATM   27  N   UNL     1       7.194  31.221  61.581  1.00  0.00    -0.365 N 
HETATM   28  H   UNL     1       7.951  30.567  61.748  1.00  0.00     0.159 HD
HETATM   29  H   UNL     1       6.481  31.389  62.271  1.00  0.00     0.159 HD
HETATM   30  O   UNL     1       6.259  32.682  60.128  1.00  0.00    -0.266 OA
ENDBRANCH   8  26
TORSDOF 8
ENDMDL
MODEL 3
REMARK VINA RESULT:      -8.1      1.666      2.245
REMARK  8 active torsions:
REMARK  status: ('A' for Active; 'I' for Inactive)
REMARK    1  A    between atoms: C_2  and  O_3 
REMARK    2  A    between atoms: O_3  and  C_4 
REMARK    3  A    between atoms: C_5  and  O_6 
REMARK    4  A    between atoms: O_6  and  C_7 
REMARK    5  A    between atoms: C_10  and  C_11 
REMARK    6  A    between atoms: C_11  and  N_12 
REMARK    7  A    between atoms: N_12  and  C_13 
REMARK    8  A    between atoms: C_20  and  C_21 
REMARK       I    between atoms: C_21  and  N_22 
ROOT
HETATM    1  C   UNL     1       7.549  27.941  57.607  1.00  0.00     0.009 A 
HETATM    2  C   UNL     1       8.210  29.060  58.149  1.00  0.00     0.039 A 
HETATM    3  C   UNL     1       7.521  30.276  58.340  1.00  0.00     0.030 A 
HETATM    4  C   UNL     1       6.192  30.356  57.949  1.00  0.00     0.063 A 
HETATM    5  N   UNL     1       5.805  31.633  58.243  1.00  0.00    -0.277 N 
HETATM    6  H   UNL     1       4.893  32.049  58.087  1.00  0.00     0.189 HD
HETATM    7  N   UNL     1       6.765  32.393  58.797  1.00  0.00    -0.168 NA
HETATM    8  C   UNL     1       7.834  31.567  58.860  1.00  0.00     0.156 A 
HETATM    9  C   UNL     1       5.507  29.288  57.370  1.00  0.00     0.034 A 
HETATM   10  C   UNL     1       6.218  28.092  57.196  1.00  0.00     0.026 A 
ENDROOT
BRANCH   1  11
HETATM   11  N   UNL     1       8.299  26.782  57.374  1.00  0.00    -0.289 NA
HETATM   12  H   UNL     1       9.276  26.897  57.641  1.00  0.00     0.128 HD
BRANCH  11  13
HETATM   13  C   UNL     1       7.765  25.487  57.769  1.00  0.00     0.131 C 
BRANCH  13  14
HETATM   14  C   UNL     1       7.726  24.570  56.569  1.00  0.00    -0.042 A 
HETATM   15  C   UNL     1       6.930  24.876  55.454  1.00  0.00     0.048 A 
HETATM   16  C   UNL     1       6.905  24.030  54.337  1.00  0.00     0.102 A 
HETATM   17  C   UNL     1       7.690  22.860  54.331  1.00  0.00     0.102 A 
HETATM   18  C   UNL     1       8.464  22.542  55.450  1.00  0.00     0.040 A 
HETATM   19  C   UNL     1       8.480  23.390  56.560  1.00  0.00     0.011 A 
BRANCH  16  20
HETATM   20  O   UNL     1       6.166  24.265  53.203  1.00  0.00    -0.349 OA
BRANCH  20  21
HETATM   21  C   UNL     1       6.612  25.281  52.312  1.00  0.00     0.171 C 
HETATM   22  C   UNL     1       5.398  25.839  51.592  1.00  0.00     0.034 C 
ENDBRANCH  20  21
ENDBRANCH  16  20
BRANCH  17  23
HETATM   23  O   UNL     1       7.619  22.091  53.194  1.00  0.00    -0.349 OA
BRANCH  23  24
HETATM   24  C   UNL     1       7.633  20.676  53.352  1.00  0.00     0.171 C 
HETATM   25  C   UNL     1       8.969  20.162  52.845  1.00  0.00     0.034 C 
ENDBRANCH  23  24
ENDBRANCH  17  23
ENDBRANCH  13  14
ENDBRANCH  11  13
ENDBRANCH   1  11
BRANCH   8  26
HETATM   26  C   UNL     1       9.118  32.018  59.411  1.00  0.00     0.270 C 
HETATM   27  N   UNL     1       9.129  32.138  60.775  1.00  0.00    -0.365 N 
HETATM   28  H   UNL     1       8.283  31.917  61.287  1.00  0.00     0.159 HD
HETATM   29  H   UNL     1       9.966  32.443  61.245  1.00  0.00     0.159 HD
HETATM   30  O   UNL     1      10.114  32.273  58.742  1.00  0.00    -0.266 OA
ENDBRANCH   8  26
TORSDOF 8
ENDMDL
MODEL 4
REMARK VINA RESULT:      -8.1      5.033      9.796
REMARK  8 active torsions:
REMARK  status: ('A' for Active; 'I' for Inactive)
REMARK    1  A    between atoms: C_2  and  O_3 
REMARK    2  A    between atoms: O_3  and  C_4 
REMARK    3  A    between atoms: C_5  and  O_6 
REMARK    4  A    between atoms: O_6  and  C_7 
REMARK    5  A    between atoms: C_10  and  C_11 
REMARK    6  A    between atoms: C_11  and  N_12 
REMARK    7  A    between atoms: N_12  and  C_13 
REMARK    8  A    between atoms: C_20  and  C_21 
REMARK       I    between atoms: C_21  and  N_22 
ROOT
HETATM    1  C   UNL     1       8.904  31.525  59.167  1.00  0.00     0.009 A 
HETATM    2  C   UNL     1       7.705  31.101  58.564  1.00  0.00     0.039 A 
HETATM    3  C   UNL     1       7.730  30.230  57.455  1.00  0.00     0.030 A 
HETATM    4  C   UNL     1       8.960  29.830  56.950  1.00  0.00     0.063 A 
HETATM    5  N   UNL     1       8.669  29.015  55.893  1.00  0.00    -0.277 N 
HETATM    6  H   UNL     1       9.327  28.545  55.282  1.00  0.00     0.189 HD
HETATM    7  N   UNL     1       7.356  28.843  55.666  1.00  0.00    -0.168 NA
HETATM    8  C   UNL     1       6.762  29.592  56.624  1.00  0.00     0.156 A 
HETATM    9  C   UNL     1      10.173  30.258  57.487  1.00  0.00     0.034 A 
HETATM   10  C   UNL     1      10.115  31.120  58.592  1.00  0.00     0.026 A 
ENDROOT
BRANCH   1  11
HETATM   11  N   UNL     1       8.823  32.444  60.221  1.00  0.00    -0.289 NA
HETATM   12  H   UNL     1       7.980  33.015  60.167  1.00  0.00     0.128 HD
BRANCH  11  13
HETATM   13  C   UNL     1       9.115  32.012  61.579  1.00  0.00     0.131 C 
BRANCH  13  14
HETATM   14  C   UNL     1       7.925  32.294  62.466  1.00  0.00    -0.042 A 
HETATM   15  C   UNL     1       6.630  31.925  62.073  1.00  0.00     0.048 A 
HETATM   16  C   UNL     1       5.530  32.176  62.904  1.00  0.00     0.102 A 
HETATM   17  C   UNL     1       5.726  32.803  64.150  1.00  0.00     0.102 A 
HETATM   18  C   UNL     1       7.013  33.193  64.532  1.00  0.00     0.040 A 
HETATM   19  C   UNL     1       8.103  32.941  63.696  1.00  0.00     0.011 A 
BRANCH  16  20
HETATM   20  O   UNL     1       4.235  31.834  62.600  1.00  0.00    -0.349 OA
BRANCH  20  21
HETATM   21  C   UNL     1       3.655  32.388  61.423  1.00  0.00     0.171 C 
HETATM   22  C   UNL     1       2.970  33.687  61.806  1.00  0.00     0.034 C 
ENDBRANCH  20  21
ENDBRANCH  16  20
BRANCH  17  23
HETATM   23  O   UNL     1       4.599  33.002  64.910  1.00  0.00    -0.349 OA
BRANCH  23  24
HETATM   24  C   UNL     1       4.655  33.997  65.928  1.00  0.00     0.171 C 
HETATM   25  C   UNL     1       3.758  35.148  65.507  1.00  0.00     0.034 C 
ENDBRANCH  23  24
ENDBRANCH  17  23
ENDBRANCH  13  14
ENDBRANCH  11  13
ENDBRANCH   1  11
BRANCH   8  26
HETATM   26  C   UNL     1       5.300  29.681  56.728  1.00  0.00     0.270 C 
HETATM   27  N   UNL     1       4.776  29.018  57.805  1.00  0.00    -0.365 N 
HETATM   28  H   UNL     1       5.409  28.531  58.429  1.00  0.00     0.159 HD
HETATM   29  H   UNL     1       3.780  29.021  57.960  1.00  0.00     0.159 HD
HETATM   30  O   UNL     1       4.580  30.287  55.941  1.00  0.00    -0.266 OA
ENDBRANCH   8  26
TORSDOF 8
ENDMDL
MODEL 5
REMARK VINA RESULT:      -7.9      1.801      3.291
REMARK  8 active torsions:
REMARK  status: ('A' for Active; 'I' for Inactive)
REMARK    1  A    between atoms: C_2  and  O_3 
REMARK    2  A    between atoms: O_3  and  C_4 
REMARK    3  A    between atoms: C_5  and  O_6 
REMARK    4  A    between atoms: O_6  and  C_7 
REMARK    5  A    between atoms: C_10  and  C_11 
REMARK    6  A    between atoms: C_11  and  N_12 
REMARK    7  A    between atoms: N_12  and  C_13 
REMARK    8  A    between atoms: C_20  and  C_21 
REMARK       I    between atoms: C_21  and  N_22 
ROOT
HETATM    1  C   UNL     1       8.084  28.209  57.417  1.00  0.00     0.009 A 
HETATM    2  C   UNL     1       7.668  29.175  58.353  1.00  0.00     0.039 A 
HETATM    3  C   UNL     1       8.448  30.326  58.589  1.00  0.00     0.030 A 
HETATM    4  C   UNL     1       9.649  30.468  57.908  1.00  0.00     0.063 A 
HETATM    5  N   UNL     1      10.175  31.651  58.343  1.00  0.00    -0.277 N 
HETATM    6  H   UNL     1      11.053  32.072  58.061  1.00  0.00     0.189 HD
HETATM    7  N   UNL     1       9.420  32.298  59.246  1.00  0.00    -0.168 NA
HETATM    8  C   UNL     1       8.349  31.488  59.410  1.00  0.00     0.156 A 
HETATM    9  C   UNL     1      10.123  29.517  57.004  1.00  0.00     0.034 A 
HETATM   10  C   UNL     1       9.322  28.385  56.788  1.00  0.00     0.026 A 
ENDROOT
BRANCH   1  11
HETATM   11  N   UNL     1       7.306  27.054  57.274  1.00  0.00    -0.289 NA
HETATM   12  H   UNL     1       7.490  26.373  58.010  1.00  0.00     0.128 HD
BRANCH  11  13
HETATM   13  C   UNL     1       5.888  27.172  56.969  1.00  0.00     0.131 C 
BRANCH  13  14
HETATM   14  C   UNL     1       5.649  26.802  55.523  1.00  0.00    -0.042 A 
HETATM   15  C   UNL     1       6.150  25.602  54.995  1.00  0.00     0.048 A 
HETATM   16  C   UNL     1       5.915  25.255  53.658  1.00  0.00     0.102 A 
HETATM   17  C   UNL     1       5.166  26.119  52.834  1.00  0.00     0.102 A 
HETATM   18  C   UNL     1       4.688  27.325  53.353  1.00  0.00     0.040 A 
HETATM   19  C   UNL     1       4.929  27.664  54.687  1.00  0.00     0.011 A 
BRANCH  16  20
HETATM   20  O   UNL     1       6.357  24.096  53.069  1.00  0.00    -0.349 OA
BRANCH  20  21
HETATM   21  C   UNL     1       7.748  23.974  52.790  1.00  0.00     0.171 C 
HETATM   22  C   UNL     1       8.276  22.774  53.555  1.00  0.00     0.034 C 
ENDBRANCH  20  21
ENDBRANCH  16  20
BRANCH  17  23
HETATM   23  O   UNL     1       4.971  25.701  51.540  1.00  0.00    -0.349 OA
BRANCH  23  24
HETATM   24  C   UNL     1       5.239  26.633  50.497  1.00  0.00     0.171 C 
HETATM   25  C   UNL     1       4.323  26.306  49.331  1.00  0.00     0.034 C 
ENDBRANCH  23  24
ENDBRANCH  17  23
ENDBRANCH  13  14
ENDBRANCH  11  13
ENDBRANCH   1  11
BRANCH   8  26
HETATM   26  C   UNL     1       7.261  31.836  60.334  1.00  0.00     0.270 C 
HETATM   27  N   UNL     1       7.247  31.094  61.484  1.00  0.00    -0.365 N 
HETATM   28  H   UNL     1       7.959  30.384  61.611  1.00  0.00     0.159 HD
HETATM   29  H   UNL     1       6.537  31.259  62.179  1.00  0.00     0.159 HD
HETATM   30  O   UNL     1       6.424  32.709  60.129  1.00  0.00    -0.266 OA
ENDBRANCH   8  26
TORSDOF 8
ENDMDL
MODEL 6
REMARK VINA RESULT:      -7.9      9.200     13.358
REMARK  8 active torsions:
REMARK  status: ('A' for Active; 'I' for Inactive)
REMARK    1  A    between atoms: C_2  and  O_3 
REMARK    2  A    between atoms: O_3  and  C_4 
REMARK    3  A    between atoms: C_5  and  O_6 
REMARK    4  A    between atoms: O_6  and  C_7 
REMARK    5  A    between atoms: C_10  and  C_11 
REMARK    6  A    between atoms: C_11  and  N_12 
REMARK    7  A    between atoms: N_12  and  C_13 
REMARK    8  A    between atoms: C_20  and  C_21 
REMARK       I    between atoms: C_21  and  N_22 
ROOT
HETATM    1  C   UNL     1       6.992  35.278  69.358  1.00  0.00     0.009 A 
HETATM    2  C   UNL     1       6.996  33.957  69.843  1.00  0.00     0.039 A 
HETATM    3  C   UNL     1       7.550  33.658  71.106  1.00  0.00     0.030 A 
HETATM    4  C   UNL     1       8.122  34.687  71.842  1.00  0.00     0.063 A 
HETATM    5  N   UNL     1       8.574  34.102  72.991  1.00  0.00    -0.277 N 
HETATM    6  H   UNL     1       9.053  34.554  73.761  1.00  0.00     0.189 HD
HETATM    7  N   UNL     1       8.343  32.781  73.072  1.00  0.00    -0.168 NA
HETATM    8  C   UNL     1       7.712  32.492  71.910  1.00  0.00     0.156 A 
HETATM    9  C   UNL     1       8.178  36.004  71.385  1.00  0.00     0.034 A 
HETATM   10  C   UNL     1       7.616  36.269  70.127  1.00  0.00     0.026 A 
ENDROOT
BRANCH   1  11
HETATM   11  N   UNL     1       6.492  35.506  68.070  1.00  0.00    -0.289 NA
HETATM   12  H   UNL     1       7.237  35.595  67.380  1.00  0.00     0.128 HD
BRANCH  11  13
HETATM   13  C   UNL     1       5.373  34.716  67.581  1.00  0.00     0.131 C 
BRANCH  13  14
HETATM   14  C   UNL     1       5.732  34.105  66.246  1.00  0.00    -0.042 A 
HETATM   15  C   UNL     1       4.732  33.699  65.348  1.00  0.00     0.048 A 
HETATM   16  C   UNL     1       5.068  33.145  64.105  1.00  0.00     0.102 A 
HETATM   17  C   UNL     1       6.423  32.996  63.751  1.00  0.00     0.102 A 
HETATM   18  C   UNL     1       7.419  33.379  64.654  1.00  0.00     0.040 A 
HETATM   19  C   UNL     1       7.075  33.927  65.892  1.00  0.00     0.011 A 
BRANCH  16  20
HETATM   20  O   UNL     1       4.152  32.736  63.167  1.00  0.00    -0.349 OA
BRANCH  20  21
HETATM   21  C   UNL     1       3.516  33.733  62.374  1.00  0.00     0.171 C 
HETATM   22  C   UNL     1       2.161  34.028  62.991  1.00  0.00     0.034 C 
ENDBRANCH  20  21
ENDBRANCH  16  20
BRANCH  17  23
HETATM   23  O   UNL     1       6.668  32.457  62.511  1.00  0.00    -0.349 OA
BRANCH  23  24
HETATM   24  C   UNL     1       7.503  31.305  62.444  1.00  0.00     0.171 C 
HETATM   25  C   UNL     1       8.807  31.712  61.780  1.00  0.00     0.034 C 
ENDBRANCH  23  24
ENDBRANCH  17  23
ENDBRANCH  13  14
ENDBRANCH  11  13
ENDBRANCH   1  11
BRANCH   8  26
HETATM   26  C   UNL     1       7.279  31.125  71.595  1.00  0.00     0.270 C 
HETATM   27  N   UNL     1       6.344  31.050  70.598  1.00  0.00    -0.365 N 
HETATM   28  H   UNL     1       6.028  31.911  70.165  1.00  0.00     0.159 HD
HETATM   29  H   UNL     1       5.985  30.154  70.313  1.00  0.00     0.159 HD
HETATM   30  O   UNL     1       7.696  30.114  72.153  1.00  0.00    -0.266 OA
ENDBRANCH   8  26
TORSDOF 8
ENDMDL
MODEL 7
REMARK VINA RESULT:      -7.8      3.427      4.998
REMARK  8 active torsions:
REMARK  status: ('A' for Active; 'I' for Inactive)
REMARK    1  A    between atoms: C_2  and  O_3 
REMARK    2  A    between atoms: O_3  and  C_4 
REMARK    3  A    between atoms: C_5  and  O_6 
REMARK    4  A    between atoms: O_6  and  C_7 
REMARK    5  A    between atoms: C_10  and  C_11 
REMARK    6  A    between atoms: C_11  and  N_12 
REMARK    7  A    between atoms: N_12  and  C_13 
REMARK    8  A    between atoms: C_20  and  C_21 
REMARK       I    between atoms: C_21  and  N_22 
ROOT
HETATM    1  C   UNL     1       4.207  27.400  53.306  1.00  0.00     0.009 A 
HETATM    2  C   UNL     1       4.588  27.950  54.544  1.00  0.00     0.039 A 
HETATM    3  C   UNL     1       4.649  29.349  54.719  1.00  0.00     0.030 A 
HETATM    4  C   UNL     1       4.362  30.168  53.636  1.00  0.00     0.063 A 
HETATM    5  N   UNL     1       4.511  31.445  54.098  1.00  0.00    -0.277 N 
HETATM    6  H   UNL     1       4.386  32.304  53.575  1.00  0.00     0.189 HD
HETATM    7  N   UNL     1       4.868  31.531  55.391  1.00  0.00    -0.168 NA
HETATM    8  C   UNL     1       4.959  30.241  55.787  1.00  0.00     0.156 A 
HETATM    9  C   UNL     1       4.020  29.669  52.379  1.00  0.00     0.034 A 
HETATM   10  C   UNL     1       3.965  28.274  52.239  1.00  0.00     0.026 A 
ENDROOT
BRANCH   1  11
HETATM   11  N   UNL     1       4.231  26.007  53.169  1.00  0.00    -0.289 NA
HETATM   12  H   UNL     1       3.299  25.619  53.030  1.00  0.00     0.128 HD
BRANCH  11  13
HETATM   13  C   UNL     1       5.224  25.384  52.307  1.00  0.00     0.131 C 
BRANCH  13  14
HETATM   14  C   UNL     1       6.226  24.632  53.153  1.00  0.00    -0.042 A 
HETATM   15  C   UNL     1       6.297  24.837  54.539  1.00  0.00     0.048 A 
HETATM   16  C   UNL     1       7.218  24.129  55.322  1.00  0.00     0.102 A 
HETATM   17  C   UNL     1       8.081  23.197  54.713  1.00  0.00     0.102 A 
HETATM   18  C   UNL     1       8.027  23.009  53.328  1.00  0.00     0.040 A 
HETATM   19  C   UNL     1       7.108  23.722  52.555  1.00  0.00     0.011 A 
BRANCH  16  20
HETATM   20  O   UNL     1       7.341  24.261  56.684  1.00  0.00    -0.349 OA
BRANCH  20  21
HETATM   21  C   UNL     1       6.583  25.279  57.329  1.00  0.00     0.171 C 
HETATM   22  C   UNL     1       7.513  26.442  57.622  1.00  0.00     0.034 C 
ENDBRANCH  20  21
ENDBRANCH  16  20
BRANCH  17  23
HETATM   23  O   UNL     1       8.945  22.535  55.551  1.00  0.00    -0.349 OA
BRANCH  23  24
HETATM   24  C   UNL     1       9.053  21.122  55.407  1.00  0.00     0.171 C 
HETATM   25  C   UNL     1       7.881  20.488  56.134  1.00  0.00     0.034 C 
ENDBRANCH  23  24
ENDBRANCH  17  23
ENDBRANCH  13  14
ENDBRANCH  11  13
ENDBRANCH   1  11
BRANCH   8  26
HETATM   26  C   UNL     1       5.334  29.889  57.163  1.00  0.00     0.270 C 
HETATM   27  N   UNL     1       4.275  29.548  57.960  1.00  0.00    -0.365 N 
HETATM   28  H   UNL     1       3.343  29.563  57.561  1.00  0.00     0.159 HD
HETATM   29  H   UNL     1       4.433  29.292  58.922  1.00  0.00     0.159 HD
HETATM   30  O   UNL     1       6.483  29.887  57.595  1.00  0.00    -0.266 OA
ENDBRANCH   8  26
TORSDOF 8
ENDMDL
MODEL 8
REMARK VINA RESULT:      -7.8      2.926      9.424
REMARK  8 active torsions:
REMARK  status: ('A' for Active; 'I' for Inactive)
REMARK    1  A    between atoms: C_2  and  O_3 
REMARK    2  A    between atoms: O_3  and  C_4 
REMARK    3  A    between atoms: C_5  and  O_6 
REMARK    4  A    between atoms: O_6  and  C_7 
REMARK    5  A    between atoms: C_10  and  C_11 
REMARK    6  A    between atoms: C_11  and  N_12 
REMARK    7  A    between atoms: N_12  and  C_13 
REMARK    8  A    between atoms: C_20  and  C_21 
REMARK       I    between atoms: C_21  and  N_22 
ROOT
HETATM    1  C   UNL     1       7.532  25.555  55.780  1.00  0.00     0.009 A 
HETATM    2  C   UNL     1       7.802  24.199  56.042  1.00  0.00     0.039 A 
HETATM    3  C   UNL     1       7.949  23.280  54.981  1.00  0.00     0.030 A 
HETATM    4  C   UNL     1       7.787  23.734  53.680  1.00  0.00     0.063 A 
HETATM    5  N   UNL     1       7.975  22.637  52.888  1.00  0.00    -0.277 N 
HETATM    6  H   UNL     1       7.926  22.595  51.876  1.00  0.00     0.189 HD
HETATM    7  N   UNL     1       8.251  21.506  53.559  1.00  0.00    -0.168 NA
HETATM    8  C   UNL     1       8.235  21.888  54.856  1.00  0.00     0.156 A 
HETATM    9  C   UNL     1       7.479  25.059  53.373  1.00  0.00     0.034 A 
HETATM   10  C   UNL     1       7.342  25.949  54.449  1.00  0.00     0.026 A 
ENDROOT
BRANCH   1  11
HETATM   11  N   UNL     1       7.327  26.409  56.871  1.00  0.00    -0.289 NA
HETATM   12  H   UNL     1       6.893  25.928  57.658  1.00  0.00     0.128 HD
BRANCH  11  13
HETATM   13  C   UNL     1       8.387  27.313  57.289  1.00  0.00     0.131 C 
BRANCH  13  14
HETATM   14  C   UNL     1       7.798  28.665  57.618  1.00  0.00    -0.042 A 
HETATM   15  C   UNL     1       8.601  29.694  58.134  1.00  0.00     0.048 A 
HETATM   16  C   UNL     1       8.055  30.951  58.426  1.00  0.00     0.102 A 
HETATM   17  C   UNL     1       6.685  31.187  58.196  1.00  0.00     0.102 A 
HETATM   18  C   UNL     1       5.880  30.155  57.704  1.00  0.00     0.040 A 
HETATM   19  C   UNL     1       6.433  28.905  57.419  1.00  0.00     0.011 A 
BRANCH  16  20
HETATM   20  O   UNL     1       8.773  32.013  58.919  1.00  0.00    -0.349 OA
BRANCH  20  21
HETATM   21  C   UNL     1       9.499  31.825  60.130  1.00  0.00     0.171 C 
HETATM   22  C   UNL     1       8.577  32.168  61.286  1.00  0.00     0.034 C 
ENDBRANCH  20  21
ENDBRANCH  16  20
BRANCH  17  23
HETATM   23  O   UNL     1       6.230  32.448  58.496  1.00  0.00    -0.349 OA
BRANCH  23  24
HETATM   24  C   UNL     1       5.169  32.561  59.439  1.00  0.00     0.171 C 
HETATM   25  C   UNL     1       4.590  33.960  59.326  1.00  0.00     0.034 C 
ENDBRANCH  23  24
ENDBRANCH  17  23
ENDBRANCH  13  14
ENDBRANCH  11  13
ENDBRANCH   1  11
BRANCH   8  26
HETATM   26  C   UNL     1       8.493  20.930  55.939  1.00  0.00     0.270 C 
HETATM   27  N   UNL     1       9.019  19.739  55.518  1.00  0.00    -0.365 N 
HETATM   28  H   UNL     1       9.186  19.607  54.526  1.00  0.00     0.159 HD
HETATM   29  H   UNL     1       9.229  19.018  56.188  1.00  0.00     0.159 HD
HETATM   30  O   UNL     1       8.272  21.144  57.127  1.00  0.00    -0.266 OA
ENDBRANCH   8  26
TORSDOF 8
ENDMDL
MODEL 9
REMARK VINA RESULT:      -7.7      3.303      9.156
REMARK  8 active torsions:
REMARK  status: ('A' for Active; 'I' for Inactive)
REMARK    1  A    between atoms: C_2  and  O_3 
REMARK    2  A    between atoms: O_3  and  C_4 
REMARK    3  A    between atoms: C_5  and  O_6 
REMARK    4  A    between atoms: O_6  and  C_7 
REMARK    5  A    between atoms: C_10  and  C_11 
REMARK    6  A    between atoms: C_11  and  N_12 
REMARK    7  A    between atoms: N_12  and  C_13 
REMARK    8  A    between atoms: C_20  and  C_21 
REMARK       I    between atoms: C_21  and  N_22 
ROOT
HETATM    1  C   UNL     1       6.280  25.025  55.536  1.00  0.00     0.009 A 
HETATM    2  C   UNL     1       6.945  23.849  55.931  1.00  0.00     0.039 A 
HETATM    3  C   UNL     1       7.434  22.944  54.965  1.00  0.00     0.030 A 
HETATM    4  C   UNL     1       7.213  23.219  53.623  1.00  0.00     0.063 A 
HETATM    5  N   UNL     1       7.781  22.179  52.942  1.00  0.00    -0.277 N 
HETATM    6  H   UNL     1       7.805  22.045  51.937  1.00  0.00     0.189 HD
HETATM    7  N   UNL     1       8.358  21.251  53.723  1.00  0.00    -0.168 NA
HETATM    8  C   UNL     1       8.149  21.709  54.978  1.00  0.00     0.156 A 
HETATM    9  C   UNL     1       6.523  24.349  53.186  1.00  0.00     0.034 A 
HETATM   10  C   UNL     1       6.053  25.231  54.170  1.00  0.00     0.026 A 
ENDROOT
BRANCH   1  11
HETATM   11  N   UNL     1       5.755  25.852  56.537  1.00  0.00    -0.289 NA
HETATM   12  H   UNL     1       6.340  25.863  57.371  1.00  0.00     0.128 HD
BRANCH  11  13
HETATM   13  C   UNL     1       5.255  27.173  56.191  1.00  0.00     0.131 C 
BRANCH  13  14
HETATM   14  C   UNL     1       6.049  28.224  56.932  1.00  0.00    -0.042 A 
HETATM   15  C   UNL     1       5.539  29.519  57.112  1.00  0.00     0.048 A 
HETATM   16  C   UNL     1       6.271  30.487  57.811  1.00  0.00     0.102 A 
HETATM   17  C   UNL     1       7.534  30.158  58.343  1.00  0.00     0.102 A 
HETATM   18  C   UNL     1       8.053  28.875  58.143  1.00  0.00     0.040 A 
HETATM   19  C   UNL     1       7.317  27.917  57.443  1.00  0.00     0.011 A 
BRANCH  16  20
HETATM   20  O   UNL     1       5.838  31.770  58.042  1.00  0.00    -0.349 OA
BRANCH  20  21
HETATM   21  C   UNL     1       4.780  31.961  58.975  1.00  0.00     0.171 C 
HETATM   22  C   UNL     1       5.191  33.067  59.929  1.00  0.00     0.034 C 
ENDBRANCH  20  21
ENDBRANCH  16  20
BRANCH  17  23
HETATM   23  O   UNL     1       8.183  31.158  59.024  1.00  0.00    -0.349 OA
BRANCH  23  24
HETATM   24  C   UNL     1       8.368  30.991  60.427  1.00  0.00     0.171 C 
HETATM   25  C   UNL     1       9.477  31.929  60.867  1.00  0.00     0.034 C 
ENDBRANCH  23  24
ENDBRANCH  17  23
ENDBRANCH  13  14
ENDBRANCH  11  13
ENDBRANCH   1  11
BRANCH   8  26
HETATM   26  C   UNL     1       8.631  20.971  56.152  1.00  0.00     0.270 C 
HETATM   27  N   UNL     1       9.447  19.914  55.851  1.00  0.00    -0.365 N 
HETATM   28  H   UNL     1       9.651  19.722  54.877  1.00  0.00     0.159 HD
HETATM   29  H   UNL     1       9.827  19.346  56.591  1.00  0.00     0.159 HD
HETATM   30  O   UNL     1       8.351  21.248  57.314  1.00  0.00    -0.266 OA
ENDBRANCH   8  26
TORSDOF 8
ENDMDL
MODEL 10
REMARK VINA RESULT:      -7.6      9.269     13.413
REMARK  8 active torsions:
REMARK  status: ('A' for Active; 'I' for Inactive)
REMARK    1  A    between atoms: C_2  and  O_3 
REMARK    2  A    between atoms: O_3  and  C_4 
REMARK    3  A    between atoms: C_5  and  O_6 
REMARK    4  A    between atoms: O_6  and  C_7 
REMARK    5  A    between atoms: C_10  and  C_11 
REMARK    6  A    between atoms: C_11  and  N_12 
REMARK    7  A    between atoms: N_12  and  C_13 
REMARK    8  A    between atoms: C_20  and  C_21 
REMARK       I    between atoms: C_21  and  N_22 
ROOT
HETATM    1  C   UNL     1       6.051  33.805  69.673  1.00  0.00     0.009 A 
HETATM    2  C   UNL     1       6.492  35.100  70.005  1.00  0.00     0.039 A 
HETATM    3  C   UNL     1       7.393  35.299  71.072  1.00  0.00     0.030 A 
HETATM    4  C   UNL     1       7.806  34.197  71.809  1.00  0.00     0.063 A 
HETATM    5  N   UNL     1       8.649  34.695  72.762  1.00  0.00    -0.277 N 
HETATM    6  H   UNL     1       9.135  34.173  73.482  1.00  0.00     0.189 HD
HETATM    7  N   UNL     1       8.827  36.025  72.708  1.00  0.00    -0.168 NA
HETATM    8  C   UNL     1       8.053  36.413  71.669  1.00  0.00     0.156 A 
HETATM    9  C   UNL     1       7.364  32.901  71.544  1.00  0.00     0.034 A 
HETATM   10  C   UNL     1       6.471  32.736  70.475  1.00  0.00     0.026 A 
ENDROOT
BRANCH   1  11
HETATM   11  N   UNL     1       5.104  33.673  68.650  1.00  0.00    -0.289 NA
HETATM   12  H   UNL     1       4.183  33.425  69.010  1.00  0.00     0.128 HD
BRANCH  11  13
HETATM   13  C   UNL     1       5.038  34.673  67.596  1.00  0.00     0.131 C 
BRANCH  13  14
HETATM   14  C   UNL     1       5.545  34.078  66.303  1.00  0.00    -0.042 A 
HETATM   15  C   UNL     1       4.653  33.590  65.335  1.00  0.00     0.048 A 
HETATM   16  C   UNL     1       5.127  33.052  64.131  1.00  0.00     0.102 A 
HETATM   17  C   UNL     1       6.513  33.002  63.887  1.00  0.00     0.102 A 
HETATM   18  C   UNL     1       7.403  33.466  64.860  1.00  0.00     0.040 A 
HETATM   19  C   UNL     1       6.922  33.999  66.058  1.00  0.00     0.011 A 
BRANCH  16  20
HETATM   20  O   UNL     1       4.322  32.567  63.130  1.00  0.00    -0.349 OA
BRANCH  20  21
HETATM   21  C   UNL     1       3.393  33.461  62.525  1.00  0.00     0.171 C 
HETATM   22  C   UNL     1       3.364  33.170  61.036  1.00  0.00     0.034 C 
ENDBRANCH  20  21
ENDBRANCH  16  20
BRANCH  17  23
HETATM   23  O   UNL     1       6.895  32.471  62.678  1.00  0.00    -0.349 OA
BRANCH  23  24
HETATM   24  C   UNL     1       8.060  31.651  62.655  1.00  0.00     0.171 C 
HETATM   25  C   UNL     1       8.891  32.056  61.451  1.00  0.00     0.034 C 
ENDBRANCH  23  24
ENDBRANCH  17  23
ENDBRANCH  13  14
ENDBRANCH  11  13
ENDBRANCH   1  11
BRANCH   8  26
HETATM   26  C   UNL     1       7.962  37.823  71.268  1.00  0.00     0.270 C 
HETATM   27  N   UNL     1       7.554  38.663  72.268  1.00  0.00    -0.365 N 
HETATM   28  H   UNL     1       7.351  38.268  73.180  1.00  0.00     0.159 HD
HETATM   29  H   UNL     1       7.461  39.650  72.088  1.00  0.00     0.159 HD
HETATM   30  O   UNL     1       8.221  38.248  70.146  1.00  0.00    -0.266 OA
ENDBRANCH   8  26
TORSDOF 8
ENDMDL
