MODEL 1
REMARK VINA RESULT:      -9.8      0.000      0.000
REMARK  9 active torsions:
REMARK  status: ('A' for Active; 'I' for Inactive)
REMARK    1  A    between atoms: C_2  and  O_3 
REMARK    2  A    between atoms: O_3  and  C_4 
REMARK    3  A    between atoms: C_7  and  N_8 
REMARK       I    between atoms: N_8  and  C_9 
REMARK    4  A    between atoms: C_9  and  C_10 
REMARK    5  A    between atoms: C_10  and  S_11 
REMARK    6  A    between atoms: S_11  and  C_12 
REMARK    7  A    between atoms: C_16  and  C_17 
REMARK       I    between atoms: C_17  and  N_18 
REMARK    8  A    between atoms: N_18  and  C_19 
REMARK    9  A    between atoms: C_27  and  C_28 
ROOT
HETATM    1  C   UNL     1       6.082  31.465  58.409  1.00  0.00     0.087 C 
HETATM    2  N   UNL     1       7.074  31.989  59.219  1.00  0.00    -0.353 N 
HETATM    3  C   UNL     1       6.889  32.309  60.549  1.00  0.00     0.019 C 
HETATM    4  C   UNL     1       8.146  32.566  61.343  1.00  0.00     0.069 C 
HETATM    5  C   UNL     1       5.627  32.330  61.039  1.00  0.00     0.046 C 
HETATM    6  C   UNL     1       4.423  32.293  60.088  1.00  0.00     0.104 C 
HETATM    7  C   UNL     1       4.780  31.650  58.741  1.00  0.00     0.055 C 
HETATM    8  C   UNL     1       3.669  31.356  57.747  1.00  0.00     0.019 C 
HETATM    9  N   UNL     1       2.748  31.111  56.922  1.00  0.00    -0.096 N 
HETATM   10  H   UNL     1       8.027  31.825  58.899  1.00  0.00     0.166 HD
ENDROOT
BRANCH   1  11
HETATM   11  S   UNL     1       6.557  30.443  57.059  1.00  0.00    -0.102 SA
BRANCH  11  12
HETATM   12  C   UNL     1       7.532  29.269  58.065  1.00  0.00     0.184 C 
BRANCH  12  13
HETATM   13  C   UNL     1       8.229  28.194  57.262  1.00  0.00     0.231 C 
HETATM   14  N   UNL     1       7.406  27.156  56.878  1.00  0.00    -0.327 N 
HETATM   15  H   UNL     1       6.410  27.349  56.868  1.00  0.00     0.169 HD
HETATM   16  O   UNL     1       9.446  28.253  57.096  1.00  0.00    -0.272 OA
BRANCH  14  17
HETATM   17  C   UNL     1       7.811  25.875  56.452  1.00  0.00     0.034 A 
HETATM   18  C   UNL     1       8.394  24.929  57.296  1.00  0.00     0.032 A 
HETATM   19  C   UNL     1       8.693  23.650  56.821  1.00  0.00     0.039 A 
HETATM   20  C   UNL     1       8.419  23.295  55.499  1.00  0.00     0.068 A 
HETATM   21  C   UNL     1       7.861  24.245  54.646  1.00  0.00     0.039 A 
HETATM   22  C   UNL     1       7.551  25.525  55.123  1.00  0.00     0.032 A 
BRANCH  20  23
HETATM   23  O   UNL     1       8.737  22.007  55.176  1.00  0.00    -0.352 OA
BRANCH  23  24
HETATM   24  C   UNL     1       8.969  21.724  53.797  1.00  0.00     0.171 C 
HETATM   25  C   UNL     1       7.990  20.644  53.373  1.00  0.00     0.034 C 
ENDBRANCH  23  24
ENDBRANCH  20  23
ENDBRANCH  14  17
ENDBRANCH  12  13
ENDBRANCH  11  12
ENDBRANCH   1  11
BRANCH   6  26
HETATM   26  C   UNL     1       3.815  33.684  59.921  1.00  0.00    -0.042 A 
HETATM   27  C   UNL     1       4.391  34.654  59.090  1.00  0.00     0.027 A 
HETATM   28  C   UNL     1       3.797  35.905  59.006  1.00  0.00     0.116 A 
HETATM   29  N   UNL     1       2.694  36.261  59.695  1.00  0.00    -0.273 NA
HETATM   30  C   UNL     1       2.163  35.324  60.508  1.00  0.00     0.116 A 
HETATM   31  C   UNL     1       2.675  34.044  60.651  1.00  0.00     0.027 A 
ENDBRANCH   6  26
BRANCH   5  32
HETATM   32  C   UNL     1       5.340  32.238  62.503  1.00  0.00     0.255 C 
HETATM   33  N   UNL     1       5.754  33.375  63.178  1.00  0.00    -0.323 N 
HETATM   34  H   UNL     1       6.182  34.102  62.621  1.00  0.00     0.169 HD
HETATM   35  O   UNL     1       4.895  31.210  62.993  1.00  0.00    -0.268 OA
BRANCH  33  36
HETATM   36  C   UNL     1       5.632  33.677  64.547  1.00  0.00     0.035 A 
HETATM   37  C   UNL     1       4.418  33.906  65.194  1.00  0.00     0.031 A 
HETATM   38  C   UNL     1       4.397  34.203  66.562  1.00  0.00     0.026 A 
HETATM   39  C   UNL     1       5.588  34.281  67.281  1.00  0.00     0.034 A 
HETATM   40 CL   UNL     1       5.558  34.654  68.960  1.00  0.00    -0.084 Cl
HETATM   41  C   UNL     1       6.805  34.060  66.645  1.00  0.00     0.026 A 
HETATM   42  C   UNL     1       6.824  33.753  65.282  1.00  0.00     0.031 A 
ENDBRANCH  33  36
ENDBRANCH   5  32
TORSDOF 9
ENDMDL
MODEL 2
REMARK VINA RESULT:      -9.5      4.398     11.007
REMARK  9 active torsions:
REMARK  status: ('A' for Active; 'I' for Inactive)
REMARK    1  A    between atoms: C_2  and  O_3 
REMARK    2  A    between atoms: O_3  and  C_4 
REMARK    3  A    between atoms: C_7  and  N_8 
REMARK       I    between atoms: N_8  and  C_9 
REMARK    4  A    between atoms: C_9  and  C_10 
REMARK    5  A    between atoms: C_10  and  S_11 
REMARK    6  A    between atoms: S_11  and  C_12 
REMARK    7  A    between atoms: C_16  and  C_17 
REMARK       I    between atoms: C_17  and  N_18 
REMARK    8  A    between atoms: N_18  and  C_19 
REMARK    9  A    between atoms: C_27  and  C_28 
ROOT
HETATM    1  C   UNL     1       3.857  30.602  54.690  1.00  0.00     0.087 C 
HETATM    2  N   UNL     1       4.542  30.371  53.510  1.00  0.00    -0.353 N 
HETATM    3  C   UNL     1       5.061  29.143  53.153  1.00  0.00     0.019 C 
HETATM    4  C   UNL     1       5.492  29.007  51.713  1.00  0.00     0.069 C 
HETATM    5  C   UNL     1       5.107  28.164  54.086  1.00  0.00     0.046 C 
HETATM    6  C   UNL     1       4.871  28.491  55.567  1.00  0.00     0.104 C 
HETATM    7  C   UNL     1       4.039  29.767  55.744  1.00  0.00     0.055 C 
HETATM    8  C   UNL     1       3.545  30.141  57.132  1.00  0.00     0.019 C 
HETATM    9  N   UNL     1       3.135  30.450  58.283  1.00  0.00    -0.096 N 
HETATM   10  H   UNL     1       4.369  31.048  52.769  1.00  0.00     0.166 HD
ENDROOT
BRANCH   1  11
HETATM   11  S   UNL     1       2.655  31.885  54.722  1.00  0.00    -0.102 SA
BRANCH  11  12
HETATM   12  C   UNL     1       3.815  33.197  55.247  1.00  0.00     0.184 C 
BRANCH  12  13
HETATM   13  C   UNL     1       3.744  33.536  56.719  1.00  0.00     0.231 C 
HETATM   14  N   UNL     1       4.962  33.492  57.366  1.00  0.00    -0.327 N 
HETATM   15  H   UNL     1       5.786  33.569  56.780  1.00  0.00     0.169 HD
HETATM   16  O   UNL     1       2.648  33.717  57.247  1.00  0.00    -0.272 OA
BRANCH  14  17
HETATM   17  C   UNL     1       5.172  33.402  58.756  1.00  0.00     0.034 A 
HETATM   18  C   UNL     1       4.494  34.186  59.691  1.00  0.00     0.032 A 
HETATM   19  C   UNL     1       4.694  33.983  61.059  1.00  0.00     0.039 A 
HETATM   20  C   UNL     1       5.573  33.000  61.515  1.00  0.00     0.068 A 
HETATM   21  C   UNL     1       6.271  32.233  60.584  1.00  0.00     0.039 A 
HETATM   22  C   UNL     1       6.065  32.427  59.213  1.00  0.00     0.032 A 
BRANCH  20  23
HETATM   23  O   UNL     1       5.652  32.892  62.874  1.00  0.00    -0.352 OA
BRANCH  23  24
HETATM   24  C   UNL     1       6.397  33.897  63.560  1.00  0.00     0.171 C 
HETATM   25  C   UNL     1       7.583  33.223  64.227  1.00  0.00     0.034 C 
ENDBRANCH  23  24
ENDBRANCH  20  23
ENDBRANCH  14  17
ENDBRANCH  12  13
ENDBRANCH  11  12
ENDBRANCH   1  11
BRANCH   6  26
HETATM   26  C   UNL     1       6.193  28.552  56.331  1.00  0.00    -0.042 A 
HETATM   27  C   UNL     1       7.121  29.583  56.132  1.00  0.00     0.027 A 
HETATM   28  C   UNL     1       8.312  29.561  56.843  1.00  0.00     0.116 A 
HETATM   29  N   UNL     1       8.647  28.589  57.716  1.00  0.00    -0.273 NA
HETATM   30  C   UNL     1       7.754  27.592  57.882  1.00  0.00     0.116 A 
HETATM   31  C   UNL     1       6.533  27.532  57.227  1.00  0.00     0.027 A 
ENDBRANCH   6  26
BRANCH   5  32
HETATM   32  C   UNL     1       5.237  26.720  53.721  1.00  0.00     0.255 C 
HETATM   33  N   UNL     1       6.487  26.221  54.047  1.00  0.00    -0.323 N 
HETATM   34  H   UNL     1       7.135  26.865  54.477  1.00  0.00     0.169 HD
HETATM   35  O   UNL     1       4.348  26.146  53.109  1.00  0.00    -0.268 OA
BRANCH  33  36
HETATM   36  C   UNL     1       6.977  24.911  53.888  1.00  0.00     0.035 A 
HETATM   37  C   UNL     1       7.510  24.412  52.700  1.00  0.00     0.031 A 
HETATM   38  C   UNL     1       7.970  23.092  52.637  1.00  0.00     0.026 A 
HETATM   39  C   UNL     1       7.889  22.267  53.757  1.00  0.00     0.034 A 
HETATM   40 CL   UNL     1       8.450  20.643  53.673  1.00  0.00    -0.084 Cl
HETATM   41  C   UNL     1       7.355  22.751  54.946  1.00  0.00     0.026 A 
HETATM   42  C   UNL     1       6.905  24.072  55.011  1.00  0.00     0.031 A 
ENDBRANCH  33  36
ENDBRANCH   5  32
TORSDOF 9
ENDMDL
MODEL 3
REMARK VINA RESULT:      -9.4      1.869      2.234
REMARK  9 active torsions:
REMARK  status: ('A' for Active; 'I' for Inactive)
REMARK    1  A    between atoms: C_2  and  O_3 
REMARK    2  A    between atoms: O_3  and  C_4 
REMARK    3  A    between atoms: C_7  and  N_8 
REMARK       I    between atoms: N_8  and  C_9 
REMARK    4  A    between atoms: C_9  and  C_10 
REMARK    5  A    between atoms: C_10  and  S_11 
REMARK    6  A    between atoms: S_11  and  C_12 
REMARK    7  A    between atoms: C_16  and  C_17 
REMARK       I    between atoms: C_17  and  N_18 
REMARK    8  A    between atoms: N_18  and  C_19 
REMARK    9  A    between atoms: C_27  and  C_28 
ROOT
HETATM    1  C   UNL     1       5.685  32.897  59.476  1.00  0.00     0.087 C 
HETATM    2  N   UNL     1       6.809  32.717  60.264  1.00  0.00    -0.353 N 
HETATM    3  C   UNL     1       6.795  32.771  61.644  1.00  0.00     0.019 C 
HETATM    4  C   UNL     1       8.031  32.246  62.333  1.00  0.00     0.069 C 
HETATM    5  C   UNL     1       5.686  33.242  62.261  1.00  0.00     0.046 C 
HETATM    6  C   UNL     1       4.600  33.969  61.458  1.00  0.00     0.104 C 
HETATM    7  C   UNL     1       4.616  33.564  59.979  1.00  0.00     0.055 C 
HETATM    8  C   UNL     1       3.493  34.038  59.071  1.00  0.00     0.019 C 
HETATM    9  N   UNL     1       2.561  34.430  58.318  1.00  0.00    -0.096 N 
HETATM   10  H   UNL     1       7.578  32.223  59.816  1.00  0.00     0.166 HD
ENDROOT
BRANCH   1  11
HETATM   11  S   UNL     1       5.632  32.113  57.904  1.00  0.00    -0.102 SA
BRANCH  11  12
HETATM   12  C   UNL     1       6.872  30.831  58.307  1.00  0.00     0.184 C 
BRANCH  12  13
HETATM   13  C   UNL     1       6.947  29.703  57.302  1.00  0.00     0.231 C 
HETATM   14  N   UNL     1       6.424  28.510  57.756  1.00  0.00    -0.327 N 
HETATM   15  H   UNL     1       5.772  28.569  58.531  1.00  0.00     0.169 HD
HETATM   16  O   UNL     1       7.535  29.879  56.236  1.00  0.00    -0.272 OA
BRANCH  14  17
HETATM   17  C   UNL     1       6.662  27.230  57.219  1.00  0.00     0.034 A 
HETATM   18  C   UNL     1       7.857  26.530  57.393  1.00  0.00     0.032 A 
HETATM   19  C   UNL     1       7.991  25.229  56.902  1.00  0.00     0.039 A 
HETATM   20  C   UNL     1       6.939  24.607  56.229  1.00  0.00     0.068 A 
HETATM   21  C   UNL     1       5.753  25.312  56.030  1.00  0.00     0.039 A 
HETATM   22  C   UNL     1       5.613  26.612  56.530  1.00  0.00     0.032 A 
BRANCH  20  23
HETATM   23  O   UNL     1       7.196  23.328  55.826  1.00  0.00    -0.352 OA
BRANCH  23  24
HETATM   24  C   UNL     1       8.303  23.137  54.946  1.00  0.00     0.171 C 
HETATM   25  C   UNL     1       7.846  23.486  53.541  1.00  0.00     0.034 C 
ENDBRANCH  23  24
ENDBRANCH  20  23
ENDBRANCH  14  17
ENDBRANCH  12  13
ENDBRANCH  11  12
ENDBRANCH   1  11
BRANCH   6  26
HETATM   26  C   UNL     1       4.702  35.482  61.645  1.00  0.00    -0.042 A 
HETATM   27  C   UNL     1       5.932  36.129  61.823  1.00  0.00     0.027 A 
HETATM   28  C   UNL     1       5.947  37.503  62.011  1.00  0.00     0.116 A 
HETATM   29  N   UNL     1       4.837  38.268  62.052  1.00  0.00    -0.273 NA
HETATM   30  C   UNL     1       3.659  37.628  61.902  1.00  0.00     0.116 A 
HETATM   31  C   UNL     1       3.541  36.262  61.696  1.00  0.00     0.027 A 
ENDBRANCH   6  26
BRANCH   5  32
HETATM   32  C   UNL     1       5.392  32.954  63.698  1.00  0.00     0.255 C 
HETATM   33  N   UNL     1       5.891  33.943  64.530  1.00  0.00    -0.323 N 
HETATM   34  H   UNL     1       6.372  34.711  64.084  1.00  0.00     0.169 HD
HETATM   35  O   UNL     1       4.872  31.900  64.033  1.00  0.00    -0.268 OA
BRANCH  33  36
HETATM   36  C   UNL     1       5.791  34.044  65.930  1.00  0.00     0.035 A 
HETATM   37  C   UNL     1       4.591  33.976  66.638  1.00  0.00     0.031 A 
HETATM   38  C   UNL     1       4.592  34.091  68.033  1.00  0.00     0.026 A 
HETATM   39  C   UNL     1       5.789  34.285  68.720  1.00  0.00     0.034 A 
HETATM   40 CL   UNL     1       5.784  34.433  70.434  1.00  0.00    -0.084 Cl
HETATM   41  C   UNL     1       6.991  34.360  68.025  1.00  0.00     0.026 A 
HETATM   42  C   UNL     1       6.990  34.234  66.634  1.00  0.00     0.031 A 
ENDBRANCH  33  36
ENDBRANCH   5  32
TORSDOF 9
ENDMDL
MODEL 4
REMARK VINA RESULT:      -9.2      6.722     10.781
REMARK  9 active torsions:
REMARK  status: ('A' for Active; 'I' for Inactive)
REMARK    1  A    between atoms: C_2  and  O_3 
REMARK    2  A    between atoms: O_3  and  C_4 
REMARK    3  A    between atoms: C_7  and  N_8 
REMARK       I    between atoms: N_8  and  C_9 
REMARK    4  A    between atoms: C_9  and  C_10 
REMARK    5  A    between atoms: C_10  and  S_11 
REMARK    6  A    between atoms: S_11  and  C_12 
REMARK    7  A    between atoms: C_16  and  C_17 
REMARK       I    between atoms: C_17  and  N_18 
REMARK    8  A    between atoms: N_18  and  C_19 
REMARK    9  A    between atoms: C_27  and  C_28 
ROOT
HETATM    1  C   UNL     1       4.148  30.239  54.201  1.00  0.00     0.087 C 
HETATM    2  N   UNL     1       4.849  29.811  53.086  1.00  0.00    -0.353 N 
HETATM    3  C   UNL     1       5.319  28.524  52.923  1.00  0.00     0.019 C 
HETATM    4  C   UNL     1       5.775  28.164  51.531  1.00  0.00     0.069 C 
HETATM    5  C   UNL     1       5.299  27.689  53.988  1.00  0.00     0.046 C 
HETATM    6  C   UNL     1       5.045  28.235  55.399  1.00  0.00     0.104 C 
HETATM    7  C   UNL     1       4.268  29.558  55.368  1.00  0.00     0.055 C 
HETATM    8  C   UNL     1       3.761  30.148  56.674  1.00  0.00     0.019 C 
HETATM    9  N   UNL     1       3.341  30.638  57.756  1.00  0.00    -0.096 N 
HETATM   10  H   UNL     1       4.723  30.380  52.251  1.00  0.00     0.166 HD
ENDROOT
BRANCH   1  11
HETATM   11  S   UNL     1       3.005  31.562  54.014  1.00  0.00    -0.102 SA
BRANCH  11  12
HETATM   12  C   UNL     1       4.033  32.514  52.840  1.00  0.00     0.184 C 
BRANCH  12  13
HETATM   13  C   UNL     1       4.089  31.928  51.447  1.00  0.00     0.231 C 
HETATM   14  N   UNL     1       2.892  31.397  51.012  1.00  0.00    -0.327 N 
HETATM   15  H   UNL     1       2.055  31.726  51.482  1.00  0.00     0.169 HD
HETATM   16  O   UNL     1       5.166  31.867  50.858  1.00  0.00    -0.272 OA
BRANCH  14  17
HETATM   17  C   UNL     1       2.712  30.488  49.951  1.00  0.00     0.034 A 
HETATM   18  C   UNL     1       3.297  30.645  48.693  1.00  0.00     0.032 A 
HETATM   19  C   UNL     1       3.142  29.659  47.715  1.00  0.00     0.039 A 
HETATM   20  C   UNL     1       2.401  28.505  47.974  1.00  0.00     0.068 A 
HETATM   21  C   UNL     1       1.794  28.357  49.220  1.00  0.00     0.039 A 
HETATM   22  C   UNL     1       1.956  29.339  50.205  1.00  0.00     0.032 A 
BRANCH  20  23
HETATM   23  O   UNL     1       2.353  27.614  46.941  1.00  0.00    -0.352 OA
BRANCH  23  24
HETATM   24  C   UNL     1       1.946  26.283  47.253  1.00  0.00     0.171 C 
HETATM   25  C   UNL     1       3.198  25.439  47.416  1.00  0.00     0.034 C 
ENDBRANCH  23  24
ENDBRANCH  20  23
ENDBRANCH  14  17
ENDBRANCH  12  13
ENDBRANCH  11  12
ENDBRANCH   1  11
BRANCH   6  26
HETATM   26  C   UNL     1       6.351  28.351  56.184  1.00  0.00    -0.042 A 
HETATM   27  C   UNL     1       7.338  29.289  55.854  1.00  0.00     0.027 A 
HETATM   28  C   UNL     1       8.509  29.320  56.596  1.00  0.00     0.116 A 
HETATM   29  N   UNL     1       8.772  28.484  57.621  1.00  0.00    -0.273 NA
HETATM   30  C   UNL     1       7.823  27.572  57.913  1.00  0.00     0.116 A 
HETATM   31  C   UNL     1       6.615  27.469  57.239  1.00  0.00     0.027 A 
ENDBRANCH   6  26
BRANCH   5  32
HETATM   32  C   UNL     1       5.371  26.203  53.837  1.00  0.00     0.255 C 
HETATM   33  N   UNL     1       6.636  25.720  54.128  1.00  0.00    -0.323 N 
HETATM   34  H   UNL     1       7.331  26.402  54.398  1.00  0.00     0.169 HD
HETATM   35  O   UNL     1       4.422  25.571  53.398  1.00  0.00    -0.268 OA
BRANCH  33  36
HETATM   36  C   UNL     1       7.087  24.387  54.129  1.00  0.00     0.035 A 
HETATM   37  C   UNL     1       7.156  23.584  55.267  1.00  0.00     0.031 A 
HETATM   38  C   UNL     1       7.624  22.268  55.169  1.00  0.00     0.026 A 
HETATM   39  C   UNL     1       8.031  21.758  53.938  1.00  0.00     0.034 A 
HETATM   40 CL   UNL     1       8.611  20.142  53.824  1.00  0.00    -0.084 Cl
HETATM   41  C   UNL     1       7.971  22.551  52.798  1.00  0.00     0.026 A 
HETATM   42  C   UNL     1       7.495  23.861  52.894  1.00  0.00     0.031 A 
ENDBRANCH  33  36
ENDBRANCH   5  32
TORSDOF 9
ENDMDL
MODEL 5
REMARK VINA RESULT:      -9.1      3.913     11.378
REMARK  9 active torsions:
REMARK  status: ('A' for Active; 'I' for Inactive)
REMARK    1  A    between atoms: C_2  and  O_3 
REMARK    2  A    between atoms: O_3  and  C_4 
REMARK    3  A    between atoms: C_7  and  N_8 
REMARK       I    between atoms: N_8  and  C_9 
REMARK    4  A    between atoms: C_9  and  C_10 
REMARK    5  A    between atoms: C_10  and  S_11 
REMARK    6  A    between atoms: S_11  and  C_12 
REMARK    7  A    between atoms: C_16  and  C_17 
REMARK       I    between atoms: C_17  and  N_18 
REMARK    8  A    between atoms: N_18  and  C_19 
REMARK    9  A    between atoms: C_27  and  C_28 
ROOT
HETATM    1  C   UNL     1       5.330  31.396  57.183  1.00  0.00     0.087 C 
HETATM    2  N   UNL     1       4.988  30.820  55.972  1.00  0.00    -0.353 N 
HETATM    3  C   UNL     1       5.189  29.487  55.673  1.00  0.00     0.019 C 
HETATM    4  C   UNL     1       4.477  28.976  54.445  1.00  0.00     0.069 C 
HETATM    5  C   UNL     1       5.960  28.748  56.504  1.00  0.00     0.046 C 
HETATM    6  C   UNL     1       6.823  29.428  57.574  1.00  0.00     0.104 C 
HETATM    7  C   UNL     1       6.270  30.806  57.963  1.00  0.00     0.055 C 
HETATM    8  C   UNL     1       6.884  31.543  59.141  1.00  0.00     0.019 C 
HETATM    9  N   UNL     1       7.393  32.154  60.119  1.00  0.00    -0.096 N 
HETATM   10  H   UNL     1       4.288  31.327  55.433  1.00  0.00     0.166 HD
ENDROOT
BRANCH   1  11
HETATM   11  S   UNL     1       4.415  32.793  57.733  1.00  0.00    -0.102 SA
BRANCH  11  12
HETATM   12  C   UNL     1       3.679  31.958  59.184  1.00  0.00     0.184 C 
BRANCH  12  13
HETATM   13  C   UNL     1       3.357  32.885  60.335  1.00  0.00     0.231 C 
HETATM   14  N   UNL     1       4.356  32.974  61.282  1.00  0.00    -0.327 N 
HETATM   15  H   UNL     1       5.287  32.705  60.983  1.00  0.00     0.169 HD
HETATM   16  O   UNL     1       2.240  33.395  60.408  1.00  0.00    -0.272 OA
BRANCH  14  17
HETATM   17  C   UNL     1       4.222  33.448  62.602  1.00  0.00     0.034 A 
HETATM   18  C   UNL     1       3.125  34.186  63.050  1.00  0.00     0.032 A 
HETATM   19  C   UNL     1       3.022  34.551  64.394  1.00  0.00     0.039 A 
HETATM   20  C   UNL     1       4.008  34.188  65.312  1.00  0.00     0.068 A 
HETATM   21  C   UNL     1       5.118  33.472  64.864  1.00  0.00     0.039 A 
HETATM   22  C   UNL     1       5.219  33.097  63.519  1.00  0.00     0.032 A 
BRANCH  20  23
HETATM   23  O   UNL     1       3.768  34.586  66.596  1.00  0.00    -0.352 OA
BRANCH  23  24
HETATM   24  C   UNL     1       4.554  33.978  67.619  1.00  0.00     0.171 C 
HETATM   25  C   UNL     1       5.510  35.027  68.157  1.00  0.00     0.034 C 
ENDBRANCH  23  24
ENDBRANCH  20  23
ENDBRANCH  14  17
ENDBRANCH  12  13
ENDBRANCH  11  12
ENDBRANCH   1  11
BRANCH   6  26
HETATM   26  C   UNL     1       8.285  29.495  57.137  1.00  0.00    -0.042 A 
HETATM   27  C   UNL     1       9.323  29.751  58.044  1.00  0.00     0.027 A 
HETATM   28  C   UNL     1      10.625  29.821  57.571  1.00  0.00     0.116 A 
HETATM   29  N   UNL     1      10.963  29.673  56.274  1.00  0.00    -0.273 NA
HETATM   30  C   UNL     1       9.952  29.450  55.410  1.00  0.00     0.116 A 
HETATM   31  C   UNL     1       8.621  29.350  55.786  1.00  0.00     0.027 A 
ENDBRANCH   6  26
BRANCH   5  32
HETATM   32  C   UNL     1       5.900  27.254  56.527  1.00  0.00     0.255 C 
HETATM   33  N   UNL     1       6.788  26.693  55.623  1.00  0.00    -0.323 N 
HETATM   34  H   UNL     1       7.348  27.335  55.080  1.00  0.00     0.169 HD
HETATM   35  O   UNL     1       5.067  26.670  57.203  1.00  0.00    -0.268 OA
BRANCH  33  36
HETATM   36  C   UNL     1       7.044  25.332  55.375  1.00  0.00     0.035 A 
HETATM   37  C   UNL     1       6.825  24.704  54.149  1.00  0.00     0.031 A 
HETATM   38  C   UNL     1       7.107  23.341  53.998  1.00  0.00     0.026 A 
HETATM   39  C   UNL     1       7.598  22.603  55.074  1.00  0.00     0.034 A 
HETATM   40 CL   UNL     1       7.936  20.927  54.886  1.00  0.00    -0.084 Cl
HETATM   41  C   UNL     1       7.815  23.217  56.302  1.00  0.00     0.026 A 
HETATM   42  C   UNL     1       7.544  24.580  56.449  1.00  0.00     0.031 A 
ENDBRANCH  33  36
ENDBRANCH   5  32
TORSDOF 9
ENDMDL
MODEL 6
REMARK VINA RESULT:      -9.1      5.041      8.456
REMARK  9 active torsions:
REMARK  status: ('A' for Active; 'I' for Inactive)
REMARK    1  A    between atoms: C_2  and  O_3 
REMARK    2  A    between atoms: O_3  and  C_4 
REMARK    3  A    between atoms: C_7  and  N_8 
REMARK       I    between atoms: N_8  and  C_9 
REMARK    4  A    between atoms: C_9  and  C_10 
REMARK    5  A    between atoms: C_10  and  S_11 
REMARK    6  A    between atoms: S_11  and  C_12 
REMARK    7  A    between atoms: C_16  and  C_17 
REMARK       I    between atoms: C_17  and  N_18 
REMARK    8  A    between atoms: N_18  and  C_19 
REMARK    9  A    between atoms: C_27  and  C_28 
ROOT
HETATM    1  C   UNL     1       4.166  36.772  62.908  1.00  0.00     0.087 C 
HETATM    2  N   UNL     1       2.944  36.124  62.876  1.00  0.00    -0.353 N 
HETATM    3  C   UNL     1       2.457  35.458  61.769  1.00  0.00     0.019 C 
HETATM    4  C   UNL     1       1.271  34.558  62.014  1.00  0.00     0.069 C 
HETATM    5  C   UNL     1       3.089  35.627  60.584  1.00  0.00     0.046 C 
HETATM    6  C   UNL     1       4.123  36.746  60.407  1.00  0.00     0.104 C 
HETATM    7  C   UNL     1       4.745  37.165  61.746  1.00  0.00     0.055 C 
HETATM    8  C   UNL     1       5.924  38.125  61.744  1.00  0.00     0.019 C 
HETATM    9  N   UNL     1       6.901  38.921  61.744  1.00  0.00    -0.096 N 
HETATM   10  H   UNL     1       2.562  35.874  63.786  1.00  0.00     0.166 HD
ENDROOT
BRANCH   1  11
HETATM   11  S   UNL     1       4.995  36.920  64.452  1.00  0.00    -0.102 SA
BRANCH  11  12
HETATM   12  C   UNL     1       4.321  35.374  65.159  1.00  0.00     0.184 C 
BRANCH  12  13
HETATM   13  C   UNL     1       5.045  34.123  64.717  1.00  0.00     0.231 C 
HETATM   14  N   UNL     1       6.172  34.363  63.958  1.00  0.00    -0.327 N 
HETATM   15  H   UNL     1       6.584  35.286  64.042  1.00  0.00     0.169 HD
HETATM   16  O   UNL     1       4.555  33.021  64.959  1.00  0.00    -0.272 OA
BRANCH  14  17
HETATM   17  C   UNL     1       6.834  33.442  63.122  1.00  0.00     0.034 A 
HETATM   18  C   UNL     1       7.912  32.660  63.537  1.00  0.00     0.032 A 
HETATM   19  C   UNL     1       8.465  31.707  62.677  1.00  0.00     0.039 A 
HETATM   20  C   UNL     1       7.954  31.521  61.392  1.00  0.00     0.068 A 
HETATM   21  C   UNL     1       6.893  32.318  60.965  1.00  0.00     0.039 A 
HETATM   22  C   UNL     1       6.331  33.267  61.828  1.00  0.00     0.032 A 
BRANCH  20  23
HETATM   23  O   UNL     1       8.570  30.541  60.669  1.00  0.00    -0.352 OA
BRANCH  23  24
HETATM   24  C   UNL     1       8.737  30.775  59.272  1.00  0.00     0.171 C 
HETATM   25  C   UNL     1       7.952  29.713  58.524  1.00  0.00     0.034 C 
ENDBRANCH  23  24
ENDBRANCH  20  23
ENDBRANCH  14  17
ENDBRANCH  12  13
ENDBRANCH  11  12
ENDBRANCH   1  11
BRANCH   6  26
HETATM   26  C   UNL     1       3.523  37.932  59.653  1.00  0.00    -0.042 A 
HETATM   27  C   UNL     1       2.534  38.749  60.217  1.00  0.00     0.027 A 
HETATM   28  C   UNL     1       2.017  39.793  59.464  1.00  0.00     0.116 A 
HETATM   29  N   UNL     1       2.397  40.069  58.200  1.00  0.00    -0.273 NA
HETATM   30  C   UNL     1       3.333  39.260  57.663  1.00  0.00     0.116 A 
HETATM   31  C   UNL     1       3.919  38.200  58.338  1.00  0.00     0.027 A 
ENDBRANCH   6  26
BRANCH   5  32
HETATM   32  C   UNL     1       2.932  34.662  59.453  1.00  0.00     0.255 C 
HETATM   33  N   UNL     1       4.066  33.886  59.281  1.00  0.00    -0.323 N 
HETATM   34  H   UNL     1       4.833  34.057  59.917  1.00  0.00     0.169 HD
HETATM   35  O   UNL     1       1.940  34.687  58.739  1.00  0.00    -0.268 OA
BRANCH  33  36
HETATM   36  C   UNL     1       4.292  32.855  58.351  1.00  0.00     0.035 A 
HETATM   37  C   UNL     1       4.877  33.044  57.098  1.00  0.00     0.031 A 
HETATM   38  C   UNL     1       5.058  31.955  56.237  1.00  0.00     0.026 A 
HETATM   39  C   UNL     1       4.646  30.681  56.622  1.00  0.00     0.034 A 
HETATM   40 CL   UNL     1       4.864  29.347  55.557  1.00  0.00    -0.084 Cl
HETATM   41  C   UNL     1       4.057  30.481  57.866  1.00  0.00     0.026 A 
HETATM   42  C   UNL     1       3.886  31.566  58.729  1.00  0.00     0.031 A 
ENDBRANCH  33  36
ENDBRANCH   5  32
TORSDOF 9
ENDMDL
MODEL 7
REMARK VINA RESULT:      -9.0      6.945     11.637
REMARK  9 active torsions:
REMARK  status: ('A' for Active; 'I' for Inactive)
REMARK    1  A    between atoms: C_2  and  O_3 
REMARK    2  A    between atoms: O_3  and  C_4 
REMARK    3  A    between atoms: C_7  and  N_8 
REMARK       I    between atoms: N_8  and  C_9 
REMARK    4  A    between atoms: C_9  and  C_10 
REMARK    5  A    between atoms: C_10  and  S_11 
REMARK    6  A    between atoms: S_11  and  C_12 
REMARK    7  A    between atoms: C_16  and  C_17 
REMARK       I    between atoms: C_17  and  N_18 
REMARK    8  A    between atoms: N_18  and  C_19 
REMARK    9  A    between atoms: C_27  and  C_28 
ROOT
HETATM    1  C   UNL     1       4.164  30.118  54.156  1.00  0.00     0.087 C 
HETATM    2  N   UNL     1       4.844  29.696  53.027  1.00  0.00    -0.353 N 
HETATM    3  C   UNL     1       5.321  28.412  52.854  1.00  0.00     0.019 C 
HETATM    4  C   UNL     1       5.750  28.055  51.453  1.00  0.00     0.069 C 
HETATM    5  C   UNL     1       5.330  27.577  53.920  1.00  0.00     0.046 C 
HETATM    6  C   UNL     1       5.102  28.122  55.336  1.00  0.00     0.104 C 
HETATM    7  C   UNL     1       4.314  29.438  55.321  1.00  0.00     0.055 C 
HETATM    8  C   UNL     1       3.830  30.025  56.637  1.00  0.00     0.019 C 
HETATM    9  N   UNL     1       3.428  30.512  57.727  1.00  0.00    -0.096 N 
HETATM   10  H   UNL     1       4.697  30.263  52.194  1.00  0.00     0.166 HD
ENDROOT
BRANCH   1  11
HETATM   11  S   UNL     1       3.008  31.432  53.993  1.00  0.00    -0.102 SA
BRANCH  11  12
HETATM   12  C   UNL     1       4.264  32.743  53.779  1.00  0.00     0.184 C 
BRANCH  12  13
HETATM   13  C   UNL     1       4.321  33.326  52.385  1.00  0.00     0.231 C 
HETATM   14  N   UNL     1       5.582  33.325  51.826  1.00  0.00    -0.327 N 
HETATM   15  H   UNL     1       6.251  32.674  52.222  1.00  0.00     0.169 HD
HETATM   16  O   UNL     1       3.312  33.835  51.898  1.00  0.00    -0.272 OA
BRANCH  14  17
HETATM   17  C   UNL     1       6.017  34.099  50.731  1.00  0.00     0.034 A 
HETATM   18  C   UNL     1       6.542  35.386  50.856  1.00  0.00     0.032 A 
HETATM   19  C   UNL     1       7.030  36.060  49.734  1.00  0.00     0.039 A 
HETATM   20  C   UNL     1       7.001  35.464  48.472  1.00  0.00     0.068 A 
HETATM   21  C   UNL     1       6.454  34.189  48.340  1.00  0.00     0.039 A 
HETATM   22  C   UNL     1       5.973  33.507  49.465  1.00  0.00     0.032 A 
BRANCH  20  23
HETATM   23  O   UNL     1       7.534  36.223  47.470  1.00  0.00    -0.352 OA
BRANCH  23  24
HETATM   24  C   UNL     1       8.583  35.635  46.702  1.00  0.00     0.171 C 
HETATM   25  C   UNL     1       8.112  35.546  45.262  1.00  0.00     0.034 C 
ENDBRANCH  23  24
ENDBRANCH  20  23
ENDBRANCH  14  17
ENDBRANCH  12  13
ENDBRANCH  11  12
ENDBRANCH   1  11
BRANCH   6  26
HETATM   26  C   UNL     1       6.423  28.248  56.093  1.00  0.00    -0.042 A 
HETATM   27  C   UNL     1       7.431  29.134  55.691  1.00  0.00     0.027 A 
HETATM   28  C   UNL     1       8.615  29.177  56.412  1.00  0.00     0.116 A 
HETATM   29  N   UNL     1       8.870  28.399  57.484  1.00  0.00    -0.273 NA
HETATM   30  C   UNL     1       7.899  27.536  57.847  1.00  0.00     0.116 A 
HETATM   31  C   UNL     1       6.679  27.426  57.198  1.00  0.00     0.027 A 
ENDBRANCH   6  26
BRANCH   5  32
HETATM   32  C   UNL     1       5.410  26.092  53.768  1.00  0.00     0.255 C 
HETATM   33  N   UNL     1       6.675  25.615  54.067  1.00  0.00    -0.323 N 
HETATM   34  H   UNL     1       7.365  26.299  54.343  1.00  0.00     0.169 HD
HETATM   35  O   UNL     1       4.467  25.455  53.321  1.00  0.00    -0.268 OA
BRANCH  33  36
HETATM   36  C   UNL     1       7.133  24.284  54.070  1.00  0.00     0.035 A 
HETATM   37  C   UNL     1       7.530  23.589  52.927  1.00  0.00     0.031 A 
HETATM   38  C   UNL     1       7.968  22.263  53.029  1.00  0.00     0.026 A 
HETATM   39  C   UNL     1       8.001  21.629  54.270  1.00  0.00     0.034 A 
HETATM   40 CL   UNL     1       8.534  19.998  54.389  1.00  0.00    -0.084 Cl
HETATM   41  C   UNL     1       7.603  22.310  55.415  1.00  0.00     0.026 A 
HETATM   42  C   UNL     1       7.176  23.636  55.314  1.00  0.00     0.031 A 
ENDBRANCH  33  36
ENDBRANCH   5  32
TORSDOF 9
ENDMDL
MODEL 8
REMARK VINA RESULT:      -9.0      7.801     11.819
REMARK  9 active torsions:
REMARK  status: ('A' for Active; 'I' for Inactive)
REMARK    1  A    between atoms: C_2  and  O_3 
REMARK    2  A    between atoms: O_3  and  C_4 
REMARK    3  A    between atoms: C_7  and  N_8 
REMARK       I    between atoms: N_8  and  C_9 
REMARK    4  A    between atoms: C_9  and  C_10 
REMARK    5  A    between atoms: C_10  and  S_11 
REMARK    6  A    between atoms: S_11  and  C_12 
REMARK    7  A    between atoms: C_16  and  C_17 
REMARK       I    between atoms: C_17  and  N_18 
REMARK    8  A    between atoms: N_18  and  C_19 
REMARK    9  A    between atoms: C_27  and  C_28 
ROOT
HETATM    1  C   UNL     1       4.269  29.585  53.260  1.00  0.00     0.087 C 
HETATM    2  N   UNL     1       5.027  28.958  52.287  1.00  0.00    -0.353 N 
HETATM    3  C   UNL     1       5.496  27.664  52.395  1.00  0.00     0.019 C 
HETATM    4  C   UNL     1       6.027  27.050  51.123  1.00  0.00     0.069 C 
HETATM    5  C   UNL     1       5.412  27.044  53.595  1.00  0.00     0.046 C 
HETATM    6  C   UNL     1       5.084  27.846  54.862  1.00  0.00     0.104 C 
HETATM    7  C   UNL     1       4.319  29.136  54.539  1.00  0.00     0.055 C 
HETATM    8  C   UNL     1       3.744  29.959  55.680  1.00  0.00     0.019 C 
HETATM    9  N   UNL     1       3.267  30.642  56.626  1.00  0.00    -0.096 N 
HETATM   10  H   UNL     1       4.952  29.359  51.353  1.00  0.00     0.166 HD
ENDROOT
BRANCH   1  11
HETATM   11  S   UNL     1       3.148  30.845  52.764  1.00  0.00    -0.102 SA
BRANCH  11  12
HETATM   12  C   UNL     1       3.432  30.634  50.970  1.00  0.00     0.184 C 
BRANCH  12  13
HETATM   13  C   UNL     1       2.350  29.853  50.259  1.00  0.00     0.231 C 
HETATM   14  N   UNL     1       2.720  29.385  49.015  1.00  0.00    -0.327 N 
HETATM   15  H   UNL     1       3.716  29.311  48.838  1.00  0.00     0.169 HD
HETATM   16  O   UNL     1       1.230  29.775  50.759  1.00  0.00    -0.272 OA
BRANCH  14  17
HETATM   17  C   UNL     1       1.857  28.953  47.989  1.00  0.00     0.034 A 
HETATM   18  C   UNL     1       1.365  27.651  47.891  1.00  0.00     0.032 A 
HETATM   19  C   UNL     1       0.446  27.317  46.893  1.00  0.00     0.039 A 
HETATM   20  C   UNL     1       0.005  28.273  45.978  1.00  0.00     0.068 A 
HETATM   21  C   UNL     1       0.513  29.568  46.056  1.00  0.00     0.039 A 
HETATM   22  C   UNL     1       1.427  29.908  47.061  1.00  0.00     0.032 A 
BRANCH  20  23
HETATM   23  O   UNL     1      -0.912  27.818  45.074  1.00  0.00    -0.352 OA
BRANCH  23  24
HETATM   24  C   UNL     1      -1.502  28.786  44.208  1.00  0.00     0.171 C 
HETATM   25  C   UNL     1      -1.314  28.308  42.779  1.00  0.00     0.034 C 
ENDBRANCH  23  24
ENDBRANCH  20  23
ENDBRANCH  14  17
ENDBRANCH  12  13
ENDBRANCH  11  12
ENDBRANCH   1  11
BRANCH   6  26
HETATM   26  C   UNL     1       6.344  28.111  55.683  1.00  0.00    -0.042 A 
HETATM   27  C   UNL     1       7.467  28.748  55.139  1.00  0.00     0.027 A 
HETATM   28  C   UNL     1       8.586  28.934  55.937  1.00  0.00     0.116 A 
HETATM   29  N   UNL     1       8.672  28.522  57.218  1.00  0.00    -0.273 NA
HETATM   30  C   UNL     1       7.592  27.891  57.722  1.00  0.00     0.116 A 
HETATM   31  C   UNL     1       6.424  27.669  57.009  1.00  0.00     0.027 A 
ENDBRANCH   6  26
BRANCH   5  32
HETATM   32  C   UNL     1       5.481  25.557  53.730  1.00  0.00     0.255 C 
HETATM   33  N   UNL     1       6.759  25.132  54.054  1.00  0.00    -0.323 N 
HETATM   34  H   UNL     1       7.463  25.849  54.158  1.00  0.00     0.169 HD
HETATM   35  O   UNL     1       4.516  24.857  53.463  1.00  0.00    -0.268 OA
BRANCH  33  36
HETATM   36  C   UNL     1       7.214  23.822  54.293  1.00  0.00     0.035 A 
HETATM   37  C   UNL     1       7.300  23.240  55.557  1.00  0.00     0.031 A 
HETATM   38  C   UNL     1       7.770  21.928  55.696  1.00  0.00     0.026 A 
HETATM   39  C   UNL     1       8.162  21.202  54.573  1.00  0.00     0.034 A 
HETATM   40 CL   UNL     1       8.744  19.593  54.748  1.00  0.00    -0.084 Cl
HETATM   41  C   UNL     1       8.085  21.773  53.308  1.00  0.00     0.026 A 
HETATM   42  C   UNL     1       7.606  23.079  53.169  1.00  0.00     0.031 A 
ENDBRANCH  33  36
ENDBRANCH   5  32
TORSDOF 9
ENDMDL
MODEL 9
REMARK VINA RESULT:      -9.0      1.553      1.959
REMARK  9 active torsions:
REMARK  status: ('A' for Active; 'I' for Inactive)
REMARK    1  A    between atoms: C_2  and  O_3 
REMARK    2  A    between atoms: O_3  and  C_4 
REMARK    3  A    between atoms: C_7  and  N_8 
REMARK       I    between atoms: N_8  and  C_9 
REMARK    4  A    between atoms: C_9  and  C_10 
REMARK    5  A    between atoms: C_10  and  S_11 
REMARK    6  A    between atoms: S_11  and  C_12 
REMARK    7  A    between atoms: C_16  and  C_17 
REMARK       I    between atoms: C_17  and  N_18 
REMARK    8  A    between atoms: N_18  and  C_19 
REMARK    9  A    between atoms: C_27  and  C_28 
ROOT
HETATM    1  C   UNL     1       5.080  31.267  56.822  1.00  0.00     0.087 C 
HETATM    2  N   UNL     1       6.210  31.388  57.611  1.00  0.00    -0.353 N 
HETATM    3  C   UNL     1       6.185  31.801  58.929  1.00  0.00     0.019 C 
HETATM    4  C   UNL     1       7.454  31.572  59.712  1.00  0.00     0.069 C 
HETATM    5  C   UNL     1       5.039  32.330  59.418  1.00  0.00     0.046 C 
HETATM    6  C   UNL     1       3.903  32.735  58.470  1.00  0.00     0.104 C 
HETATM    7  C   UNL     1       3.959  31.958  57.148  1.00  0.00     0.055 C 
HETATM    8  C   UNL     1       2.807  32.088  56.165  1.00  0.00     0.019 C 
HETATM    9  N   UNL     1       1.852  32.195  55.350  1.00  0.00    -0.096 N 
HETATM   10  H   UNL     1       7.018  30.854  57.297  1.00  0.00     0.166 HD
ENDROOT
BRANCH   1  11
HETATM   11  S   UNL     1       5.097  30.096  55.510  1.00  0.00    -0.102 SA
BRANCH  11  12
HETATM   12  C   UNL     1       6.652  29.282  56.025  1.00  0.00     0.184 C 
BRANCH  12  13
HETATM   13  C   UNL     1       6.503  27.814  56.355  1.00  0.00     0.231 C 
HETATM   14  N   UNL     1       7.503  27.017  55.836  1.00  0.00    -0.327 N 
HETATM   15  H   UNL     1       8.370  27.483  55.591  1.00  0.00     0.169 HD
HETATM   16  O   UNL     1       5.498  27.423  56.945  1.00  0.00    -0.272 OA
BRANCH  14  17
HETATM   17  C   UNL     1       7.459  25.620  55.663  1.00  0.00     0.034 A 
HETATM   18  C   UNL     1       6.791  24.993  54.610  1.00  0.00     0.032 A 
HETATM   19  C   UNL     1       6.861  23.606  54.456  1.00  0.00     0.039 A 
HETATM   20  C   UNL     1       7.595  22.824  55.348  1.00  0.00     0.068 A 
HETATM   21  C   UNL     1       8.243  23.443  56.416  1.00  0.00     0.039 A 
HETATM   22  C   UNL     1       8.182  24.834  56.567  1.00  0.00     0.032 A 
BRANCH  20  23
HETATM   23  O   UNL     1       7.600  21.488  55.065  1.00  0.00    -0.352 OA
BRANCH  23  24
HETATM   24  C   UNL     1       8.746  20.976  54.386  1.00  0.00     0.171 C 
HETATM   25  C   UNL     1       8.331  20.631  52.967  1.00  0.00     0.034 C 
ENDBRANCH  23  24
ENDBRANCH  20  23
ENDBRANCH  14  17
ENDBRANCH  12  13
ENDBRANCH  11  12
ENDBRANCH   1  11
BRANCH   6  26
HETATM   26  C   UNL     1       3.885  34.247  58.252  1.00  0.00    -0.042 A 
HETATM   27  C   UNL     1       4.672  34.867  57.273  1.00  0.00     0.027 A 
HETATM   28  C   UNL     1       4.623  36.248  57.148  1.00  0.00     0.116 A 
HETATM   29  N   UNL     1       3.867  37.047  57.929  1.00  0.00    -0.273 NA
HETATM   30  C   UNL     1       3.132  36.437  58.881  1.00  0.00     0.116 A 
HETATM   31  C   UNL     1       3.104  35.065  59.077  1.00  0.00     0.027 A 
ENDBRANCH   6  26
BRANCH   5  32
HETATM   32  C   UNL     1       4.761  32.408  60.885  1.00  0.00     0.255 C 
HETATM   33  N   UNL     1       5.783  33.050  61.565  1.00  0.00    -0.323 N 
HETATM   34  H   UNL     1       6.562  33.377  61.011  1.00  0.00     0.169 HD
HETATM   35  O   UNL     1       3.786  31.853  61.369  1.00  0.00    -0.268 OA
BRANCH  33  36
HETATM   36  C   UNL     1       5.874  33.341  62.939  1.00  0.00     0.035 A 
HETATM   37  C   UNL     1       4.796  33.739  63.730  1.00  0.00     0.031 A 
HETATM   38  C   UNL     1       4.986  34.011  65.090  1.00  0.00     0.026 A 
HETATM   39  C   UNL     1       6.254  33.896  65.658  1.00  0.00     0.034 A 
HETATM   40 CL   UNL     1       6.483  34.238  67.328  1.00  0.00    -0.084 Cl
HETATM   41  C   UNL     1       7.337  33.505  64.878  1.00  0.00     0.026 A 
HETATM   42  C   UNL     1       7.144  33.223  63.524  1.00  0.00     0.031 A 
ENDBRANCH  33  36
ENDBRANCH   5  32
TORSDOF 9
ENDMDL
MODEL 10
REMARK VINA RESULT:      -8.9      6.599     11.614
REMARK  9 active torsions:
REMARK  status: ('A' for Active; 'I' for Inactive)
REMARK    1  A    between atoms: C_2  and  O_3 
REMARK    2  A    between atoms: O_3  and  C_4 
REMARK    3  A    between atoms: C_7  and  N_8 
REMARK       I    between atoms: N_8  and  C_9 
REMARK    4  A    between atoms: C_9  and  C_10 
REMARK    5  A    between atoms: C_10  and  S_11 
REMARK    6  A    between atoms: S_11  and  C_12 
REMARK    7  A    between atoms: C_16  and  C_17 
REMARK       I    between atoms: C_17  and  N_18 
REMARK    8  A    between atoms: N_18  and  C_19 
REMARK    9  A    between atoms: C_27  and  C_28 
ROOT
HETATM    1  C   UNL     1       4.188  30.279  54.396  1.00  0.00     0.087 C 
HETATM    2  N   UNL     1       4.837  29.892  53.236  1.00  0.00    -0.353 N 
HETATM    3  C   UNL     1       5.297  28.611  53.005  1.00  0.00     0.019 C 
HETATM    4  C   UNL     1       5.688  28.302  51.581  1.00  0.00     0.069 C 
HETATM    5  C   UNL     1       5.325  27.738  54.039  1.00  0.00     0.046 C 
HETATM    6  C   UNL     1       5.136  28.233  55.479  1.00  0.00     0.104 C 
HETATM    7  C   UNL     1       4.360  29.556  55.531  1.00  0.00     0.055 C 
HETATM    8  C   UNL     1       3.915  30.098  56.879  1.00  0.00     0.019 C 
HETATM    9  N   UNL     1       3.545  30.548  57.997  1.00  0.00    -0.096 N 
HETATM   10  H   UNL     1       4.674  30.491  52.428  1.00  0.00     0.166 HD
ENDROOT
BRANCH   1  11
HETATM   11  S   UNL     1       3.041  31.608  54.310  1.00  0.00    -0.102 SA
BRANCH  11  12
HETATM   12  C   UNL     1       3.367  32.005  52.555  1.00  0.00     0.184 C 
BRANCH  12  13
HETATM   13  C   UNL     1       4.071  33.325  52.338  1.00  0.00     0.231 C 
HETATM   14  N   UNL     1       5.173  33.514  53.147  1.00  0.00    -0.327 N 
HETATM   15  H   UNL     1       5.591  32.679  53.542  1.00  0.00     0.169 HD
HETATM   16  O   UNL     1       3.585  34.153  51.570  1.00  0.00    -0.272 OA
BRANCH  14  17
HETATM   17  C   UNL     1       5.804  34.741  53.435  1.00  0.00     0.034 A 
HETATM   18  C   UNL     1       5.528  35.502  54.571  1.00  0.00     0.032 A 
HETATM   19  C   UNL     1       6.253  36.667  54.832  1.00  0.00     0.039 A 
HETATM   20  C   UNL     1       7.262  37.092  53.966  1.00  0.00     0.068 A 
HETATM   21  C   UNL     1       7.523  36.347  52.817  1.00  0.00     0.039 A 
HETATM   22  C   UNL     1       6.804  35.174  52.558  1.00  0.00     0.032 A 
BRANCH  20  23
HETATM   23  O   UNL     1       7.907  38.230  54.356  1.00  0.00    -0.352 OA
BRANCH  23  24
HETATM   24  C   UNL     1       9.214  38.075  54.906  1.00  0.00     0.171 C 
HETATM   25  C   UNL     1      10.216  38.538  53.863  1.00  0.00     0.034 C 
ENDBRANCH  23  24
ENDBRANCH  20  23
ENDBRANCH  14  17
ENDBRANCH  12  13
ENDBRANCH  11  12
ENDBRANCH   1  11
BRANCH   6  26
HETATM   26  C   UNL     1       6.476  28.320  56.208  1.00  0.00    -0.042 A 
HETATM   27  C   UNL     1       6.787  27.494  57.296  1.00  0.00     0.027 A 
HETATM   28  C   UNL     1       8.015  27.645  57.925  1.00  0.00     0.116 A 
HETATM   29  N   UNL     1       8.936  28.560  57.562  1.00  0.00    -0.273 NA
HETATM   30  C   UNL     1       8.614  29.364  56.528  1.00  0.00     0.116 A 
HETATM   31  C   UNL     1       7.420  29.282  55.828  1.00  0.00     0.027 A 
ENDBRANCH   6  26
BRANCH   5  32
HETATM   32  C   UNL     1       5.386  26.259  53.831  1.00  0.00     0.255 C 
HETATM   33  N   UNL     1       6.644  25.754  54.118  1.00  0.00    -0.323 N 
HETATM   34  H   UNL     1       7.341  26.420  54.423  1.00  0.00     0.169 HD
HETATM   35  O   UNL     1       4.438  25.652  53.357  1.00  0.00    -0.268 OA
BRANCH  33  36
HETATM   36  C   UNL     1       7.085  24.419  54.073  1.00  0.00     0.035 A 
HETATM   37  C   UNL     1       7.467  23.758  52.905  1.00  0.00     0.031 A 
HETATM   38  C   UNL     1       7.889  22.425  52.960  1.00  0.00     0.026 A 
HETATM   39  C   UNL     1       7.921  21.748  54.177  1.00  0.00     0.034 A 
HETATM   40 CL   UNL     1       8.434  20.108  54.238  1.00  0.00    -0.084 Cl
HETATM   41  C   UNL     1       7.538  22.395  55.347  1.00  0.00     0.026 A 
HETATM   42  C   UNL     1       7.127  23.729  55.294  1.00  0.00     0.031 A 
ENDBRANCH  33  36
ENDBRANCH   5  32
TORSDOF 9
ENDMDL
