MODEL 1
REMARK VINA RESULT:      -9.0      0.000      0.000
REMARK  5 active torsions:
REMARK  status: ('A' for Active; 'I' for Inactive)
REMARK    1  A    between atoms: C_2  and  O_3 
REMARK    2  A    between atoms: C_2  and  C_4 
REMARK    3  A    between atoms: C_4  and  N_5 
REMARK       I    between atoms: N_5  and  C_6 
REMARK    4  A    between atoms: C_6  and  C_7 
REMARK    5  A    between atoms: C_15  and  C_16 
ROOT
HETATM    1  C   UNL     1       5.314  26.783  51.734  1.00  0.00     0.046 A 
HETATM    2  C   UNL     1       4.873  27.611  52.789  1.00  0.00     0.008 A 
HETATM    3  C   UNL     1       5.143  27.147  54.090  1.00  0.00     0.068 A 
HETATM    4  C   UNL     1       4.743  27.917  55.175  1.00  0.00     0.032 A 
HETATM    5  C   UNL     1       4.084  29.137  55.014  1.00  0.00     0.002 A 
HETATM    6  C   UNL     1       3.813  29.607  53.738  1.00  0.00     0.001 A 
HETATM    7  C   UNL     1       4.206  28.853  52.633  1.00  0.00     0.015 A 
HETATM    8  N   UNL     1       5.780  25.990  54.337  1.00  0.00    -0.248 NA
HETATM    9  C   UNL     1       6.189  25.208  53.310  1.00  0.00     0.068 A 
HETATM   10  C   UNL     1       5.965  25.573  51.994  1.00  0.00     0.050 A 
ENDROOT
BRANCH   1  11
HETATM   11  C   UNL     1       5.086  27.142  50.312  1.00  0.00     0.252 C 
HETATM   12  N   UNL     1       4.193  26.333  49.640  1.00  0.00    -0.354 N 
HETATM   13  H   UNL     1       3.830  25.497  50.080  1.00  0.00     0.162 HD
HETATM   14  O   UNL     1       5.663  28.087  49.795  1.00  0.00    -0.268 OA
BRANCH  12  15
HETATM   15  C   UNL     1       3.850  26.572  48.245  1.00  0.00     0.154 C 
BRANCH  15  16
HETATM   16  C   UNL     1       2.758  25.617  47.744  1.00  0.00     0.132 C 
HETATM   17  C   UNL     1       3.020  24.193  48.209  1.00  0.00     0.041 C 
BRANCH  16  18
HETATM   18  O   UNL     1       2.745  25.621  46.313  1.00  0.00    -0.394 OA
HETATM   19  H   UNL     1       1.821  25.787  46.057  1.00  0.00     0.210 HD
ENDBRANCH  16  18
ENDBRANCH  15  16
ENDBRANCH  12  15
ENDBRANCH   1  11
BRANCH   9  20
HETATM   20  C   UNL     1       6.871  23.953  53.694  1.00  0.00    -0.007 A 
HETATM   21  C   UNL     1       6.978  23.582  55.048  1.00  0.00     0.015 A 
HETATM   22  C   UNL     1       7.616  22.397  55.435  1.00  0.00     0.024 A 
HETATM   23  C   UNL     1       8.166  21.565  54.467  1.00  0.00     0.034 A 
HETATM   24 CL   UNL     1       8.953  20.109  54.935  1.00  0.00    -0.084 Cl
HETATM   25  C   UNL     1       8.086  21.907  53.122  1.00  0.00     0.024 A 
HETATM   26  C   UNL     1       7.445  23.092  52.740  1.00  0.00     0.015 A 
ENDBRANCH   9  20
TORSDOF 5
ENDMDL
MODEL 2
REMARK VINA RESULT:      -8.9      4.937      7.432
REMARK  5 active torsions:
REMARK  status: ('A' for Active; 'I' for Inactive)
REMARK    1  A    between atoms: C_2  and  O_3 
REMARK    2  A    between atoms: C_2  and  C_4 
REMARK    3  A    between atoms: C_4  and  N_5 
REMARK       I    between atoms: N_5  and  C_6 
REMARK    4  A    between atoms: C_6  and  C_7 
REMARK    5  A    between atoms: C_15  and  C_16 
ROOT
HETATM    1  C   UNL     1       7.768  25.031  55.815  1.00  0.00     0.046 A 
HETATM    2  C   UNL     1       6.786  25.320  54.842  1.00  0.00     0.008 A 
HETATM    3  C   UNL     1       6.410  26.672  54.730  1.00  0.00     0.068 A 
HETATM    4  C   UNL     1       5.454  27.028  53.787  1.00  0.00     0.032 A 
HETATM    5  C   UNL     1       4.858  26.087  52.946  1.00  0.00     0.002 A 
HETATM    6  C   UNL     1       5.221  24.752  53.044  1.00  0.00     0.001 A 
HETATM    7  C   UNL     1       6.178  24.370  53.982  1.00  0.00     0.015 A 
HETATM    8  N   UNL     1       6.939  27.645  55.493  1.00  0.00    -0.248 NA
HETATM    9  C   UNL     1       7.874  27.344  56.424  1.00  0.00     0.068 A 
HETATM   10  C   UNL     1       8.307  26.043  56.616  1.00  0.00     0.050 A 
ENDROOT
BRANCH   1  11
HETATM   11  C   UNL     1       8.250  23.647  56.051  1.00  0.00     0.252 C 
HETATM   12  N   UNL     1       8.922  23.073  54.992  1.00  0.00    -0.354 N 
HETATM   13  H   UNL     1       8.962  23.543  54.097  1.00  0.00     0.162 HD
HETATM   14  O   UNL     1       8.048  23.077  57.113  1.00  0.00    -0.268 OA
BRANCH  12  15
HETATM   15  C   UNL     1       9.472  21.728  55.080  1.00  0.00     0.154 C 
BRANCH  15  16
HETATM   16  C   UNL     1       8.494  20.665  54.561  1.00  0.00     0.132 C 
HETATM   17  C   UNL     1       7.864  21.095  53.245  1.00  0.00     0.041 C 
BRANCH  16  18
HETATM   18  O   UNL     1       7.444  20.481  55.517  1.00  0.00    -0.394 OA
HETATM   19  H   UNL     1       7.838  20.681  56.384  1.00  0.00     0.210 HD
ENDBRANCH  16  18
ENDBRANCH  15  16
ENDBRANCH  12  15
ENDBRANCH   1  11
BRANCH   9  20
HETATM   20  C   UNL     1       8.382  28.487  57.213  1.00  0.00    -0.007 A 
HETATM   21  C   UNL     1       7.598  29.057  58.234  1.00  0.00     0.015 A 
HETATM   22  C   UNL     1       8.059  30.137  58.996  1.00  0.00     0.024 A 
HETATM   23  C   UNL     1       9.317  30.671  58.741  1.00  0.00     0.034 A 
HETATM   24 CL   UNL     1       9.889  31.999  59.671  1.00  0.00    -0.084 Cl
HETATM   25  C   UNL     1      10.113  30.138  57.733  1.00  0.00     0.024 A 
HETATM   26  C   UNL     1       9.648  29.056  56.975  1.00  0.00     0.015 A 
ENDBRANCH   9  20
TORSDOF 5
ENDMDL
MODEL 3
REMARK VINA RESULT:      -8.7      2.679      5.289
REMARK  5 active torsions:
REMARK  status: ('A' for Active; 'I' for Inactive)
REMARK    1  A    between atoms: C_2  and  O_3 
REMARK    2  A    between atoms: C_2  and  C_4 
REMARK    3  A    between atoms: C_4  and  N_5 
REMARK       I    between atoms: N_5  and  C_6 
REMARK    4  A    between atoms: C_6  and  C_7 
REMARK    5  A    between atoms: C_15  and  C_16 
ROOT
HETATM    1  C   UNL     1       5.301  27.235  53.793  1.00  0.00     0.046 A 
HETATM    2  C   UNL     1       4.963  27.352  52.427  1.00  0.00     0.008 A 
HETATM    3  C   UNL     1       5.313  26.260  51.611  1.00  0.00     0.068 A 
HETATM    4  C   UNL     1       5.003  26.307  50.258  1.00  0.00     0.032 A 
HETATM    5  C   UNL     1       4.354  27.402  49.684  1.00  0.00     0.002 A 
HETATM    6  C   UNL     1       4.002  28.483  50.477  1.00  0.00     0.001 A 
HETATM    7  C   UNL     1       4.301  28.460  51.838  1.00  0.00     0.015 A 
HETATM    8  N   UNL     1       5.931  25.163  52.081  1.00  0.00    -0.248 NA
HETATM    9  C   UNL     1       6.251  25.074  53.393  1.00  0.00     0.068 A 
HETATM   10  C   UNL     1       5.956  26.097  54.277  1.00  0.00     0.050 A 
ENDROOT
BRANCH   1  11
HETATM   11  C   UNL     1       5.004  28.315  54.767  1.00  0.00     0.252 C 
HETATM   12  N   UNL     1       6.083  29.099  55.118  1.00  0.00    -0.354 N 
HETATM   13  H   UNL     1       7.015  28.856  54.808  1.00  0.00     0.162 HD
HETATM   14  O   UNL     1       3.878  28.475  55.214  1.00  0.00    -0.268 OA
BRANCH  12  15
HETATM   15  C   UNL     1       5.944  30.212  56.047  1.00  0.00     0.154 C 
BRANCH  15  16
HETATM   16  C   UNL     1       6.095  29.771  57.509  1.00  0.00     0.132 C 
HETATM   17  C   UNL     1       7.132  28.666  57.644  1.00  0.00     0.041 C 
BRANCH  16  18
HETATM   18  O   UNL     1       4.843  29.265  57.983  1.00  0.00    -0.394 OA
HETATM   19  H   UNL     1       4.158  29.805  57.551  1.00  0.00     0.210 HD
ENDBRANCH  16  18
ENDBRANCH  15  16
ENDBRANCH  12  15
ENDBRANCH   1  11
BRANCH   9  20
HETATM   20  C   UNL     1       6.936  23.828  53.801  1.00  0.00    -0.007 A 
HETATM   21  C   UNL     1       7.020  23.470  55.161  1.00  0.00     0.015 A 
HETATM   22  C   UNL     1       7.661  22.295  55.570  1.00  0.00     0.024 A 
HETATM   23  C   UNL     1       8.236  21.458  54.620  1.00  0.00     0.034 A 
HETATM   24 CL   UNL     1       9.025  20.013  55.116  1.00  0.00    -0.084 Cl
HETATM   25  C   UNL     1       8.177  21.787  53.270  1.00  0.00     0.024 A 
HETATM   26  C   UNL     1       7.534  22.963  52.865  1.00  0.00     0.015 A 
ENDBRANCH   9  20
TORSDOF 5
ENDMDL
MODEL 4
REMARK VINA RESULT:      -8.5      3.396      5.908
REMARK  5 active torsions:
REMARK  status: ('A' for Active; 'I' for Inactive)
REMARK    1  A    between atoms: C_2  and  O_3 
REMARK    2  A    between atoms: C_2  and  C_4 
REMARK    3  A    between atoms: C_4  and  N_5 
REMARK       I    between atoms: N_5  and  C_6 
REMARK    4  A    between atoms: C_6  and  C_7 
REMARK    5  A    between atoms: C_15  and  C_16 
ROOT
HETATM    1  C   UNL     1       6.397  25.271  53.451  1.00  0.00     0.046 A 
HETATM    2  C   UNL     1       7.237  24.176  53.748  1.00  0.00     0.008 A 
HETATM    3  C   UNL     1       8.018  24.298  54.913  1.00  0.00     0.068 A 
HETATM    4  C   UNL     1       8.862  23.254  55.268  1.00  0.00     0.032 A 
HETATM    5  C   UNL     1       8.957  22.087  54.508  1.00  0.00     0.002 A 
HETATM    6  C   UNL     1       8.192  21.953  53.360  1.00  0.00     0.001 A 
HETATM    7  C   UNL     1       7.337  22.986  52.982  1.00  0.00     0.015 A 
HETATM    8  N   UNL     1       7.982  25.381  55.708  1.00  0.00    -0.248 NA
HETATM    9  C   UNL     1       7.173  26.422  55.401  1.00  0.00     0.068 A 
HETATM   10  C   UNL     1       6.371  26.402  54.273  1.00  0.00     0.050 A 
ENDROOT
BRANCH   1  11
HETATM   11  C   UNL     1       5.528  25.284  52.248  1.00  0.00     0.252 C 
HETATM   12  N   UNL     1       5.902  26.175  51.264  1.00  0.00    -0.354 N 
HETATM   13  H   UNL     1       6.648  26.838  51.433  1.00  0.00     0.162 HD
HETATM   14  O   UNL     1       4.553  24.551  52.160  1.00  0.00    -0.268 OA
BRANCH  12  15
HETATM   15  C   UNL     1       5.161  26.288  50.016  1.00  0.00     0.154 C 
BRANCH  15  16
HETATM   16  C   UNL     1       4.626  27.708  49.785  1.00  0.00     0.132 C 
HETATM   17  C   UNL     1       5.337  28.714  50.677  1.00  0.00     0.041 C 
BRANCH  16  18
HETATM   18  O   UNL     1       3.230  27.745  50.099  1.00  0.00    -0.394 OA
HETATM   19  H   UNL     1       2.791  28.112  49.311  1.00  0.00     0.210 HD
ENDBRANCH  16  18
ENDBRANCH  15  16
ENDBRANCH  12  15
ENDBRANCH   1  11
BRANCH   9  20
HETATM   20  C   UNL     1       7.218  27.565  56.338  1.00  0.00    -0.007 A 
HETATM   21  C   UNL     1       8.425  27.927  56.968  1.00  0.00     0.015 A 
HETATM   22  C   UNL     1       8.492  29.008  57.855  1.00  0.00     0.024 A 
HETATM   23  C   UNL     1       7.346  29.742  58.133  1.00  0.00     0.034 A 
HETATM   24 CL   UNL     1       7.420  31.070  59.224  1.00  0.00    -0.084 Cl
HETATM   25  C   UNL     1       6.136  29.405  57.534  1.00  0.00     0.024 A 
HETATM   26  C   UNL     1       6.074  28.325  56.646  1.00  0.00     0.015 A 
ENDBRANCH   9  20
TORSDOF 5
ENDMDL
MODEL 5
REMARK VINA RESULT:      -8.4      4.455      6.990
REMARK  5 active torsions:
REMARK  status: ('A' for Active; 'I' for Inactive)
REMARK    1  A    between atoms: C_2  and  O_3 
REMARK    2  A    between atoms: C_2  and  C_4 
REMARK    3  A    between atoms: C_4  and  N_5 
REMARK       I    between atoms: N_5  and  C_6 
REMARK    4  A    between atoms: C_6  and  C_7 
REMARK    5  A    between atoms: C_15  and  C_16 
ROOT
HETATM    1  C   UNL     1       7.341  28.623  56.392  1.00  0.00     0.046 A 
HETATM    2  C   UNL     1       6.196  29.248  55.852  1.00  0.00     0.008 A 
HETATM    3  C   UNL     1       5.461  28.489  54.922  1.00  0.00     0.068 A 
HETATM    4  C   UNL     1       4.319  29.041  54.357  1.00  0.00     0.032 A 
HETATM    5  C   UNL     1       3.877  30.324  54.685  1.00  0.00     0.002 A 
HETATM    6  C   UNL     1       4.590  31.081  55.601  1.00  0.00     0.001 A 
HETATM    7  C   UNL     1       5.739  30.550  56.183  1.00  0.00     0.015 A 
HETATM    8  N   UNL     1       5.810  27.244  54.555  1.00  0.00    -0.248 NA
HETATM    9  C   UNL     1       6.915  26.666  55.081  1.00  0.00     0.068 A 
HETATM   10  C   UNL     1       7.709  27.332  55.999  1.00  0.00     0.050 A 
ENDROOT
BRANCH   1  11
HETATM   11  C   UNL     1       8.217  29.311  57.374  1.00  0.00     0.252 C 
HETATM   12  N   UNL     1       7.664  29.495  58.623  1.00  0.00    -0.354 N 
HETATM   13  H   UNL     1       6.691  29.272  58.790  1.00  0.00     0.162 HD
HETATM   14  O   UNL     1       9.341  29.683  57.071  1.00  0.00    -0.268 OA
BRANCH  12  15
HETATM   15  C   UNL     1       8.408  30.135  59.699  1.00  0.00     0.154 C 
BRANCH  15  16
HETATM   16  C   UNL     1       8.142  31.645  59.770  1.00  0.00     0.132 C 
HETATM   17  C   UNL     1       6.727  31.974  59.319  1.00  0.00     0.041 C 
BRANCH  16  18
HETATM   18  O   UNL     1       9.054  32.328  58.904  1.00  0.00    -0.394 OA
HETATM   19  H   UNL     1       9.932  32.229  59.313  1.00  0.00     0.210 HD
ENDBRANCH  16  18
ENDBRANCH  15  16
ENDBRANCH  12  15
ENDBRANCH   1  11
BRANCH   9  20
HETATM   20  C   UNL     1       7.211  25.298  54.602  1.00  0.00    -0.007 A 
HETATM   21  C   UNL     1       7.115  24.197  55.475  1.00  0.00     0.015 A 
HETATM   22  C   UNL     1       7.387  22.894  55.043  1.00  0.00     0.024 A 
HETATM   23  C   UNL     1       7.768  22.671  53.725  1.00  0.00     0.034 A 
HETATM   24 CL   UNL     1       8.105  21.073  53.188  1.00  0.00    -0.084 Cl
HETATM   25  C   UNL     1       7.881  23.738  52.840  1.00  0.00     0.024 A 
HETATM   26  C   UNL     1       7.607  25.040  53.276  1.00  0.00     0.015 A 
ENDBRANCH   9  20
TORSDOF 5
ENDMDL
MODEL 6
REMARK VINA RESULT:      -8.4      2.709      3.629
REMARK  5 active torsions:
REMARK  status: ('A' for Active; 'I' for Inactive)
REMARK    1  A    between atoms: C_2  and  O_3 
REMARK    2  A    between atoms: C_2  and  C_4 
REMARK    3  A    between atoms: C_4  and  N_5 
REMARK       I    between atoms: N_5  and  C_6 
REMARK    4  A    between atoms: C_6  and  C_7 
REMARK    5  A    between atoms: C_15  and  C_16 
ROOT
HETATM    1  C   UNL     1       5.846  27.840  54.435  1.00  0.00     0.046 A 
HETATM    2  C   UNL     1       6.400  28.346  55.631  1.00  0.00     0.008 A 
HETATM    3  C   UNL     1       7.247  27.470  56.336  1.00  0.00     0.068 A 
HETATM    4  C   UNL     1       7.831  27.905  57.518  1.00  0.00     0.032 A 
HETATM    5  C   UNL     1       7.607  29.186  58.027  1.00  0.00     0.002 A 
HETATM    6  C   UNL     1       6.777  30.059  57.342  1.00  0.00     0.001 A 
HETATM    7  C   UNL     1       6.179  29.647  56.153  1.00  0.00     0.015 A 
HETATM    8  N   UNL     1       7.525  26.223  55.915  1.00  0.00    -0.248 NA
HETATM    9  C   UNL     1       6.978  25.757  54.767  1.00  0.00     0.068 A 
HETATM   10  C   UNL     1       6.127  26.539  54.006  1.00  0.00     0.050 A 
ENDROOT
BRANCH   1  11
HETATM   11  C   UNL     1       4.926  28.650  53.597  1.00  0.00     0.252 C 
HETATM   12  N   UNL     1       5.531  29.360  52.582  1.00  0.00    -0.354 N 
HETATM   13  H   UNL     1       6.540  29.398  52.514  1.00  0.00     0.162 HD
HETATM   14  O   UNL     1       3.723  28.673  53.815  1.00  0.00    -0.268 OA
BRANCH  12  15
HETATM   15  C   UNL     1       4.757  30.184  51.664  1.00  0.00     0.154 C 
BRANCH  15  16
HETATM   16  C   UNL     1       5.217  30.019  50.208  1.00  0.00     0.132 C 
HETATM   17  C   UNL     1       5.457  28.556  49.872  1.00  0.00     0.041 C 
BRANCH  16  18
HETATM   18  O   UNL     1       6.446  30.727  50.017  1.00  0.00    -0.394 OA
HETATM   19  H   UNL     1       6.501  31.365  50.749  1.00  0.00     0.210 HD
ENDBRANCH  16  18
ENDBRANCH  15  16
ENDBRANCH  12  15
ENDBRANCH   1  11
BRANCH   9  20
HETATM   20  C   UNL     1       7.343  24.372  54.402  1.00  0.00    -0.007 A 
HETATM   21  C   UNL     1       7.413  23.366  55.386  1.00  0.00     0.015 A 
HETATM   22  C   UNL     1       7.754  22.048  55.062  1.00  0.00     0.024 A 
HETATM   23  C   UNL     1       8.038  21.714  53.743  1.00  0.00     0.034 A 
HETATM   24 CL   UNL     1       8.458  20.096  53.339  1.00  0.00    -0.084 Cl
HETATM   25  C   UNL     1       7.986  22.685  52.749  1.00  0.00     0.024 A 
HETATM   26  C   UNL     1       7.643  24.002  53.077  1.00  0.00     0.015 A 
ENDBRANCH   9  20
TORSDOF 5
ENDMDL
MODEL 7
REMARK VINA RESULT:      -8.4      4.105      7.837
REMARK  5 active torsions:
REMARK  status: ('A' for Active; 'I' for Inactive)
REMARK    1  A    between atoms: C_2  and  O_3 
REMARK    2  A    between atoms: C_2  and  C_4 
REMARK    3  A    between atoms: C_4  and  N_5 
REMARK       I    between atoms: N_5  and  C_6 
REMARK    4  A    between atoms: C_6  and  C_7 
REMARK    5  A    between atoms: C_15  and  C_16 
ROOT
HETATM    1  C   UNL     1       6.232  26.127  54.549  1.00  0.00     0.046 A 
HETATM    2  C   UNL     1       6.964  24.936  54.352  1.00  0.00     0.008 A 
HETATM    3  C   UNL     1       7.106  24.514  53.016  1.00  0.00     0.068 A 
HETATM    4  C   UNL     1       7.821  23.354  52.750  1.00  0.00     0.032 A 
HETATM    5  C   UNL     1       8.405  22.595  53.765  1.00  0.00     0.002 A 
HETATM    6  C   UNL     1       8.275  23.000  55.085  1.00  0.00     0.001 A 
HETATM    7  C   UNL     1       7.563  24.162  55.378  1.00  0.00     0.015 A 
HETATM    8  N   UNL     1       6.584  25.188  51.976  1.00  0.00    -0.248 NA
HETATM    9  C   UNL     1       5.880  26.325  52.189  1.00  0.00     0.068 A 
HETATM   10  C   UNL     1       5.679  26.819  53.466  1.00  0.00     0.050 A 
ENDROOT
BRANCH   1  11
HETATM   11  C   UNL     1       5.993  26.681  55.905  1.00  0.00     0.252 C 
HETATM   12  N   UNL     1       6.748  27.790  56.225  1.00  0.00    -0.354 N 
HETATM   13  H   UNL     1       7.483  28.105  55.605  1.00  0.00     0.162 HD
HETATM   14  O   UNL     1       5.185  26.171  56.666  1.00  0.00    -0.268 OA
BRANCH  12  15
HETATM   15  C   UNL     1       6.610  28.459  57.511  1.00  0.00     0.154 C 
BRANCH  15  16
HETATM   16  C   UNL     1       7.836  29.317  57.854  1.00  0.00     0.132 C 
HETATM   17  C   UNL     1       9.089  28.776  57.182  1.00  0.00     0.041 C 
BRANCH  16  18
HETATM   18  O   UNL     1       8.048  29.297  59.269  1.00  0.00    -0.394 OA
HETATM   19  H   UNL     1       8.598  28.513  59.444  1.00  0.00     0.210 HD
ENDBRANCH  16  18
ENDBRANCH  15  16
ENDBRANCH  12  15
ENDBRANCH   1  11
BRANCH   9  20
HETATM   20  C   UNL     1       5.343  26.981  50.977  1.00  0.00    -0.007 A 
HETATM   21  C   UNL     1       4.803  26.213  49.928  1.00  0.00     0.015 A 
HETATM   22  C   UNL     1       4.286  26.813  48.773  1.00  0.00     0.024 A 
HETATM   23  C   UNL     1       4.309  28.196  48.646  1.00  0.00     0.034 A 
HETATM   24 CL   UNL     1       3.677  28.939  47.230  1.00  0.00    -0.084 Cl
HETATM   25  C   UNL     1       4.844  28.983  49.661  1.00  0.00     0.024 A 
HETATM   26  C   UNL     1       5.358  28.379  50.815  1.00  0.00     0.015 A 
ENDBRANCH   9  20
TORSDOF 5
ENDMDL
MODEL 8
REMARK VINA RESULT:      -8.3      4.131      7.257
REMARK  5 active torsions:
REMARK  status: ('A' for Active; 'I' for Inactive)
REMARK    1  A    between atoms: C_2  and  O_3 
REMARK    2  A    between atoms: C_2  and  C_4 
REMARK    3  A    between atoms: C_4  and  N_5 
REMARK       I    between atoms: N_5  and  C_6 
REMARK    4  A    between atoms: C_6  and  C_7 
REMARK    5  A    between atoms: C_15  and  C_16 
ROOT
HETATM    1  C   UNL     1       7.413  24.239  54.059  1.00  0.00     0.046 A 
HETATM    2  C   UNL     1       7.569  25.026  55.222  1.00  0.00     0.008 A 
HETATM    3  C   UNL     1       6.979  26.303  55.184  1.00  0.00     0.068 A 
HETATM    4  C   UNL     1       7.087  27.127  56.297  1.00  0.00     0.032 A 
HETATM    5  C   UNL     1       7.762  26.726  57.451  1.00  0.00     0.002 A 
HETATM    6  C   UNL     1       8.346  25.470  57.503  1.00  0.00     0.001 A 
HETATM    7  C   UNL     1       8.250  24.624  56.399  1.00  0.00     0.015 A 
HETATM    8  N   UNL     1       6.303  26.767  54.118  1.00  0.00    -0.248 NA
HETATM    9  C   UNL     1       6.171  25.997  53.011  1.00  0.00     0.068 A 
HETATM   10  C   UNL     1       6.721  24.729  52.947  1.00  0.00     0.050 A 
ENDROOT
BRANCH   1  11
HETATM   11  C   UNL     1       7.994  22.877  53.955  1.00  0.00     0.252 C 
HETATM   12  N   UNL     1       7.415  21.929  54.772  1.00  0.00    -0.354 N 
HETATM   13  H   UNL     1       6.728  22.201  55.464  1.00  0.00     0.162 HD
HETATM   14  O   UNL     1       8.921  22.639  53.195  1.00  0.00    -0.268 OA
BRANCH  12  15
HETATM   15  C   UNL     1       7.863  20.544  54.766  1.00  0.00     0.154 C 
BRANCH  15  16
HETATM   16  C   UNL     1       8.465  20.122  56.114  1.00  0.00     0.132 C 
HETATM   17  C   UNL     1       8.216  21.178  57.180  1.00  0.00     0.041 C 
BRANCH  16  18
HETATM   18  O   UNL     1       9.880  19.961  55.971  1.00  0.00    -0.394 OA
HETATM   19  H   UNL     1      10.077  19.061  56.285  1.00  0.00     0.210 HD
ENDBRANCH  16  18
ENDBRANCH  15  16
ENDBRANCH  12  15
ENDBRANCH   1  11
BRANCH   9  20
HETATM   20  C   UNL     1       5.418  26.608  51.895  1.00  0.00    -0.007 A 
HETATM   21  C   UNL     1       5.266  25.922  50.674  1.00  0.00     0.015 A 
HETATM   22  C   UNL     1       4.555  26.479  49.605  1.00  0.00     0.024 A 
HETATM   23  C   UNL     1       3.988  27.740  49.738  1.00  0.00     0.034 A 
HETATM   24 CL   UNL     1       3.114  28.431  48.428  1.00  0.00    -0.084 Cl
HETATM   25  C   UNL     1       4.127  28.448  50.927  1.00  0.00     0.024 A 
HETATM   26  C   UNL     1       4.838  27.886  51.995  1.00  0.00     0.015 A 
ENDBRANCH   9  20
TORSDOF 5
ENDMDL
MODEL 9
REMARK VINA RESULT:      -8.3      2.136      2.575
REMARK  5 active torsions:
REMARK  status: ('A' for Active; 'I' for Inactive)
REMARK    1  A    between atoms: C_2  and  O_3 
REMARK    2  A    between atoms: C_2  and  C_4 
REMARK    3  A    between atoms: C_4  and  N_5 
REMARK       I    between atoms: N_5  and  C_6 
REMARK    4  A    between atoms: C_6  and  C_7 
REMARK    5  A    between atoms: C_15  and  C_16 
ROOT
HETATM    1  C   UNL     1       5.478  27.585  53.219  1.00  0.00     0.046 A 
HETATM    2  C   UNL     1       5.241  28.153  54.490  1.00  0.00     0.008 A 
HETATM    3  C   UNL     1       5.607  27.363  55.596  1.00  0.00     0.068 A 
HETATM    4  C   UNL     1       5.408  27.865  56.875  1.00  0.00     0.032 A 
HETATM    5  C   UNL     1       4.859  29.129  57.098  1.00  0.00     0.002 A 
HETATM    6  C   UNL     1       4.496  29.918  56.018  1.00  0.00     0.001 A 
HETATM    7  C   UNL     1       4.687  29.438  54.723  1.00  0.00     0.015 A 
HETATM    8  N   UNL     1       6.150  26.139  55.473  1.00  0.00    -0.248 NA
HETATM    9  C   UNL     1       6.362  25.611  54.245  1.00  0.00     0.068 A 
HETATM   10  C   UNL     1       6.031  26.306  53.095  1.00  0.00     0.050 A 
ENDROOT
BRANCH   1  11
HETATM   11  C   UNL     1       5.130  28.300  51.966  1.00  0.00     0.252 C 
HETATM   12  N   UNL     1       3.966  27.882  51.357  1.00  0.00    -0.354 N 
HETATM   13  H   UNL     1       3.473  27.067  51.700  1.00  0.00     0.162 HD
HETATM   14  O   UNL     1       5.842  29.190  51.524  1.00  0.00    -0.268 OA
BRANCH  12  15
HETATM   15  C   UNL     1       3.482  28.502  50.132  1.00  0.00     0.154 C 
BRANCH  15  16
HETATM   16  C   UNL     1       2.108  29.162  50.319  1.00  0.00     0.132 C 
HETATM   17  C   UNL     1       2.249  30.650  50.599  1.00  0.00     0.041 C 
BRANCH  16  18
HETATM   18  O   UNL     1       1.442  28.562  51.435  1.00  0.00    -0.394 OA
HETATM   19  H   UNL     1       1.866  28.934  52.228  1.00  0.00     0.210 HD
ENDBRANCH  16  18
ENDBRANCH  15  16
ENDBRANCH  12  15
ENDBRANCH   1  11
BRANCH   9  20
HETATM   20  C   UNL     1       6.955  24.256  54.226  1.00  0.00    -0.007 A 
HETATM   21  C   UNL     1       7.169  23.551  55.426  1.00  0.00     0.015 A 
HETATM   22  C   UNL     1       7.726  22.267  55.432  1.00  0.00     0.024 A 
HETATM   23  C   UNL     1       8.085  21.667  54.230  1.00  0.00     0.034 A 
HETATM   24 CL   UNL     1       8.771  20.090  54.230  1.00  0.00    -0.084 Cl
HETATM   25  C   UNL     1       7.895  22.340  53.028  1.00  0.00     0.024 A 
HETATM   26  C   UNL     1       7.337  23.624  53.027  1.00  0.00     0.015 A 
ENDBRANCH   9  20
TORSDOF 5
ENDMDL
MODEL 10
REMARK VINA RESULT:      -8.3      5.500      8.520
REMARK  5 active torsions:
REMARK  status: ('A' for Active; 'I' for Inactive)
REMARK    1  A    between atoms: C_2  and  O_3 
REMARK    2  A    between atoms: C_2  and  C_4 
REMARK    3  A    between atoms: C_4  and  N_5 
REMARK       I    between atoms: N_5  and  C_6 
REMARK    4  A    between atoms: C_6  and  C_7 
REMARK    5  A    between atoms: C_15  and  C_16 
ROOT
HETATM    1  C   UNL     1       7.110  29.708  58.055  1.00  0.00     0.046 A 
HETATM    2  C   UNL     1       5.828  30.034  57.563  1.00  0.00     0.008 A 
HETATM    3  C   UNL     1       5.214  29.061  56.752  1.00  0.00     0.068 A 
HETATM    4  C   UNL     1       3.949  29.313  56.240  1.00  0.00     0.032 A 
HETATM    5  C   UNL     1       3.266  30.501  56.506  1.00  0.00     0.002 A 
HETATM    6  C   UNL     1       3.857  31.468  57.304  1.00  0.00     0.001 A 
HETATM    7  C   UNL     1       5.127  31.238  57.831  1.00  0.00     0.015 A 
HETATM    8  N   UNL     1       5.795  27.886  56.453  1.00  0.00    -0.248 NA
HETATM    9  C   UNL     1       7.028  27.597  56.931  1.00  0.00     0.068 A 
HETATM   10  C   UNL     1       7.718  28.491  57.731  1.00  0.00     0.050 A 
ENDROOT
BRANCH   1  11
HETATM   11  C   UNL     1       7.879  30.646  58.911  1.00  0.00     0.252 C 
HETATM   12  N   UNL     1       7.762  30.431  60.268  1.00  0.00    -0.354 N 
HETATM   13  H   UNL     1       7.101  29.751  60.623  1.00  0.00     0.162 HD
HETATM   14  O   UNL     1       8.556  31.540  58.425  1.00  0.00    -0.268 OA
BRANCH  12  15
HETATM   15  C   UNL     1       8.474  31.256  61.235  1.00  0.00     0.154 C 
BRANCH  15  16
HETATM   16  C   UNL     1       7.531  32.191  62.005  1.00  0.00     0.132 C 
HETATM   17  C   UNL     1       8.053  32.461  63.408  1.00  0.00     0.041 C 
BRANCH  16  18
HETATM   18  O   UNL     1       6.244  31.575  62.122  1.00  0.00    -0.394 OA
HETATM   19  H   UNL     1       6.226  31.164  63.005  1.00  0.00     0.210 HD
ENDBRANCH  16  18
ENDBRANCH  15  16
ENDBRANCH  12  15
ENDBRANCH   1  11
BRANCH   9  20
HETATM   20  C   UNL     1       7.577  26.282  56.533  1.00  0.00    -0.007 A 
HETATM   21  C   UNL     1       7.304  25.749  55.259  1.00  0.00     0.015 A 
HETATM   22  C   UNL     1       7.815  24.508  54.859  1.00  0.00     0.024 A 
HETATM   23  C   UNL     1       8.605  23.775  55.736  1.00  0.00     0.034 A 
HETATM   24 CL   UNL     1       9.235  22.250  55.252  1.00  0.00    -0.084 Cl
HETATM   25  C   UNL     1       8.887  24.270  57.005  1.00  0.00     0.024 A 
HETATM   26  C   UNL     1       8.375  25.512  57.400  1.00  0.00     0.015 A 
ENDBRANCH   9  20
TORSDOF 5
ENDMDL
