MODEL 1
REMARK VINA RESULT:      -8.2      0.000      0.000
REMARK  5 active torsions:
REMARK  status: ('A' for Active; 'I' for Inactive)
REMARK    1  A    between atoms: C_2  and  C_3 
REMARK    2  A    between atoms: C_3  and  C_4 
REMARK    3  A    between atoms: C_3  and  C_29 
REMARK       I    between atoms: C_4  and  N_5 
REMARK    4  A    between atoms: N_5  and  C_6 
REMARK    5  A    between atoms: C_18  and  C_19 
ROOT
HETATM    1  C   UNL     1       5.970  27.182  56.295  1.00  0.00     0.088 C 
HETATM    2  C   UNL     1       6.010  26.340  55.033  1.00  0.00     0.060 C 
HETATM    3  C   UNL     1       5.508  27.049  53.759  1.00  0.00     0.181 C 
HETATM    4  N   UNL     1       4.466  28.069  53.953  1.00  0.00    -0.334 N 
HETATM    5  C   UNL     1       4.127  28.964  52.929  1.00  0.00     0.256 C 
HETATM    6  O   UNL     1       3.438  29.963  53.149  1.00  0.00    -0.267 OA
HETATM    7  C   UNL     1       4.629  28.790  51.542  1.00  0.00     0.059 A 
HETATM    8  C   UNL     1       4.781  27.564  50.894  1.00  0.00     0.050 A 
HETATM    9  N   UNL     1       4.683  26.310  51.501  1.00  0.00    -0.324 N 
HETATM   10  C   UNL     1       4.990  25.966  52.784  1.00  0.00     0.245 C 
HETATM   11  O   UNL     1       4.969  24.762  53.056  1.00  0.00    -0.271 OA
HETATM   12  C   UNL     1       4.813  29.982  50.809  1.00  0.00     0.031 A 
HETATM   13  C   UNL     1       5.138  29.967  49.449  1.00  0.00    -0.024 A 
HETATM   14  C   UNL     1       5.234  28.735  48.801  1.00  0.00     0.014 A 
HETATM   15  C   UNL     1       5.046  27.549  49.514  1.00  0.00     0.031 A 
HETATM   16  C   UNL     1       4.176  28.595  55.290  1.00  0.00     0.129 C 
HETATM   17  C   UNL     1       4.555  27.713  56.461  1.00  0.00     0.045 C 
HETATM   18  H   UNL     1       4.564  25.494  50.911  1.00  0.00     0.169 HD
ENDROOT
BRANCH   1  19
HETATM   19  N   UNL     1       6.978  28.235  56.294  1.00  0.00    -0.356 N 
HETATM   20  C   UNL     1       7.881  28.357  57.330  1.00  0.00     0.222 C 
HETATM   21  O   UNL     1       7.940  27.561  58.262  1.00  0.00    -0.273 OA
HETATM   22  H   UNL     1       6.860  29.023  55.673  1.00  0.00     0.162 HD
BRANCH  20  23
HETATM   23  C   UNL     1       8.819  29.563  57.252  1.00  0.00     0.077 C 
BRANCH  23  24
HETATM   24  C   UNL     1      10.193  29.177  56.679  1.00  0.00     0.009 C 
HETATM   25  C   UNL     1      11.340  29.944  57.327  1.00  0.00     0.006 C 
ENDBRANCH  23  24
BRANCH  23  26
HETATM   26  C   UNL     1       8.978  30.247  58.622  1.00  0.00     0.009 C 
HETATM   27  C   UNL     1       7.715  30.972  59.067  1.00  0.00     0.006 C 
ENDBRANCH  23  26
ENDBRANCH  20  23
ENDBRANCH   1  19
BRANCH  13  28
HETATM   28  C   UNL     1       5.344  31.221  48.731  1.00  0.00    -0.019 A 
HETATM   29  C   UNL     1       4.747  31.475  47.510  1.00  0.00     0.061 A 
HETATM   30  S   UNL     1       5.178  33.002  46.867  1.00  0.00    -0.113 SA
HETATM   31  C   UNL     1       6.181  33.343  48.207  1.00  0.00     0.050 A 
HETATM   32  C   UNL     1       6.183  32.315  49.125  1.00  0.00     0.020 A 
ENDBRANCH  13  28
TORSDOF 5
ENDMDL
MODEL 2
REMARK VINA RESULT:      -8.2      3.798      8.282
REMARK  5 active torsions:
REMARK  status: ('A' for Active; 'I' for Inactive)
REMARK    1  A    between atoms: C_2  and  C_3 
REMARK    2  A    between atoms: C_3  and  C_4 
REMARK    3  A    between atoms: C_3  and  C_29 
REMARK       I    between atoms: C_4  and  N_5 
REMARK    4  A    between atoms: N_5  and  C_6 
REMARK    5  A    between atoms: C_18  and  C_19 
ROOT
HETATM    1  C   UNL     1       4.924  30.369  55.470  1.00  0.00     0.088 C 
HETATM    2  C   UNL     1       6.221  30.086  56.206  1.00  0.00     0.060 C 
HETATM    3  C   UNL     1       6.522  28.593  56.446  1.00  0.00     0.181 C 
HETATM    4  N   UNL     1       5.354  27.713  56.609  1.00  0.00    -0.334 N 
HETATM    5  C   UNL     1       5.483  26.319  56.558  1.00  0.00     0.256 C 
HETATM    6  O   UNL     1       4.497  25.585  56.454  1.00  0.00    -0.267 OA
HETATM    7  C   UNL     1       6.812  25.656  56.565  1.00  0.00     0.059 A 
HETATM    8  C   UNL     1       7.913  26.078  57.311  1.00  0.00     0.050 A 
HETATM    9  N   UNL     1       8.006  27.288  58.003  1.00  0.00    -0.324 N 
HETATM   10  C   UNL     1       7.424  28.484  57.697  1.00  0.00     0.245 C 
HETATM   11  O   UNL     1       7.773  29.458  58.370  1.00  0.00    -0.271 OA
HETATM   12  C   UNL     1       6.883  24.430  55.870  1.00  0.00     0.031 A 
HETATM   13  C   UNL     1       8.025  23.624  55.916  1.00  0.00    -0.024 A 
HETATM   14  C   UNL     1       9.098  24.032  56.709  1.00  0.00     0.014 A 
HETATM   15  C   UNL     1       9.036  25.240  57.408  1.00  0.00     0.031 A 
HETATM   16  C   UNL     1       4.014  28.177  56.239  1.00  0.00     0.129 C 
HETATM   17  C   UNL     1       3.797  29.676  56.219  1.00  0.00     0.045 C 
HETATM   18  H   UNL     1       8.730  27.391  58.704  1.00  0.00     0.169 HD
ENDROOT
BRANCH   1  19
HETATM   19  N   UNL     1       4.989  29.995  54.063  1.00  0.00    -0.356 N 
HETATM   20  C   UNL     1       4.047  30.447  53.162  1.00  0.00     0.222 C 
HETATM   21  O   UNL     1       3.155  31.233  53.466  1.00  0.00    -0.273 OA
HETATM   22  H   UNL     1       5.566  29.211  53.793  1.00  0.00     0.162 HD
BRANCH  20  23
HETATM   23  C   UNL     1       4.176  29.899  51.740  1.00  0.00     0.077 C 
BRANCH  23  24
HETATM   24  C   UNL     1       2.956  29.046  51.349  1.00  0.00     0.009 C 
HETATM   25  C   UNL     1       2.059  29.731  50.326  1.00  0.00     0.006 C 
ENDBRANCH  23  24
BRANCH  23  26
HETATM   26  C   UNL     1       5.476  29.096  51.556  1.00  0.00     0.009 C 
HETATM   27  C   UNL     1       5.246  27.754  50.873  1.00  0.00     0.006 C 
ENDBRANCH  23  26
ENDBRANCH  20  23
ENDBRANCH   1  19
BRANCH  13  28
HETATM   28  C   UNL     1       8.069  22.374  55.163  1.00  0.00    -0.019 A 
HETATM   29  C   UNL     1       7.894  22.336  53.792  1.00  0.00     0.061 A 
HETATM   30  S   UNL     1       7.958  20.746  53.160  1.00  0.00    -0.113 SA
HETATM   31  C   UNL     1       8.209  20.081  54.713  1.00  0.00     0.050 A 
HETATM   32  C   UNL     1       8.246  21.052  55.690  1.00  0.00     0.020 A 
ENDBRANCH  13  28
TORSDOF 5
ENDMDL
MODEL 3
REMARK VINA RESULT:      -7.9      7.801     11.476
REMARK  5 active torsions:
REMARK  status: ('A' for Active; 'I' for Inactive)
REMARK    1  A    between atoms: C_2  and  C_3 
REMARK    2  A    between atoms: C_3  and  C_4 
REMARK    3  A    between atoms: C_3  and  C_29 
REMARK       I    between atoms: C_4  and  N_5 
REMARK    4  A    between atoms: N_5  and  C_6 
REMARK    5  A    between atoms: C_18  and  C_19 
ROOT
HETATM    1  C   UNL     1       4.215  36.705  62.795  1.00  0.00     0.088 C 
HETATM    2  C   UNL     1       5.337  36.072  63.596  1.00  0.00     0.060 C 
HETATM    3  C   UNL     1       5.898  34.761  63.010  1.00  0.00     0.181 C 
HETATM    4  N   UNL     1       4.947  33.928  62.256  1.00  0.00    -0.334 N 
HETATM    5  C   UNL     1       5.389  32.868  61.454  1.00  0.00     0.256 C 
HETATM    6  O   UNL     1       4.640  32.321  60.640  1.00  0.00    -0.267 OA
HETATM    7  C   UNL     1       6.794  32.388  61.497  1.00  0.00     0.059 A 
HETATM    8  C   UNL     1       7.573  32.297  62.651  1.00  0.00     0.050 A 
HETATM    9  N   UNL     1       7.236  32.825  63.899  1.00  0.00    -0.324 N 
HETATM   10  C   UNL     1       6.491  33.934  64.175  1.00  0.00     0.245 C 
HETATM   11  O   UNL     1       6.452  34.297  65.354  1.00  0.00    -0.271 OA
HETATM   12  C   UNL     1       7.291  31.854  60.289  1.00  0.00     0.031 A 
HETATM   13  C   UNL     1       8.541  31.231  60.219  1.00  0.00    -0.024 A 
HETATM   14  C   UNL     1       9.286  31.099  61.391  1.00  0.00     0.014 A 
HETATM   15  C   UNL     1       8.801  31.616  62.595  1.00  0.00     0.031 A 
HETATM   16  C   UNL     1       3.659  34.476  61.821  1.00  0.00     0.129 C 
HETATM   17  C   UNL     1       3.127  35.659  62.602  1.00  0.00     0.045 C 
HETATM   18  H   UNL     1       7.739  32.498  64.716  1.00  0.00     0.169 HD
ENDROOT
BRANCH   1  19
HETATM   19  N   UNL     1       4.681  37.281  61.540  1.00  0.00    -0.356 N 
HETATM   20  C   UNL     1       4.072  38.394  60.998  1.00  0.00     0.222 C 
HETATM   21  O   UNL     1       3.165  39.000  61.560  1.00  0.00    -0.273 OA
HETATM   22  H   UNL     1       5.278  36.728  60.941  1.00  0.00     0.162 HD
BRANCH  20  23
HETATM   23  C   UNL     1       4.596  38.834  59.630  1.00  0.00     0.077 C 
BRANCH  23  24
HETATM   24  C   UNL     1       4.344  37.762  58.555  1.00  0.00     0.009 C 
HETATM   25  C   UNL     1       2.867  37.426  58.390  1.00  0.00     0.006 C 
ENDBRANCH  23  24
BRANCH  23  26
HETATM   26  C   UNL     1       6.090  39.201  59.684  1.00  0.00     0.009 C 
HETATM   27  C   UNL     1       6.372  40.379  60.608  1.00  0.00     0.006 C 
ENDBRANCH  23  26
ENDBRANCH  20  23
ENDBRANCH   1  19
BRANCH  13  28
HETATM   28  C   UNL     1       9.031  30.714  58.945  1.00  0.00    -0.019 A 
HETATM   29  C   UNL     1       8.414  29.660  58.296  1.00  0.00     0.061 A 
HETATM   30  S   UNL     1       9.204  29.227  56.840  1.00  0.00    -0.113 SA
HETATM   31  C   UNL     1      10.391  30.435  57.062  1.00  0.00     0.050 A 
HETATM   32  C   UNL     1      10.186  31.154  58.219  1.00  0.00     0.020 A 
ENDBRANCH  13  28
TORSDOF 5
ENDMDL
MODEL 4
REMARK VINA RESULT:      -7.6      6.309     10.572
REMARK  5 active torsions:
REMARK  status: ('A' for Active; 'I' for Inactive)
REMARK    1  A    between atoms: C_2  and  C_3 
REMARK    2  A    between atoms: C_3  and  C_4 
REMARK    3  A    between atoms: C_3  and  C_29 
REMARK       I    between atoms: C_4  and  N_5 
REMARK    4  A    between atoms: N_5  and  C_6 
REMARK    5  A    between atoms: C_18  and  C_19 
ROOT
HETATM    1  C   UNL     1       5.149  31.035  56.516  1.00  0.00     0.088 C 
HETATM    2  C   UNL     1       5.145  32.547  56.647  1.00  0.00     0.060 C 
HETATM    3  C   UNL     1       4.815  33.080  58.056  1.00  0.00     0.181 C 
HETATM    4  N   UNL     1       3.910  32.251  58.866  1.00  0.00    -0.334 N 
HETATM    5  C   UNL     1       3.752  32.478  60.240  1.00  0.00     0.256 C 
HETATM    6  O   UNL     1       3.192  31.656  60.969  1.00  0.00    -0.267 OA
HETATM    7  C   UNL     1       4.302  33.690  60.899  1.00  0.00     0.059 A 
HETATM    8  C   UNL     1       4.325  34.967  60.337  1.00  0.00     0.050 A 
HETATM    9  N   UNL     1       4.025  35.270  59.007  1.00  0.00    -0.324 N 
HETATM   10  C   UNL     1       4.211  34.495  57.900  1.00  0.00     0.245 C 
HETATM   11  O   UNL     1       4.014  35.033  56.807  1.00  0.00    -0.271 OA
HETATM   12  C   UNL     1       4.685  33.527  62.248  1.00  0.00     0.031 A 
HETATM   13  C   UNL     1       5.080  34.612  63.037  1.00  0.00    -0.024 A 
HETATM   14  C   UNL     1       5.046  35.890  62.478  1.00  0.00     0.014 A 
HETATM   15  C   UNL     1       4.661  36.064  61.147  1.00  0.00     0.031 A 
HETATM   16  C   UNL     1       3.619  30.866  58.480  1.00  0.00     0.129 C 
HETATM   17  C   UNL     1       3.811  30.517  57.019  1.00  0.00     0.045 C 
HETATM   18  H   UNL     1       3.831  36.235  58.762  1.00  0.00     0.169 HD
ENDROOT
BRANCH   1  19
HETATM   19  N   UNL     1       6.287  30.421  57.187  1.00  0.00    -0.356 N 
HETATM   20  C   UNL     1       6.942  29.340  56.633  1.00  0.00     0.222 C 
HETATM   21  O   UNL     1       6.660  28.882  55.530  1.00  0.00    -0.273 OA
HETATM   22  H   UNL     1       6.441  30.617  58.166  1.00  0.00     0.162 HD
BRANCH  20  23
HETATM   23  C   UNL     1       8.054  28.731  57.488  1.00  0.00     0.077 C 
BRANCH  23  24
HETATM   24  C   UNL     1       9.277  29.661  57.574  1.00  0.00     0.009 C 
HETATM   25  C   UNL     1      10.202  29.534  56.370  1.00  0.00     0.006 C 
ENDBRANCH  23  24
BRANCH  23  26
HETATM   26  C   UNL     1       8.470  27.341  56.973  1.00  0.00     0.009 C 
HETATM   27  C   UNL     1       7.733  26.209  57.677  1.00  0.00     0.006 C 
ENDBRANCH  23  26
ENDBRANCH  20  23
ENDBRANCH   1  19
BRANCH  13  28
HETATM   28  C   UNL     1       5.493  34.399  64.421  1.00  0.00    -0.019 A 
HETATM   29  C   UNL     1       4.629  34.595  65.483  1.00  0.00     0.061 A 
HETATM   30  S   UNL     1       5.369  34.309  67.000  1.00  0.00    -0.113 SA
HETATM   31  C   UNL     1       6.861  33.929  66.260  1.00  0.00     0.050 A 
HETATM   32  C   UNL     1       6.794  34.016  64.887  1.00  0.00     0.020 A 
ENDBRANCH  13  28
TORSDOF 5
ENDMDL
MODEL 5
REMARK VINA RESULT:      -7.0      3.790      8.419
REMARK  5 active torsions:
REMARK  status: ('A' for Active; 'I' for Inactive)
REMARK    1  A    between atoms: C_2  and  C_3 
REMARK    2  A    between atoms: C_3  and  C_4 
REMARK    3  A    between atoms: C_3  and  C_29 
REMARK       I    between atoms: C_4  and  N_5 
REMARK    4  A    between atoms: N_5  and  C_6 
REMARK    5  A    between atoms: C_18  and  C_19 
ROOT
HETATM    1  C   UNL     1       4.233  26.273  48.696  1.00  0.00     0.088 C 
HETATM    2  C   UNL     1       4.509  25.769  50.101  1.00  0.00     0.060 C 
HETATM    3  C   UNL     1       4.734  26.870  51.157  1.00  0.00     0.181 C 
HETATM    4  N   UNL     1       5.340  28.120  50.671  1.00  0.00    -0.334 N 
HETATM    5  C   UNL     1       5.343  29.279  51.459  1.00  0.00     0.256 C 
HETATM    6  O   UNL     1       5.626  30.380  50.983  1.00  0.00    -0.267 OA
HETATM    7  C   UNL     1       4.948  29.251  52.891  1.00  0.00     0.059 A 
HETATM    8  C   UNL     1       5.251  28.223  53.785  1.00  0.00     0.050 A 
HETATM    9  N   UNL     1       5.787  26.981  53.438  1.00  0.00    -0.324 N 
HETATM   10  C   UNL     1       5.614  26.278  52.282  1.00  0.00     0.245 C 
HETATM   11  O   UNL     1       6.063  25.128  52.259  1.00  0.00    -0.271 OA
HETATM   12  C   UNL     1       4.355  30.434  53.380  1.00  0.00     0.031 A 
HETATM   13  C   UNL     1       4.069  30.606  54.738  1.00  0.00    -0.024 A 
HETATM   14  C   UNL     1       4.426  29.593  55.628  1.00  0.00     0.014 A 
HETATM   15  C   UNL     1       5.021  28.421  55.156  1.00  0.00     0.031 A 
HETATM   16  C   UNL     1       5.411  28.406  49.235  1.00  0.00     0.129 C 
HETATM   17  C   UNL     1       5.363  27.213  48.304  1.00  0.00     0.045 C 
HETATM   18  H   UNL     1       6.195  26.409  54.168  1.00  0.00     0.169 HD
ENDROOT
BRANCH   1  19
HETATM   19  N   UNL     1       2.916  26.881  48.571  1.00  0.00    -0.356 N 
HETATM   20  C   UNL     1       2.153  26.702  47.435  1.00  0.00     0.222 C 
HETATM   21  O   UNL     1       2.497  25.975  46.507  1.00  0.00    -0.273 OA
HETATM   22  H   UNL     1       2.664  27.634  49.196  1.00  0.00     0.162 HD
BRANCH  20  23
HETATM   23  C   UNL     1       0.835  27.477  47.393  1.00  0.00     0.077 C 
BRANCH  23  24
HETATM   24  C   UNL     1       0.152  27.360  46.019  1.00  0.00     0.009 C 
HETATM   25  C   UNL     1      -1.181  28.094  45.958  1.00  0.00     0.006 C 
ENDBRANCH  23  24
BRANCH  23  26
HETATM   26  C   UNL     1       1.033  28.956  47.772  1.00  0.00     0.009 C 
HETATM   27  C   UNL     1       1.959  29.690  46.811  1.00  0.00     0.006 C 
ENDBRANCH  23  26
ENDBRANCH  20  23
ENDBRANCH   1  19
BRANCH  13  28
HETATM   28  C   UNL     1       3.432  31.835  55.202  1.00  0.00    -0.019 A 
HETATM   29  C   UNL     1       3.954  32.586  56.240  1.00  0.00     0.061 A 
HETATM   30  S   UNL     1       3.001  33.959  56.608  1.00  0.00    -0.113 SA
HETATM   31  C   UNL     1       1.867  33.564  55.393  1.00  0.00     0.050 A 
HETATM   32  C   UNL     1       2.211  32.413  54.720  1.00  0.00     0.020 A 
ENDBRANCH  13  28
TORSDOF 5
ENDMDL
MODEL 6
REMARK VINA RESULT:      -7.0      7.305     11.216
REMARK  5 active torsions:
REMARK  status: ('A' for Active; 'I' for Inactive)
REMARK    1  A    between atoms: C_2  and  C_3 
REMARK    2  A    between atoms: C_3  and  C_4 
REMARK    3  A    between atoms: C_3  and  C_29 
REMARK       I    between atoms: C_4  and  N_5 
REMARK    4  A    between atoms: N_5  and  C_6 
REMARK    5  A    between atoms: C_18  and  C_19 
ROOT
HETATM    1  C   UNL     1       3.322  36.662  61.137  1.00  0.00     0.088 C 
HETATM    2  C   UNL     1       4.478  36.356  62.072  1.00  0.00     0.060 C 
HETATM    3  C   UNL     1       5.200  35.021  61.802  1.00  0.00     0.181 C 
HETATM    4  N   UNL     1       4.374  33.938  61.244  1.00  0.00    -0.334 N 
HETATM    5  C   UNL     1       4.958  32.784  60.706  1.00  0.00     0.256 C 
HETATM    6  O   UNL     1       4.303  31.988  60.028  1.00  0.00    -0.267 OA
HETATM    7  C   UNL     1       6.404  32.490  60.872  1.00  0.00     0.059 A 
HETATM    8  C   UNL     1       7.146  32.748  62.025  1.00  0.00     0.050 A 
HETATM    9  N   UNL     1       6.707  33.497  63.119  1.00  0.00    -0.324 N 
HETATM   10  C   UNL     1       5.836  34.547  63.130  1.00  0.00     0.245 C 
HETATM   11  O   UNL     1       5.715  35.155  64.197  1.00  0.00    -0.271 OA
HETATM   12  C   UNL     1       7.000  31.762  59.819  1.00  0.00     0.031 A 
HETATM   13  C   UNL     1       8.313  31.287  59.906  1.00  0.00    -0.024 A 
HETATM   14  C   UNL     1       9.024  31.505  61.086  1.00  0.00     0.014 A 
HETATM   15  C   UNL     1       8.442  32.217  62.136  1.00  0.00     0.031 A 
HETATM   16  C   UNL     1       3.050  34.224  60.683  1.00  0.00     0.129 C 
HETATM   17  C   UNL     1       2.364  35.482  61.172  1.00  0.00     0.045 C 
HETATM   18  H   UNL     1       7.213  33.420  63.993  1.00  0.00     0.169 HD
ENDROOT
BRANCH   1  19
HETATM   19  N   UNL     1       3.768  36.995  59.791  1.00  0.00    -0.356 N 
HETATM   20  C   UNL     1       3.179  38.019  59.077  1.00  0.00     0.222 C 
HETATM   21  O   UNL     1       2.310  38.746  59.548  1.00  0.00    -0.273 OA
HETATM   22  H   UNL     1       4.329  36.325  59.282  1.00  0.00     0.162 HD
BRANCH  20  23
HETATM   23  C   UNL     1       3.675  38.196  57.641  1.00  0.00     0.077 C 
BRANCH  23  24
HETATM   24  C   UNL     1       4.592  39.424  57.506  1.00  0.00     0.009 C 
HETATM   25  C   UNL     1       3.898  40.609  56.846  1.00  0.00     0.006 C 
ENDBRANCH  23  24
BRANCH  23  26
HETATM   26  C   UNL     1       2.506  38.283  56.643  1.00  0.00     0.009 C 
HETATM   27  C   UNL     1       2.510  37.143  55.633  1.00  0.00     0.006 C 
ENDBRANCH  23  26
ENDBRANCH  20  23
ENDBRANCH   1  19
BRANCH  13  28
HETATM   28  C   UNL     1       8.902  30.559  58.786  1.00  0.00    -0.019 A 
HETATM   29  C   UNL     1      10.062  30.984  58.163  1.00  0.00     0.061 A 
HETATM   30  S   UNL     1      10.522  29.974  56.860  1.00  0.00    -0.113 SA
HETATM   31  C   UNL     1       9.170  28.958  57.100  1.00  0.00     0.050 A 
HETATM   32  C   UNL     1       8.388  29.379  58.153  1.00  0.00     0.020 A 
ENDBRANCH  13  28
TORSDOF 5
ENDMDL
MODEL 7
REMARK VINA RESULT:      -7.0      4.111      8.723
REMARK  5 active torsions:
REMARK  status: ('A' for Active; 'I' for Inactive)
REMARK    1  A    between atoms: C_2  and  C_3 
REMARK    2  A    between atoms: C_3  and  C_4 
REMARK    3  A    between atoms: C_3  and  C_29 
REMARK       I    between atoms: C_4  and  N_5 
REMARK    4  A    between atoms: N_5  and  C_6 
REMARK    5  A    between atoms: C_18  and  C_19 
ROOT
HETATM    1  C   UNL     1       2.570  29.818  46.983  1.00  0.00     0.088 C 
HETATM    2  C   UNL     1       2.817  28.350  47.277  1.00  0.00     0.060 C 
HETATM    3  C   UNL     1       3.715  28.071  48.500  1.00  0.00     0.181 C 
HETATM    4  N   UNL     1       4.742  29.083  48.794  1.00  0.00    -0.334 N 
HETATM    5  C   UNL     1       5.428  29.086  50.016  1.00  0.00     0.256 C 
HETATM    6  O   UNL     1       6.108  30.053  50.370  1.00  0.00    -0.267 OA
HETATM    7  C   UNL     1       5.324  27.956  50.974  1.00  0.00     0.059 A 
HETATM    8  C   UNL     1       5.259  26.608  50.617  1.00  0.00     0.050 A 
HETATM    9  N   UNL     1       5.077  26.123  49.320  1.00  0.00    -0.324 N 
HETATM   10  C   UNL     1       4.395  26.698  48.289  1.00  0.00     0.245 C 
HETATM   11  O   UNL     1       4.238  26.012  47.275  1.00  0.00    -0.271 OA
HETATM   12  C   UNL     1       5.453  28.300  52.336  1.00  0.00     0.031 A 
HETATM   13  C   UNL     1       5.525  27.325  53.337  1.00  0.00    -0.024 A 
HETATM   14  C   UNL     1       5.513  25.982  52.962  1.00  0.00     0.014 A 
HETATM   15  C   UNL     1       5.393  25.630  51.615  1.00  0.00     0.031 A 
HETATM   16  C   UNL     1       4.686  30.407  48.167  1.00  0.00     0.129 C 
HETATM   17  C   UNL     1       3.921  30.507  46.864  1.00  0.00     0.045 C 
HETATM   18  H   UNL     1       5.289  25.149  49.133  1.00  0.00     0.169 HD
ENDROOT
BRANCH   1  19
HETATM   19  N   UNL     1       1.695  30.443  47.965  1.00  0.00    -0.356 N 
HETATM   20  C   UNL     1       0.818  31.445  47.603  1.00  0.00     0.222 C 
HETATM   21  O   UNL     1       0.671  31.816  46.442  1.00  0.00    -0.273 OA
HETATM   22  H   UNL     1       1.901  30.327  48.948  1.00  0.00     0.162 HD
BRANCH  20  23
HETATM   23  C   UNL     1       0.031  32.083  48.749  1.00  0.00     0.077 C 
BRANCH  23  24
HETATM   24  C   UNL     1       0.440  31.498  50.112  1.00  0.00     0.009 C 
HETATM   25  C   UNL     1       1.288  32.458  50.937  1.00  0.00     0.006 C 
ENDBRANCH  23  24
BRANCH  23  26
HETATM   26  C   UNL     1      -1.488  31.947  48.539  1.00  0.00     0.009 C 
HETATM   27  C   UNL     1      -2.288  32.313  49.782  1.00  0.00     0.006 C 
ENDBRANCH  23  26
ENDBRANCH  20  23
ENDBRANCH   1  19
BRANCH  13  28
HETATM   28  C   UNL     1       5.634  27.722  54.738  1.00  0.00    -0.019 A 
HETATM   29  C   UNL     1       6.809  27.578  55.452  1.00  0.00     0.061 A 
HETATM   30  S   UNL     1       6.661  28.088  57.080  1.00  0.00    -0.113 SA
HETATM   31  C   UNL     1       5.018  28.498  56.858  1.00  0.00     0.050 A 
HETATM   32  C   UNL     1       4.594  28.254  55.570  1.00  0.00     0.020 A 
ENDBRANCH  13  28
TORSDOF 5
ENDMDL
MODEL 8
REMARK VINA RESULT:      -7.0      3.641      7.761
REMARK  5 active torsions:
REMARK  status: ('A' for Active; 'I' for Inactive)
REMARK    1  A    between atoms: C_2  and  C_3 
REMARK    2  A    between atoms: C_3  and  C_4 
REMARK    3  A    between atoms: C_3  and  C_29 
REMARK       I    between atoms: C_4  and  N_5 
REMARK    4  A    between atoms: N_5  and  C_6 
REMARK    5  A    between atoms: C_18  and  C_19 
ROOT
HETATM    1  C   UNL     1       4.264  33.289  55.028  1.00  0.00     0.088 C 
HETATM    2  C   UNL     1       5.164  32.854  56.170  1.00  0.00     0.060 C 
HETATM    3  C   UNL     1       5.386  31.332  56.283  1.00  0.00     0.181 C 
HETATM    4  N   UNL     1       4.276  30.480  55.831  1.00  0.00    -0.334 N 
HETATM    5  C   UNL     1       4.453  29.105  55.626  1.00  0.00     0.256 C 
HETATM    6  O   UNL     1       3.613  28.429  55.027  1.00  0.00    -0.267 OA
HETATM    7  C   UNL     1       5.686  28.402  56.064  1.00  0.00     0.059 A 
HETATM    8  C   UNL     1       6.383  28.670  57.243  1.00  0.00     0.050 A 
HETATM    9  N   UNL     1       6.157  29.759  58.088  1.00  0.00    -0.324 N 
HETATM   10  C   UNL     1       5.713  31.006  57.758  1.00  0.00     0.245 C 
HETATM   11  O   UNL     1       5.735  31.857  58.653  1.00  0.00    -0.271 OA
HETATM   12  C   UNL     1       6.064  27.292  55.280  1.00  0.00     0.031 A 
HETATM   13  C   UNL     1       7.114  26.448  55.657  1.00  0.00    -0.024 A 
HETATM   14  C   UNL     1       7.767  26.696  56.865  1.00  0.00     0.014 A 
HETATM   15  C   UNL     1       7.396  27.787  57.653  1.00  0.00     0.031 A 
HETATM   16  C   UNL     1       3.183  31.040  55.029  1.00  0.00     0.129 C 
HETATM   17  C   UNL     1       2.951  32.531  55.150  1.00  0.00     0.045 C 
HETATM   18  H   UNL     1       6.536  29.731  59.027  1.00  0.00     0.169 HD
ENDROOT
BRANCH   1  19
HETATM   19  N   UNL     1       4.898  33.127  53.727  1.00  0.00    -0.356 N 
HETATM   20  C   UNL     1       5.035  34.195  52.863  1.00  0.00     0.222 C 
HETATM   21  O   UNL     1       4.705  35.339  53.159  1.00  0.00    -0.273 OA
HETATM   22  H   UNL     1       5.009  32.196  53.350  1.00  0.00     0.162 HD
BRANCH  20  23
HETATM   23  C   UNL     1       5.627  33.865  51.492  1.00  0.00     0.077 C 
BRANCH  23  24
HETATM   24  C   UNL     1       5.590  35.082  50.551  1.00  0.00     0.009 C 
HETATM   25  C   UNL     1       6.914  35.315  49.835  1.00  0.00     0.006 C 
ENDBRANCH  23  24
BRANCH  23  26
HETATM   26  C   UNL     1       4.921  32.661  50.843  1.00  0.00     0.009 C 
HETATM   27  C   UNL     1       5.892  31.712  50.153  1.00  0.00     0.006 C 
ENDBRANCH  23  26
ENDBRANCH  20  23
ENDBRANCH   1  19
BRANCH  13  28
HETATM   28  C   UNL     1       7.491  25.323  54.806  1.00  0.00    -0.019 A 
HETATM   29  C   UNL     1       7.586  25.443  53.432  1.00  0.00     0.061 A 
HETATM   30  S   UNL     1       8.012  23.971  52.667  1.00  0.00    -0.113 SA
HETATM   31  C   UNL     1       8.063  23.148  54.163  1.00  0.00     0.050 A 
HETATM   32  C   UNL     1       7.766  23.978  55.221  1.00  0.00     0.020 A 
ENDBRANCH  13  28
TORSDOF 5
ENDMDL
MODEL 9
REMARK VINA RESULT:      -6.7      6.957     10.716
REMARK  5 active torsions:
REMARK  status: ('A' for Active; 'I' for Inactive)
REMARK    1  A    between atoms: C_2  and  C_3 
REMARK    2  A    between atoms: C_3  and  C_4 
REMARK    3  A    between atoms: C_3  and  C_29 
REMARK       I    between atoms: C_4  and  N_5 
REMARK    4  A    between atoms: N_5  and  C_6 
REMARK    5  A    between atoms: C_18  and  C_19 
ROOT
HETATM    1  C   UNL     1       5.090  36.072  64.235  1.00  0.00     0.088 C 
HETATM    2  C   UNL     1       6.325  35.240  63.943  1.00  0.00     0.060 C 
HETATM    3  C   UNL     1       6.152  34.181  62.836  1.00  0.00     0.181 C 
HETATM    4  N   UNL     1       4.805  33.607  62.692  1.00  0.00    -0.334 N 
HETATM    5  C   UNL     1       4.455  32.852  61.564  1.00  0.00     0.256 C 
HETATM    6  O   UNL     1       3.279  32.572  61.317  1.00  0.00    -0.267 OA
HETATM    7  C   UNL     1       5.470  32.403  60.578  1.00  0.00     0.059 A 
HETATM    8  C   UNL     1       6.759  31.972  60.896  1.00  0.00     0.050 A 
HETATM    9  N   UNL     1       7.363  32.085  62.151  1.00  0.00    -0.324 N 
HETATM   10  C   UNL     1       7.167  33.044  63.101  1.00  0.00     0.245 C 
HETATM   11  O   UNL     1       7.927  33.025  64.073  1.00  0.00    -0.271 OA
HETATM   12  C   UNL     1       5.012  32.275  59.250  1.00  0.00     0.031 A 
HETATM   13  C   UNL     1       5.813  31.722  58.245  1.00  0.00    -0.024 A 
HETATM   14  C   UNL     1       7.079  31.247  58.588  1.00  0.00     0.014 A 
HETATM   15  C   UNL     1       7.540  31.360  59.902  1.00  0.00     0.031 A 
HETATM   16  C   UNL     1       3.651  34.243  63.335  1.00  0.00     0.129 C 
HETATM   17  C   UNL     1       3.942  35.120  64.534  1.00  0.00     0.045 C 
HETATM   18  H   UNL     1       8.189  31.530  62.342  1.00  0.00     0.169 HD
ENDROOT
BRANCH   1  19
HETATM   19  N   UNL     1       4.787  37.013  63.165  1.00  0.00    -0.356 N 
HETATM   20  C   UNL     1       5.257  38.309  63.202  1.00  0.00     0.222 C 
HETATM   21  O   UNL     1       6.004  38.724  64.083  1.00  0.00    -0.273 OA
HETATM   22  H   UNL     1       4.032  36.800  62.527  1.00  0.00     0.162 HD
BRANCH  20  23
HETATM   23  C   UNL     1       4.782  39.219  62.068  1.00  0.00     0.077 C 
BRANCH  23  24
HETATM   24  C   UNL     1       3.323  38.923  61.677  1.00  0.00     0.009 C 
HETATM   25  C   UNL     1       2.670  40.073  60.920  1.00  0.00     0.006 C 
ENDBRANCH  23  24
BRANCH  23  26
HETATM   26  C   UNL     1       5.700  39.117  60.836  1.00  0.00     0.009 C 
HETATM   27  C   UNL     1       7.177  39.078  61.206  1.00  0.00     0.006 C 
ENDBRANCH  23  26
ENDBRANCH  20  23
ENDBRANCH   1  19
BRANCH  13  28
HETATM   28  C   UNL     1       5.312  31.630  56.877  1.00  0.00    -0.019 A 
HETATM   29  C   UNL     1       4.811  32.729  56.204  1.00  0.00     0.061 A 
HETATM   30  S   UNL     1       4.259  32.345  54.629  1.00  0.00    -0.113 SA
HETATM   31  C   UNL     1       4.670  30.699  54.829  1.00  0.00     0.050 A 
HETATM   32  C   UNL     1       5.219  30.450  56.067  1.00  0.00     0.020 A 
ENDBRANCH  13  28
TORSDOF 5
ENDMDL
MODEL 10
REMARK VINA RESULT:      -6.6      6.525     10.457
REMARK  5 active torsions:
REMARK  status: ('A' for Active; 'I' for Inactive)
REMARK    1  A    between atoms: C_2  and  C_3 
REMARK    2  A    between atoms: C_3  and  C_4 
REMARK    3  A    between atoms: C_3  and  C_29 
REMARK       I    between atoms: C_4  and  N_5 
REMARK    4  A    between atoms: N_5  and  C_6 
REMARK    5  A    between atoms: C_18  and  C_19 
ROOT
HETATM    1  C   UNL     1      -2.375  30.701  46.062  1.00  0.00     0.088 C 
HETATM    2  C   UNL     1      -2.063  29.231  45.857  1.00  0.00     0.060 C 
HETATM    3  C   UNL     1      -0.647  28.798  46.288  1.00  0.00     0.181 C 
HETATM    4  N   UNL     1       0.407  29.816  46.168  1.00  0.00    -0.334 N 
HETATM    5  C   UNL     1       1.659  29.641  46.775  1.00  0.00     0.256 C 
HETATM    6  O   UNL     1       2.457  30.575  46.886  1.00  0.00    -0.267 OA
HETATM    7  C   UNL     1       2.063  28.341  47.369  1.00  0.00     0.059 A 
HETATM    8  C   UNL     1       1.758  27.088  46.836  1.00  0.00     0.050 A 
HETATM    9  N   UNL     1       0.864  26.850  45.789  1.00  0.00    -0.324 N 
HETATM   10  C   UNL     1      -0.255  27.555  45.456  1.00  0.00     0.245 C 
HETATM   11  O   UNL     1      -0.977  27.067  44.582  1.00  0.00    -0.271 OA
HETATM   12  C   UNL     1       2.945  28.424  48.468  1.00  0.00     0.031 A 
HETATM   13  C   UNL     1       3.525  27.283  49.033  1.00  0.00    -0.024 A 
HETATM   14  C   UNL     1       3.254  26.042  48.456  1.00  0.00     0.014 A 
HETATM   15  C   UNL     1       2.389  25.949  47.363  1.00  0.00     0.031 A 
HETATM   16  C   UNL     1       0.062  31.228  45.969  1.00  0.00     0.129 C 
HETATM   17  C   UNL     1      -1.296  31.513  45.363  1.00  0.00     0.045 C 
HETATM   18  H   UNL     1       0.898  25.953  45.318  1.00  0.00     0.169 HD
ENDROOT
BRANCH   1  19
HETATM   19  N   UNL     1      -2.528  31.047  47.469  1.00  0.00    -0.356 N 
HETATM   20  C   UNL     1      -3.716  31.554  47.953  1.00  0.00     0.222 C 
HETATM   21  O   UNL     1      -4.722  31.675  47.261  1.00  0.00    -0.273 OA
HETATM   22  H   UNL     1      -1.699  31.157  48.038  1.00  0.00     0.162 HD
BRANCH  20  23
HETATM   23  C   UNL     1      -3.709  31.968  49.426  1.00  0.00     0.077 C 
BRANCH  23  24
HETATM   24  C   UNL     1      -2.281  31.998  49.999  1.00  0.00     0.009 C 
HETATM   25  C   UNL     1      -2.254  31.969  51.522  1.00  0.00     0.006 C 
ENDBRANCH  23  24
BRANCH  23  26
HETATM   26  C   UNL     1      -4.611  31.056  50.277  1.00  0.00     0.009 C 
HETATM   27  C   UNL     1      -5.880  31.756  50.744  1.00  0.00     0.006 C 
ENDBRANCH  23  26
ENDBRANCH  20  23
ENDBRANCH   1  19
BRANCH  13  28
HETATM   28  C   UNL     1       4.413  27.408  50.185  1.00  0.00    -0.019 A 
HETATM   29  C   UNL     1       4.679  28.629  50.777  1.00  0.00     0.061 A 
HETATM   30  S   UNL     1       5.774  28.505  52.087  1.00  0.00    -0.113 SA
HETATM   31  C   UNL     1       5.920  26.816  51.874  1.00  0.00     0.050 A 
HETATM   32  C   UNL     1       5.148  26.359  50.829  1.00  0.00     0.020 A 
ENDBRANCH  13  28
TORSDOF 5
ENDMDL
