MODEL 1
REMARK VINA RESULT:      -9.5      0.000      0.000
REMARK  7 active torsions:
REMARK  status: ('A' for Active; 'I' for Inactive)
REMARK    1  A    between atoms: C_2  and  C_3 
REMARK    2  A    between atoms: C_3  and  O_4 
REMARK    3  A    between atoms: O_4  and  C_5 
REMARK    4  A    between atoms: C_8  and  C_9 
REMARK    5  A    between atoms: C_9  and  C_10 
REMARK       I    between atoms: C_10  and  N_11 
REMARK    6  A    between atoms: N_11  and  C_12 
REMARK    7  A    between atoms: C_19  and  C_20 
REMARK       I    between atoms: C_20  and  N_21 
ROOT
HETATM    1  C   UNL     1       8.878  31.678  60.360  1.00  0.00     0.226 C 
HETATM    2  N   UNL     1       8.780  30.384  59.883  1.00  0.00    -0.327 N 
HETATM    3  O   UNL     1       8.859  32.697  59.673  1.00  0.00    -0.273 OA
HETATM    4  H   UNL     1       8.818  29.642  60.571  1.00  0.00     0.169 HD
ENDROOT
BRANCH   2   5
HETATM    5  C   UNL     1       8.570  29.956  58.555  1.00  0.00     0.035 A 
HETATM    6  C   UNL     1       7.329  29.553  58.045  1.00  0.00     0.046 A 
HETATM    7  C   UNL     1       7.233  29.128  56.702  1.00  0.00     0.030 A 
HETATM    8  C   UNL     1       8.379  29.120  55.916  1.00  0.00     0.063 A 
HETATM    9  C   UNL     1       6.195  28.658  55.841  1.00  0.00     0.156 A 
HETATM   10  N   UNL     1       7.978  28.664  54.692  1.00  0.00    -0.277 N 
HETATM   11  C   UNL     1       9.631  29.518  56.388  1.00  0.00     0.034 A 
HETATM   12  H   UNL     1       8.556  28.526  53.870  1.00  0.00     0.189 HD
HETATM   13  N   UNL     1       6.670  28.376  54.605  1.00  0.00    -0.168 NA
HETATM   14  C   UNL     1       9.699  29.935  57.723  1.00  0.00     0.032 A 
BRANCH   9  15
HETATM   15  C   UNL     1       4.773  28.473  56.164  1.00  0.00     0.270 C 
HETATM   16  N   UNL     1       4.463  27.219  56.619  1.00  0.00    -0.365 N 
HETATM   17  H   UNL     1       5.207  26.534  56.696  1.00  0.00     0.159 HD
HETATM   18  H   UNL     1       3.512  27.000  56.866  1.00  0.00     0.159 HD
HETATM   19  O   UNL     1       3.911  29.337  56.053  1.00  0.00    -0.266 OA
ENDBRANCH   9  15
ENDBRANCH   2   5
BRANCH   1  20
HETATM   20  C   UNL     1       9.080  31.804  61.872  1.00  0.00     0.141 C 
BRANCH  20  21
HETATM   21  C   UNL     1       7.875  32.250  62.669  1.00  0.00    -0.049 A 
HETATM   22  C   UNL     1       8.035  32.970  63.861  1.00  0.00     0.010 A 
HETATM   23  C   UNL     1       6.926  33.303  64.646  1.00  0.00     0.037 A 
HETATM   24  C   UNL     1       5.646  32.916  64.251  1.00  0.00     0.068 A 
HETATM   25  C   UNL     1       5.482  32.225  63.049  1.00  0.00     0.037 A 
HETATM   26  C   UNL     1       6.584  31.893  62.260  1.00  0.00     0.010 A 
BRANCH  24  27
HETATM   27  O   UNL     1       4.489  33.145  64.940  1.00  0.00    -0.351 OA
BRANCH  27  28
HETATM   28  C   UNL     1       3.639  34.187  64.460  1.00  0.00     0.179 C 
BRANCH  28  29
HETATM   29  C   UNL     1       3.700  35.391  65.414  1.00  0.00     0.002 C 
HETATM   30  C   UNL     1       4.754  36.403  64.962  1.00  0.00     0.011 C 
HETATM   31  C   UNL     1       3.980  34.951  66.852  1.00  0.00     0.011 C 
ENDBRANCH  28  29
ENDBRANCH  27  28
ENDBRANCH  24  27
ENDBRANCH  20  21
ENDBRANCH   1  20
TORSDOF 7
ENDMDL
MODEL 2
REMARK VINA RESULT:      -8.6      4.304     10.341
REMARK  7 active torsions:
REMARK  status: ('A' for Active; 'I' for Inactive)
REMARK    1  A    between atoms: C_2  and  C_3 
REMARK    2  A    between atoms: C_3  and  O_4 
REMARK    3  A    between atoms: O_4  and  C_5 
REMARK    4  A    between atoms: C_8  and  C_9 
REMARK    5  A    between atoms: C_9  and  C_10 
REMARK       I    between atoms: C_10  and  N_11 
REMARK    6  A    between atoms: N_11  and  C_12 
REMARK    7  A    between atoms: C_19  and  C_20 
REMARK       I    between atoms: C_20  and  N_21 
ROOT
HETATM    1  C   UNL     1       6.325  28.596  55.338  1.00  0.00     0.226 C 
HETATM    2  N   UNL     1       7.490  28.362  56.046  1.00  0.00    -0.327 N 
HETATM    3  O   UNL     1       5.683  29.644  55.342  1.00  0.00    -0.273 OA
HETATM    4  H   UNL     1       7.903  27.443  55.949  1.00  0.00     0.169 HD
ENDROOT
BRANCH   2   5
HETATM    5  C   UNL     1       8.221  29.264  56.847  1.00  0.00     0.035 A 
HETATM    6  C   UNL     1       7.686  29.958  57.940  1.00  0.00     0.046 A 
HETATM    7  C   UNL     1       8.505  30.850  58.667  1.00  0.00     0.030 A 
HETATM    8  C   UNL     1       9.827  31.018  58.276  1.00  0.00     0.063 A 
HETATM    9  C   UNL     1       8.343  31.711  59.795  1.00  0.00     0.156 A 
HETATM   10  N   UNL     1      10.352  31.929  59.149  1.00  0.00    -0.277 N 
HETATM   11  C   UNL     1      10.396  30.342  57.196  1.00  0.00     0.034 A 
HETATM   12  H   UNL     1      11.299  32.292  59.161  1.00  0.00     0.189 HD
HETATM   13  N   UNL     1       9.491  32.369  60.080  1.00  0.00    -0.168 NA
HETATM   14  C   UNL     1       9.564  29.463  56.492  1.00  0.00     0.032 A 
BRANCH   9  15
HETATM   15  C   UNL     1       7.132  31.920  60.600  1.00  0.00     0.270 C 
HETATM   16  N   UNL     1       7.072  31.147  61.728  1.00  0.00    -0.365 N 
HETATM   17  H   UNL     1       7.837  30.509  61.919  1.00  0.00     0.159 HD
HETATM   18  H   UNL     1       6.278  31.222  62.342  1.00  0.00     0.159 HD
HETATM   19  O   UNL     1       6.234  32.707  60.323  1.00  0.00    -0.266 OA
ENDBRANCH   9  15
ENDBRANCH   2   5
BRANCH   1  20
HETATM   20  C   UNL     1       5.795  27.404  54.538  1.00  0.00     0.141 C 
BRANCH  20  21
HETATM   21  C   UNL     1       6.429  26.065  54.841  1.00  0.00    -0.049 A 
HETATM   22  C   UNL     1       6.181  25.419  56.060  1.00  0.00     0.010 A 
HETATM   23  C   UNL     1       6.837  24.226  56.380  1.00  0.00     0.037 A 
HETATM   24  C   UNL     1       7.753  23.668  55.488  1.00  0.00     0.068 A 
HETATM   25  C   UNL     1       7.978  24.295  54.261  1.00  0.00     0.037 A 
HETATM   26  C   UNL     1       7.324  25.483  53.935  1.00  0.00     0.010 A 
BRANCH  24  27
HETATM   27  O   UNL     1       8.484  22.533  55.692  1.00  0.00    -0.351 OA
BRANCH  27  28
HETATM   28  C   UNL     1       9.281  22.065  54.603  1.00  0.00     0.179 C 
BRANCH  28  29
HETATM   29  C   UNL     1       8.921  20.605  54.283  1.00  0.00     0.002 C 
HETATM   30  C   UNL     1       8.027  20.515  53.045  1.00  0.00     0.011 C 
HETATM   31  C   UNL     1       8.241  19.924  55.470  1.00  0.00     0.011 C 
ENDBRANCH  28  29
ENDBRANCH  27  28
ENDBRANCH  24  27
ENDBRANCH  20  21
ENDBRANCH   1  20
TORSDOF 7
ENDMDL
MODEL 3
REMARK VINA RESULT:      -8.5      3.204      9.136
REMARK  7 active torsions:
REMARK  status: ('A' for Active; 'I' for Inactive)
REMARK    1  A    between atoms: C_2  and  C_3 
REMARK    2  A    between atoms: C_3  and  O_4 
REMARK    3  A    between atoms: O_4  and  C_5 
REMARK    4  A    between atoms: C_8  and  C_9 
REMARK    5  A    between atoms: C_9  and  C_10 
REMARK       I    between atoms: C_10  and  N_11 
REMARK    6  A    between atoms: N_11  and  C_12 
REMARK    7  A    between atoms: C_19  and  C_20 
REMARK       I    between atoms: C_20  and  N_21 
ROOT
HETATM    1  C   UNL     1       8.381  31.346  59.748  1.00  0.00     0.226 C 
HETATM    2  N   UNL     1       7.782  30.950  60.930  1.00  0.00    -0.327 N 
HETATM    3  O   UNL     1       8.484  32.506  59.353  1.00  0.00    -0.273 OA
HETATM    4  H   UNL     1       7.766  29.955  61.120  1.00  0.00     0.169 HD
ENDROOT
BRANCH   2   5
HETATM    5  C   UNL     1       7.239  31.760  61.950  1.00  0.00     0.035 A 
HETATM    6  C   UNL     1       5.918  32.225  61.965  1.00  0.00     0.046 A 
HETATM    7  C   UNL     1       5.480  33.044  63.030  1.00  0.00     0.030 A 
HETATM    8  C   UNL     1       6.377  33.369  64.039  1.00  0.00     0.063 A 
HETATM    9  C   UNL     1       4.263  33.695  63.396  1.00  0.00     0.156 A 
HETATM   10  N   UNL     1       5.679  34.161  64.906  1.00  0.00    -0.277 N 
HETATM   11  C   UNL     1       7.699  32.922  64.059  1.00  0.00     0.034 A 
HETATM   12  H   UNL     1       6.021  34.586  65.761  1.00  0.00     0.189 HD
HETATM   13  N   UNL     1       4.402  34.380  64.555  1.00  0.00    -0.168 NA
HETATM   14  C   UNL     1       8.108  32.111  62.994  1.00  0.00     0.032 A 
BRANCH   9  15
HETATM   15  C   UNL     1       2.983  33.680  62.675  1.00  0.00     0.270 C 
HETATM   16  N   UNL     1       1.884  33.750  63.487  1.00  0.00    -0.365 N 
HETATM   17  H   UNL     1       2.025  33.804  64.490  1.00  0.00     0.159 HD
HETATM   18  H   UNL     1       0.963  33.746  63.081  1.00  0.00     0.159 HD
HETATM   19  O   UNL     1       2.867  33.614  61.456  1.00  0.00    -0.266 OA
ENDBRANCH   9  15
ENDBRANCH   2   5
BRANCH   1  20
HETATM   20  C   UNL     1       8.896  30.210  58.863  1.00  0.00     0.141 C 
BRANCH  20  21
HETATM   21  C   UNL     1       7.842  29.381  58.165  1.00  0.00    -0.049 A 
HETATM   22  C   UNL     1       8.065  28.023  57.897  1.00  0.00     0.010 A 
HETATM   23  C   UNL     1       7.130  27.278  57.171  1.00  0.00     0.037 A 
HETATM   24  C   UNL     1       5.964  27.882  56.700  1.00  0.00     0.068 A 
HETATM   25  C   UNL     1       5.727  29.227  56.993  1.00  0.00     0.037 A 
HETATM   26  C   UNL     1       6.655  29.974  57.719  1.00  0.00     0.010 A 
BRANCH  24  27
HETATM   27  O   UNL     1       4.992  27.280  55.953  1.00  0.00    -0.351 OA
BRANCH  27  28
HETATM   28  C   UNL     1       5.322  26.934  54.608  1.00  0.00     0.179 C 
BRANCH  28  29
HETATM   29  C   UNL     1       5.308  25.405  54.445  1.00  0.00     0.002 C 
HETATM   30  C   UNL     1       6.700  24.811  54.672  1.00  0.00     0.011 C 
HETATM   31  C   UNL     1       4.782  24.995  53.069  1.00  0.00     0.011 C 
ENDBRANCH  28  29
ENDBRANCH  27  28
ENDBRANCH  24  27
ENDBRANCH  20  21
ENDBRANCH   1  20
TORSDOF 7
ENDMDL
MODEL 4
REMARK VINA RESULT:      -8.5      4.048     10.375
REMARK  7 active torsions:
REMARK  status: ('A' for Active; 'I' for Inactive)
REMARK    1  A    between atoms: C_2  and  C_3 
REMARK    2  A    between atoms: C_3  and  O_4 
REMARK    3  A    between atoms: O_4  and  C_5 
REMARK    4  A    between atoms: C_8  and  C_9 
REMARK    5  A    between atoms: C_9  and  C_10 
REMARK       I    between atoms: C_10  and  N_11 
REMARK    6  A    between atoms: N_11  and  C_12 
REMARK    7  A    between atoms: C_19  and  C_20 
REMARK       I    between atoms: C_20  and  N_21 
ROOT
HETATM    1  C   UNL     1       7.788  25.896  57.216  1.00  0.00     0.226 C 
HETATM    2  N   UNL     1       7.853  27.143  56.623  1.00  0.00    -0.327 N 
HETATM    3  O   UNL     1       8.330  25.579  58.274  1.00  0.00    -0.273 OA
HETATM    4  H   UNL     1       7.360  27.255  55.745  1.00  0.00     0.169 HD
ENDROOT
BRANCH   2   5
HETATM    5  C   UNL     1       8.470  28.314  57.112  1.00  0.00     0.035 A 
HETATM    6  C   UNL     1       7.879  29.189  58.033  1.00  0.00     0.046 A 
HETATM    7  C   UNL     1       8.581  30.343  58.446  1.00  0.00     0.030 A 
HETATM    8  C   UNL     1       9.847  30.581  57.926  1.00  0.00     0.063 A 
HETATM    9  C   UNL     1       8.335  31.438  59.329  1.00  0.00     0.156 A 
HETATM   10  N   UNL     1      10.262  31.750  58.499  1.00  0.00    -0.277 N 
HETATM   11  C   UNL     1      10.469  29.730  57.011  1.00  0.00     0.034 A 
HETATM   12  H   UNL     1      11.143  32.229  58.346  1.00  0.00     0.189 HD
HETATM   13  N   UNL     1       9.381  32.297  59.350  1.00  0.00    -0.168 NA
HETATM   14  C   UNL     1       9.753  28.593  56.618  1.00  0.00     0.032 A 
BRANCH   9  15
HETATM   15  C   UNL     1       7.138  31.683  60.145  1.00  0.00     0.270 C 
HETATM   16  N   UNL     1       7.202  31.149  61.404  1.00  0.00    -0.365 N 
HETATM   17  H   UNL     1       8.037  30.641  61.672  1.00  0.00     0.159 HD
HETATM   18  H   UNL     1       6.427  31.267  62.035  1.00  0.00     0.159 HD
HETATM   19  O   UNL     1       6.151  32.306  59.771  1.00  0.00    -0.266 OA
ENDBRANCH   9  15
ENDBRANCH   2   5
BRANCH   1  20
HETATM   20  C   UNL     1       7.013  24.837  56.431  1.00  0.00     0.141 C 
BRANCH  20  21
HETATM   21  C   UNL     1       6.688  25.179  54.994  1.00  0.00    -0.049 A 
HETATM   22  C   UNL     1       5.401  25.601  54.635  1.00  0.00     0.010 A 
HETATM   23  C   UNL     1       5.075  25.830  53.294  1.00  0.00     0.037 A 
HETATM   24  C   UNL     1       6.030  25.635  52.297  1.00  0.00     0.068 A 
HETATM   25  C   UNL     1       7.321  25.244  52.657  1.00  0.00     0.037 A 
HETATM   26  C   UNL     1       7.653  25.017  53.993  1.00  0.00     0.010 A 
BRANCH  24  27
HETATM   27  O   UNL     1       5.833  25.787  50.954  1.00  0.00    -0.351 OA
BRANCH  27  28
HETATM   28  C   UNL     1       5.367  27.059  50.503  1.00  0.00     0.179 C 
BRANCH  28  29
HETATM   29  C   UNL     1       4.237  26.867  49.478  1.00  0.00     0.002 C 
HETATM   30  C   UNL     1       4.797  26.606  48.079  1.00  0.00     0.011 C 
HETATM   31  C   UNL     1       3.298  28.073  49.449  1.00  0.00     0.011 C 
ENDBRANCH  28  29
ENDBRANCH  27  28
ENDBRANCH  24  27
ENDBRANCH  20  21
ENDBRANCH   1  20
TORSDOF 7
ENDMDL
MODEL 5
REMARK VINA RESULT:      -8.4      4.381      7.273
REMARK  7 active torsions:
REMARK  status: ('A' for Active; 'I' for Inactive)
REMARK    1  A    between atoms: C_2  and  C_3 
REMARK    2  A    between atoms: C_3  and  O_4 
REMARK    3  A    between atoms: O_4  and  C_5 
REMARK    4  A    between atoms: C_8  and  C_9 
REMARK    5  A    between atoms: C_9  and  C_10 
REMARK       I    between atoms: C_10  and  N_11 
REMARK    6  A    between atoms: N_11  and  C_12 
REMARK    7  A    between atoms: C_19  and  C_20 
REMARK       I    between atoms: C_20  and  N_21 
ROOT
HETATM    1  C   UNL     1       6.033  27.700  54.690  1.00  0.00     0.226 C 
HETATM    2  N   UNL     1       7.221  27.101  54.313  1.00  0.00    -0.327 N 
HETATM    3  O   UNL     1       4.928  27.163  54.685  1.00  0.00    -0.273 OA
HETATM    4  H   UNL     1       8.055  27.673  54.363  1.00  0.00     0.169 HD
ENDROOT
BRANCH   2   5
HETATM    5  C   UNL     1       7.439  25.763  53.921  1.00  0.00     0.035 A 
HETATM    6  C   UNL     1       7.633  24.703  54.816  1.00  0.00     0.046 A 
HETATM    7  C   UNL     1       7.858  23.401  54.316  1.00  0.00     0.030 A 
HETATM    8  C   UNL     1       7.882  23.205  52.940  1.00  0.00     0.063 A 
HETATM    9  C   UNL     1       8.092  22.108  54.874  1.00  0.00     0.156 A 
HETATM   10  N   UNL     1       8.121  21.871  52.767  1.00  0.00    -0.277 N 
HETATM   11  C   UNL     1       7.689  24.236  52.019  1.00  0.00     0.034 A 
HETATM   12  H   UNL     1       8.206  21.373  51.888  1.00  0.00     0.189 HD
HETATM   13  N   UNL     1       8.252  21.175  53.907  1.00  0.00    -0.168 NA
HETATM   14  C   UNL     1       7.467  25.516  52.540  1.00  0.00     0.032 A 
BRANCH   9  15
HETATM   15  C   UNL     1       8.166  21.743  56.296  1.00  0.00     0.270 C 
HETATM   16  N   UNL     1       7.935  20.417  56.545  1.00  0.00    -0.365 N 
HETATM   17  H   UNL     1       7.737  19.805  55.761  1.00  0.00     0.159 HD
HETATM   18  H   UNL     1       7.966  20.075  57.491  1.00  0.00     0.159 HD
HETATM   19  O   UNL     1       8.411  22.525  57.208  1.00  0.00    -0.266 OA
ENDBRANCH   9  15
ENDBRANCH   2   5
BRANCH   1  20
HETATM   20  C   UNL     1       6.142  29.174  55.088  1.00  0.00     0.141 C 
BRANCH  20  21
HETATM   21  C   UNL     1       7.032  29.479  56.271  1.00  0.00    -0.049 A 
HETATM   22  C   UNL     1       6.490  29.992  57.457  1.00  0.00     0.010 A 
HETATM   23  C   UNL     1       7.322  30.361  58.519  1.00  0.00     0.037 A 
HETATM   24  C   UNL     1       8.706  30.226  58.406  1.00  0.00     0.068 A 
HETATM   25  C   UNL     1       9.245  29.688  57.236  1.00  0.00     0.037 A 
HETATM   26  C   UNL     1       8.419  29.315  56.174  1.00  0.00     0.010 A 
BRANCH  24  27
HETATM   27  O   UNL     1       9.628  30.580  59.349  1.00  0.00    -0.351 OA
BRANCH  27  28
HETATM   28  C   UNL     1       9.540  31.900  59.887  1.00  0.00     0.179 C 
BRANCH  28  29
HETATM   29  C   UNL     1       9.294  31.830  61.403  1.00  0.00     0.002 C 
HETATM   30  C   UNL     1       9.432  30.396  61.920  1.00  0.00     0.011 C 
HETATM   31  C   UNL     1       7.921  32.390  61.773  1.00  0.00     0.011 C 
ENDBRANCH  28  29
ENDBRANCH  27  28
ENDBRANCH  24  27
ENDBRANCH  20  21
ENDBRANCH   1  20
TORSDOF 7
ENDMDL
MODEL 6
REMARK VINA RESULT:      -8.3      2.471      3.697
REMARK  7 active torsions:
REMARK  status: ('A' for Active; 'I' for Inactive)
REMARK    1  A    between atoms: C_2  and  C_3 
REMARK    2  A    between atoms: C_3  and  O_4 
REMARK    3  A    between atoms: O_4  and  C_5 
REMARK    4  A    between atoms: C_8  and  C_9 
REMARK    5  A    between atoms: C_9  and  C_10 
REMARK       I    between atoms: C_10  and  N_11 
REMARK    6  A    between atoms: N_11  and  C_12 
REMARK    7  A    between atoms: C_19  and  C_20 
REMARK       I    between atoms: C_20  and  N_21 
ROOT
HETATM    1  C   UNL     1       6.210  32.133  61.597  1.00  0.00     0.226 C 
HETATM    2  N   UNL     1       7.132  31.137  61.331  1.00  0.00    -0.327 N 
HETATM    3  O   UNL     1       6.095  33.186  60.974  1.00  0.00    -0.273 OA
HETATM    4  H   UNL     1       7.112  30.326  61.937  1.00  0.00     0.169 HD
ENDROOT
BRANCH   2   5
HETATM    5  C   UNL     1       8.067  31.070  60.276  1.00  0.00     0.035 A 
HETATM    6  C   UNL     1       7.940  30.227  59.165  1.00  0.00     0.046 A 
HETATM    7  C   UNL     1       8.944  30.230  58.171  1.00  0.00     0.030 A 
HETATM    8  C   UNL     1      10.038  31.073  58.324  1.00  0.00     0.063 A 
HETATM    9  C   UNL     1       9.178  29.546  56.939  1.00  0.00     0.156 A 
HETATM   10  N   UNL     1      10.824  30.851  57.229  1.00  0.00    -0.277 N 
HETATM   11  C   UNL     1      10.196  31.929  59.415  1.00  0.00     0.034 A 
HETATM   12  H   UNL     1      11.710  31.294  57.010  1.00  0.00     0.189 HD
HETATM   13  N   UNL     1      10.341  29.940  56.370  1.00  0.00    -0.168 NA
HETATM   14  C   UNL     1       9.187  31.908  60.385  1.00  0.00     0.032 A 
BRANCH   9  15
HETATM   15  C   UNL     1       8.326  28.535  56.297  1.00  0.00     0.270 C 
HETATM   16  N   UNL     1       7.944  28.855  55.023  1.00  0.00    -0.365 N 
HETATM   17  H   UNL     1       8.263  29.732  54.628  1.00  0.00     0.159 HD
HETATM   18  H   UNL     1       7.359  28.221  54.503  1.00  0.00     0.159 HD
HETATM   19  O   UNL     1       7.968  27.486  56.821  1.00  0.00    -0.266 OA
ENDBRANCH   9  15
ENDBRANCH   2   5
BRANCH   1  20
HETATM   20  C   UNL     1       5.314  31.887  62.813  1.00  0.00     0.141 C 
BRANCH  20  21
HETATM   21  C   UNL     1       5.544  32.791  64.003  1.00  0.00    -0.049 A 
HETATM   22  C   UNL     1       6.844  33.058  64.454  1.00  0.00     0.010 A 
HETATM   23  C   UNL     1       7.054  33.819  65.609  1.00  0.00     0.037 A 
HETATM   24  C   UNL     1       5.968  34.317  66.328  1.00  0.00     0.068 A 
HETATM   25  C   UNL     1       4.674  34.077  65.863  1.00  0.00     0.037 A 
HETATM   26  C   UNL     1       4.458  33.321  64.710  1.00  0.00     0.010 A 
BRANCH  24  27
HETATM   27  O   UNL     1       6.033  35.040  67.485  1.00  0.00    -0.351 OA
BRANCH  27  28
HETATM   28  C   UNL     1       5.952  34.316  68.713  1.00  0.00     0.179 C 
BRANCH  28  29
HETATM   29  C   UNL     1       7.315  34.340  69.424  1.00  0.00     0.002 C 
HETATM   30  C   UNL     1       7.283  33.511  70.709  1.00  0.00     0.011 C 
HETATM   31  C   UNL     1       7.758  35.770  69.735  1.00  0.00     0.011 C 
ENDBRANCH  28  29
ENDBRANCH  27  28
ENDBRANCH  24  27
ENDBRANCH  20  21
ENDBRANCH   1  20
TORSDOF 7
ENDMDL
MODEL 7
REMARK VINA RESULT:      -8.3      3.037      9.254
REMARK  7 active torsions:
REMARK  status: ('A' for Active; 'I' for Inactive)
REMARK    1  A    between atoms: C_2  and  C_3 
REMARK    2  A    between atoms: C_3  and  O_4 
REMARK    3  A    between atoms: O_4  and  C_5 
REMARK    4  A    between atoms: C_8  and  C_9 
REMARK    5  A    between atoms: C_9  and  C_10 
REMARK       I    between atoms: C_10  and  N_11 
REMARK    6  A    between atoms: N_11  and  C_12 
REMARK    7  A    between atoms: C_19  and  C_20 
REMARK       I    between atoms: C_20  and  N_21 
ROOT
HETATM    1  C   UNL     1       9.327  31.248  59.148  1.00  0.00     0.226 C 
HETATM    2  N   UNL     1       8.637  30.703  60.215  1.00  0.00    -0.327 N 
HETATM    3  O   UNL     1       9.429  32.448  58.901  1.00  0.00    -0.273 OA
HETATM    4  H   UNL     1       8.635  29.693  60.286  1.00  0.00     0.169 HD
ENDROOT
BRANCH   2   5
HETATM    5  C   UNL     1       7.977  31.376  61.266  1.00  0.00     0.035 A 
HETATM    6  C   UNL     1       6.600  31.630  61.295  1.00  0.00     0.046 A 
HETATM    7  C   UNL     1       6.044  32.326  62.391  1.00  0.00     0.030 A 
HETATM    8  C   UNL     1       6.882  32.744  63.417  1.00  0.00     0.063 A 
HETATM    9  C   UNL     1       4.742  32.766  62.780  1.00  0.00     0.156 A 
HETATM   10  N   UNL     1       6.072  33.381  64.313  1.00  0.00    -0.277 N 
HETATM   11  C   UNL     1       8.258  32.506  63.423  1.00  0.00     0.034 A 
HETATM   12  H   UNL     1       6.347  33.818  65.186  1.00  0.00     0.189 HD
HETATM   13  N   UNL     1       4.775  33.415  63.967  1.00  0.00    -0.168 NA
HETATM   14  C   UNL     1       8.784  31.814  62.326  1.00  0.00     0.032 A 
BRANCH   9  15
HETATM   15  C   UNL     1       3.477  32.583  62.053  1.00  0.00     0.270 C 
HETATM   16  N   UNL     1       3.131  31.274  61.856  1.00  0.00    -0.365 N 
HETATM   17  H   UNL     1       3.747  30.552  62.211  1.00  0.00     0.159 HD
HETATM   18  H   UNL     1       2.279  31.052  61.367  1.00  0.00     0.159 HD
HETATM   19  O   UNL     1       2.767  33.495  61.644  1.00  0.00    -0.266 OA
ENDBRANCH   9  15
ENDBRANCH   2   5
BRANCH   1  20
HETATM   20  C   UNL     1       9.957  30.235  58.190  1.00  0.00     0.141 C 
BRANCH  20  21
HETATM   21  C   UNL     1       8.994  29.431  57.346  1.00  0.00    -0.049 A 
HETATM   22  C   UNL     1       8.009  28.636  57.949  1.00  0.00     0.010 A 
HETATM   23  C   UNL     1       7.178  27.822  57.172  1.00  0.00     0.037 A 
HETATM   24  C   UNL     1       7.325  27.788  55.786  1.00  0.00     0.068 A 
HETATM   25  C   UNL     1       8.286  28.602  55.182  1.00  0.00     0.037 A 
HETATM   26  C   UNL     1       9.116  29.419  55.951  1.00  0.00     0.010 A 
BRANCH  24  27
HETATM   27  O   UNL     1       6.607  27.015  54.920  1.00  0.00    -0.351 OA
BRANCH  27  28
HETATM   28  C   UNL     1       7.232  25.827  54.432  1.00  0.00     0.179 C 
BRANCH  28  29
HETATM   29  C   UNL     1       6.829  25.590  52.968  1.00  0.00     0.002 C 
HETATM   30  C   UNL     1       5.593  24.693  52.872  1.00  0.00     0.011 C 
HETATM   31  C   UNL     1       7.979  24.983  52.163  1.00  0.00     0.011 C 
ENDBRANCH  28  29
ENDBRANCH  27  28
ENDBRANCH  24  27
ENDBRANCH  20  21
ENDBRANCH   1  20
TORSDOF 7
ENDMDL
MODEL 8
REMARK VINA RESULT:      -8.2      3.657     10.038
REMARK  7 active torsions:
REMARK  status: ('A' for Active; 'I' for Inactive)
REMARK    1  A    between atoms: C_2  and  C_3 
REMARK    2  A    between atoms: C_3  and  O_4 
REMARK    3  A    between atoms: O_4  and  C_5 
REMARK    4  A    between atoms: C_8  and  C_9 
REMARK    5  A    between atoms: C_9  and  C_10 
REMARK       I    between atoms: C_10  and  N_11 
REMARK    6  A    between atoms: N_11  and  C_12 
REMARK    7  A    between atoms: C_19  and  C_20 
REMARK       I    between atoms: C_20  and  N_21 
ROOT
HETATM    1  C   UNL     1       7.494  30.039  58.181  1.00  0.00     0.226 C 
HETATM    2  N   UNL     1       7.135  31.227  58.789  1.00  0.00    -0.327 N 
HETATM    3  O   UNL     1       8.163  29.145  58.697  1.00  0.00    -0.273 OA
HETATM    4  H   UNL     1       6.586  31.873  58.234  1.00  0.00     0.169 HD
ENDROOT
BRANCH   2   5
HETATM    5  C   UNL     1       7.380  31.641  60.115  1.00  0.00     0.035 A 
HETATM    6  C   UNL     1       6.380  32.025  61.018  1.00  0.00     0.046 A 
HETATM    7  C   UNL     1       6.739  32.436  62.320  1.00  0.00     0.030 A 
HETATM    8  C   UNL     1       8.082  32.449  62.675  1.00  0.00     0.063 A 
HETATM    9  C   UNL     1       6.047  32.887  63.486  1.00  0.00     0.156 A 
HETATM   10  N   UNL     1       8.113  32.888  63.969  1.00  0.00    -0.277 N 
HETATM   11  C   UNL     1       9.105  32.069  61.805  1.00  0.00     0.034 A 
HETATM   12  H   UNL     1       8.932  33.024  64.550  1.00  0.00     0.189 HD
HETATM   13  N   UNL     1       6.908  33.162  64.493  1.00  0.00    -0.168 NA
HETATM   14  C   UNL     1       8.724  31.665  60.520  1.00  0.00     0.032 A 
BRANCH   9  15
HETATM   15  C   UNL     1       4.599  33.060  63.661  1.00  0.00     0.270 C 
HETATM   16  N   UNL     1       4.241  33.578  64.876  1.00  0.00    -0.365 N 
HETATM   17  H   UNL     1       4.973  33.797  65.544  1.00  0.00     0.159 HD
HETATM   18  H   UNL     1       3.269  33.733  65.086  1.00  0.00     0.159 HD
HETATM   19  O   UNL     1       3.753  32.780  62.819  1.00  0.00    -0.266 OA
ENDBRANCH   9  15
ENDBRANCH   2   5
BRANCH   1  20
HETATM   20  C   UNL     1       7.048  29.887  56.725  1.00  0.00     0.141 C 
BRANCH  20  21
HETATM   21  C   UNL     1       6.944  28.471  56.206  1.00  0.00    -0.049 A 
HETATM   22  C   UNL     1       7.636  28.083  55.050  1.00  0.00     0.010 A 
HETATM   23  C   UNL     1       7.468  26.801  54.517  1.00  0.00     0.037 A 
HETATM   24  C   UNL     1       6.605  25.893  55.130  1.00  0.00     0.068 A 
HETATM   25  C   UNL     1       5.938  26.269  56.298  1.00  0.00     0.037 A 
HETATM   26  C   UNL     1       6.104  27.545  56.836  1.00  0.00     0.010 A 
BRANCH  24  27
HETATM   27  O   UNL     1       6.325  24.630  54.695  1.00  0.00    -0.351 OA
BRANCH  27  28
HETATM   28  C   UNL     1       7.126  23.568  55.215  1.00  0.00     0.179 C 
BRANCH  28  29
HETATM   29  C   UNL     1       7.992  22.970  54.094  1.00  0.00     0.002 C 
HETATM   30  C   UNL     1       7.603  23.542  52.729  1.00  0.00     0.011 C 
HETATM   31  C   UNL     1       7.898  21.445  54.068  1.00  0.00     0.011 C 
ENDBRANCH  28  29
ENDBRANCH  27  28
ENDBRANCH  24  27
ENDBRANCH  20  21
ENDBRANCH   1  20
TORSDOF 7
ENDMDL
MODEL 9
REMARK VINA RESULT:      -8.1      2.585      3.863
REMARK  7 active torsions:
REMARK  status: ('A' for Active; 'I' for Inactive)
REMARK    1  A    between atoms: C_2  and  C_3 
REMARK    2  A    between atoms: C_3  and  O_4 
REMARK    3  A    between atoms: O_4  and  C_5 
REMARK    4  A    between atoms: C_8  and  C_9 
REMARK    5  A    between atoms: C_9  and  C_10 
REMARK       I    between atoms: C_10  and  N_11 
REMARK    6  A    between atoms: N_11  and  C_12 
REMARK    7  A    between atoms: C_19  and  C_20 
REMARK       I    between atoms: C_20  and  N_21 
ROOT
HETATM    1  C   UNL     1       9.593  29.606  56.891  1.00  0.00     0.226 C 
HETATM    2  N   UNL     1       8.850  28.561  57.409  1.00  0.00    -0.327 N 
HETATM    3  O   UNL     1       9.849  29.781  55.701  1.00  0.00    -0.273 OA
HETATM    4  H   UNL     1       8.728  28.545  58.414  1.00  0.00     0.169 HD
ENDROOT
BRANCH   2   5
HETATM    5  C   UNL     1       8.178  27.536  56.710  1.00  0.00     0.035 A 
HETATM    6  C   UNL     1       7.222  27.761  55.710  1.00  0.00     0.046 A 
HETATM    7  C   UNL     1       6.598  26.660  55.084  1.00  0.00     0.030 A 
HETATM    8  C   UNL     1       6.950  25.375  55.477  1.00  0.00     0.063 A 
HETATM    9  C   UNL     1       5.614  26.474  54.065  1.00  0.00     0.156 A 
HETATM   10  N   UNL     1       6.190  24.538  54.710  1.00  0.00    -0.277 N 
HETATM   11  C   UNL     1       7.900  25.112  56.466  1.00  0.00     0.034 A 
HETATM   12  H   UNL     1       6.183  23.524  54.731  1.00  0.00     0.189 HD
HETATM   13  N   UNL     1       5.373  25.161  53.847  1.00  0.00    -0.168 NA
HETATM   14  C   UNL     1       8.504  26.220  57.072  1.00  0.00     0.032 A 
BRANCH   9  15
HETATM   15  C   UNL     1       4.905  27.511  53.302  1.00  0.00     0.270 C 
HETATM   16  N   UNL     1       3.582  27.235  53.082  1.00  0.00    -0.365 N 
HETATM   17  H   UNL     1       3.201  26.369  53.446  1.00  0.00     0.159 HD
HETATM   18  H   UNL     1       3.015  27.888  52.568  1.00  0.00     0.159 HD
HETATM   19  O   UNL     1       5.414  28.544  52.883  1.00  0.00    -0.266 OA
ENDBRANCH   9  15
ENDBRANCH   2   5
BRANCH   1  20
HETATM   20  C   UNL     1      10.172  30.573  57.926  1.00  0.00     0.141 C 
BRANCH  20  21
HETATM   21  C   UNL     1       9.171  31.269  58.819  1.00  0.00    -0.049 A 
HETATM   22  C   UNL     1       9.586  31.894  60.003  1.00  0.00     0.010 A 
HETATM   23  C   UNL     1       8.650  32.459  60.875  1.00  0.00     0.037 A 
HETATM   24  C   UNL     1       7.289  32.401  60.578  1.00  0.00     0.068 A 
HETATM   25  C   UNL     1       6.877  31.805  59.384  1.00  0.00     0.037 A 
HETATM   26  C   UNL     1       7.806  31.243  58.508  1.00  0.00     0.010 A 
BRANCH  24  27
HETATM   27  O   UNL     1       6.274  32.879  61.356  1.00  0.00    -0.351 OA
BRANCH  27  28
HETATM   28  C   UNL     1       6.043  32.223  62.603  1.00  0.00     0.179 C 
BRANCH  28  29
HETATM   29  C   UNL     1       6.238  33.217  63.760  1.00  0.00     0.002 C 
HETATM   30  C   UNL     1       5.972  34.654  63.305  1.00  0.00     0.011 C 
HETATM   31  C   UNL     1       7.641  33.109  64.359  1.00  0.00     0.011 C 
ENDBRANCH  28  29
ENDBRANCH  27  28
ENDBRANCH  24  27
ENDBRANCH  20  21
ENDBRANCH   1  20
TORSDOF 7
ENDMDL
MODEL 10
REMARK VINA RESULT:      -7.9      3.637      9.811
REMARK  7 active torsions:
REMARK  status: ('A' for Active; 'I' for Inactive)
REMARK    1  A    between atoms: C_2  and  C_3 
REMARK    2  A    between atoms: C_3  and  O_4 
REMARK    3  A    between atoms: O_4  and  C_5 
REMARK    4  A    between atoms: C_8  and  C_9 
REMARK    5  A    between atoms: C_9  and  C_10 
REMARK       I    between atoms: C_10  and  N_11 
REMARK    6  A    between atoms: N_11  and  C_12 
REMARK    7  A    between atoms: C_19  and  C_20 
REMARK       I    between atoms: C_20  and  N_21 
ROOT
HETATM    1  C   UNL     1       7.018  31.668  59.058  1.00  0.00     0.226 C 
HETATM    2  N   UNL     1       6.138  31.724  60.123  1.00  0.00    -0.327 N 
HETATM    3  O   UNL     1       8.170  32.095  59.059  1.00  0.00    -0.273 OA
HETATM    4  H   UNL     1       5.215  31.337  59.971  1.00  0.00     0.169 HD
ENDROOT
BRANCH   2   5
HETATM    5  C   UNL     1       6.377  32.199  61.430  1.00  0.00     0.035 A 
HETATM    6  C   UNL     1       5.510  33.050  62.129  1.00  0.00     0.046 A 
HETATM    7  C   UNL     1       5.854  33.478  63.430  1.00  0.00     0.030 A 
HETATM    8  C   UNL     1       7.050  33.043  63.986  1.00  0.00     0.063 A 
HETATM    9  C   UNL     1       5.266  34.312  64.430  1.00  0.00     0.156 A 
HETATM   10  N   UNL     1       7.106  33.618  65.225  1.00  0.00    -0.277 N 
HETATM   11  C   UNL     1       7.936  32.194  63.322  1.00  0.00     0.034 A 
HETATM   12  H   UNL     1       7.845  33.521  65.912  1.00  0.00     0.189 HD
HETATM   13  N   UNL     1       6.050  34.388  65.530  1.00  0.00    -0.168 NA
HETATM   14  C   UNL     1       7.573  31.783  62.034  1.00  0.00     0.032 A 
BRANCH   9  15
HETATM   15  C   UNL     1       3.986  35.031  64.362  1.00  0.00     0.270 C 
HETATM   16  N   UNL     1       2.887  34.225  64.479  1.00  0.00    -0.365 N 
HETATM   17  H   UNL     1       3.027  33.228  64.599  1.00  0.00     0.159 HD
HETATM   18  H   UNL     1       1.966  34.630  64.445  1.00  0.00     0.159 HD
HETATM   19  O   UNL     1       3.871  36.243  64.216  1.00  0.00    -0.266 OA
ENDBRANCH   9  15
ENDBRANCH   2   5
BRANCH   1  20
HETATM   20  C   UNL     1       6.449  31.065  57.771  1.00  0.00     0.141 C 
BRANCH  20  21
HETATM   21  C   UNL     1       6.773  29.610  57.519  1.00  0.00    -0.049 A 
HETATM   22  C   UNL     1       8.104  29.183  57.420  1.00  0.00     0.010 A 
HETATM   23  C   UNL     1       8.403  27.855  57.096  1.00  0.00     0.037 A 
HETATM   24  C   UNL     1       7.376  26.942  56.863  1.00  0.00     0.068 A 
HETATM   25  C   UNL     1       6.050  27.359  56.991  1.00  0.00     0.037 A 
HETATM   26  C   UNL     1       5.745  28.681  57.317  1.00  0.00     0.010 A 
BRANCH  24  27
HETATM   27  O   UNL     1       7.530  25.632  56.506  1.00  0.00    -0.351 OA
BRANCH  27  28
HETATM   28  C   UNL     1       7.449  25.320  55.115  1.00  0.00     0.179 C 
BRANCH  28  29
HETATM   29  C   UNL     1       8.138  23.973  54.842  1.00  0.00     0.002 C 
HETATM   30  C   UNL     1       7.944  23.538  53.388  1.00  0.00     0.011 C 
HETATM   31  C   UNL     1       7.630  22.884  55.786  1.00  0.00     0.011 C 
ENDBRANCH  28  29
ENDBRANCH  27  28
ENDBRANCH  24  27
ENDBRANCH  20  21
ENDBRANCH   1  20
TORSDOF 7
ENDMDL
