MODEL 1
REMARK VINA RESULT:      -8.6      0.000      0.000
REMARK  9 active torsions:
REMARK  status: ('A' for Active; 'I' for Inactive)
REMARK    1  A    between atoms: C_4  and  C_5 
REMARK    2  A    between atoms: C_7  and  C_8 
REMARK    3  A    between atoms: C_8  and  C_9 
REMARK       I    between atoms: C_9  and  N_10 
REMARK    4  A    between atoms: N_10  and  C_11 
REMARK    5  A    between atoms: C_11  and  C_12 
REMARK    6  A    between atoms: C_12  and  N_13 
REMARK    7  A    between atoms: C_27  and  C_28 
REMARK    8  A    between atoms: C_28  and  O_29 
REMARK    9  A    between atoms: O_29  and  C_30 
ROOT
HETATM    1  C   UNL     1       5.298  27.681  55.987  1.00  0.00     0.166 C 
HETATM    2  N   UNL     1       4.583  28.598  55.079  1.00  0.00    -0.319 N 
HETATM    3  C   UNL     1       3.893  29.675  55.251  1.00  0.00     0.011 C 
HETATM    4  C   UNL     1       4.752  28.256  53.583  1.00  0.00     0.170 C 
HETATM    5  S   UNL     1       4.181  29.536  52.567  1.00  0.00    -0.086 SA
HETATM    6  C   UNL     1       3.412  30.358  53.990  1.00  0.00     0.135 C 
HETATM    7  N   UNL     1       5.210  27.146  53.128  1.00  0.00    -0.229 NA
HETATM    8  C   UNL     1       5.466  26.128  54.023  1.00  0.00     0.048 C 
HETATM    9  C   UNL     1       5.615  24.777  53.358  1.00  0.00     0.071 C 
HETATM   10  C   UNL     1       5.487  26.322  55.361  1.00  0.00     0.069 C 
ENDROOT
BRANCH   3  11
HETATM   11  C   UNL     1       3.529  30.191  56.612  1.00  0.00     0.156 C 
BRANCH  11  12
HETATM   12  C   UNL     1       4.526  31.213  57.130  1.00  0.00     0.223 C 
HETATM   13  N   UNL     1       4.295  31.656  58.405  1.00  0.00    -0.359 N 
HETATM   14  H   UNL     1       3.411  31.393  58.838  1.00  0.00     0.162 HD
HETATM   15  O   UNL     1       5.478  31.582  56.446  1.00  0.00    -0.273 OA
BRANCH  13  16
HETATM   16  C   UNL     1       4.970  32.768  59.083  1.00  0.00     0.150 C 
BRANCH  16  17
HETATM   17  C   UNL     1       5.163  32.705  60.615  1.00  0.00     0.254 C 
BRANCH  17  18
HETATM   18  N   UNL     1       6.617  32.723  61.058  1.00  0.00    -0.070 N 
HETATM   19  H   UNL     1       6.857  33.725  61.193  1.00  0.00     0.279 HD
HETATM   20  C   UNL     1       6.873  32.003  62.365  1.00  0.00     0.235 C 
HETATM   21  C   UNL     1       8.334  32.147  62.763  1.00  0.00     0.028 C 
HETATM   22  C   UNL     1       9.267  31.639  61.674  1.00  0.00     0.003 C 
HETATM   23  C   UNL     1       8.974  32.331  60.349  1.00  0.00     0.028 C 
HETATM   24  C   UNL     1       7.513  32.193  59.953  1.00  0.00     0.235 C 
ENDBRANCH  17  18
ENDBRANCH  16  17
ENDBRANCH  13  16
ENDBRANCH  11  12
ENDBRANCH   3  11
BRANCH   1  25
HETATM   25  C   UNL     1       6.623  28.288  56.458  1.00  0.00    -0.030 A 
HETATM   26  C   UNL     1       7.692  28.581  55.583  1.00  0.00     0.016 A 
HETATM   27  C   UNL     1       8.886  29.148  56.057  1.00  0.00    -0.061 A 
HETATM   28  C   UNL     1      10.018  29.460  55.119  1.00  0.00     0.048 C 
HETATM   29  C   UNL     1       9.044  29.358  57.428  1.00  0.00     0.007 A 
HETATM   30  C   UNL     1       8.015  29.041  58.311  1.00  0.00     0.001 A 
HETATM   31  C   UNL     1       6.812  28.519  57.832  1.00  0.00     0.009 A 
ENDBRANCH   1  25
BRANCH  10  32
HETATM   32  C   UNL     1       5.539  25.236  56.373  1.00  0.00     0.294 C 
HETATM   33  O   UNL     1       4.753  25.238  57.309  1.00  0.00    -0.259 OA
BRANCH  32  34
HETATM   34  O   UNL     1       6.511  24.343  56.124  1.00  0.00    -0.313 OA
BRANCH  34  35
HETATM   35  C   UNL     1       7.901  24.748  56.197  1.00  0.00     0.124 C 
HETATM   36  C   UNL     1       8.293  25.187  57.602  1.00  0.00     0.040 C 
HETATM   37  C   UNL     1       8.836  23.688  55.619  1.00  0.00     0.040 C 
ENDBRANCH  34  35
ENDBRANCH  32  34
ENDBRANCH  10  32
TORSDOF 9
ENDMDL
MODEL 2
REMARK VINA RESULT:      -8.5      0.956      1.660
REMARK  9 active torsions:
REMARK  status: ('A' for Active; 'I' for Inactive)
REMARK    1  A    between atoms: C_4  and  C_5 
REMARK    2  A    between atoms: C_7  and  C_8 
REMARK    3  A    between atoms: C_8  and  C_9 
REMARK       I    between atoms: C_9  and  N_10 
REMARK    4  A    between atoms: N_10  and  C_11 
REMARK    5  A    between atoms: C_11  and  C_12 
REMARK    6  A    between atoms: C_12  and  N_13 
REMARK    7  A    between atoms: C_27  and  C_28 
REMARK    8  A    between atoms: C_28  and  O_29 
REMARK    9  A    between atoms: O_29  and  C_30 
ROOT
HETATM    1  C   UNL     1       5.276  27.889  56.191  1.00  0.00     0.166 C 
HETATM    2  N   UNL     1       4.480  28.860  55.418  1.00  0.00    -0.319 N 
HETATM    3  C   UNL     1       3.840  29.940  55.719  1.00  0.00     0.011 C 
HETATM    4  C   UNL     1       4.462  28.586  53.899  1.00  0.00     0.170 C 
HETATM    5  S   UNL     1       3.804  29.922  53.016  1.00  0.00    -0.086 SA
HETATM    6  C   UNL     1       3.229  30.689  54.556  1.00  0.00     0.135 C 
HETATM    7  N   UNL     1       4.837  27.491  53.342  1.00  0.00    -0.229 NA
HETATM    8  C   UNL     1       5.174  26.427  54.154  1.00  0.00     0.048 C 
HETATM    9  C   UNL     1       5.211  25.107  53.417  1.00  0.00     0.071 C 
HETATM   10  C   UNL     1       5.358  26.558  55.488  1.00  0.00     0.069 C 
ENDROOT
BRANCH   3  11
HETATM   11  C   UNL     1       3.653  30.398  57.135  1.00  0.00     0.156 C 
BRANCH  11  12
HETATM   12  C   UNL     1       4.704  31.407  57.562  1.00  0.00     0.223 C 
HETATM   13  N   UNL     1       4.899  31.507  58.914  1.00  0.00    -0.359 N 
HETATM   14  H   UNL     1       4.234  31.027  59.518  1.00  0.00     0.162 HD
HETATM   15  O   UNL     1       5.339  32.057  56.736  1.00  0.00    -0.273 OA
BRANCH  13  16
HETATM   16  C   UNL     1       5.698  32.520  59.613  1.00  0.00     0.150 C 
BRANCH  16  17
HETATM   17  C   UNL     1       5.090  33.239  60.838  1.00  0.00     0.254 C 
BRANCH  17  18
HETATM   18  N   UNL     1       6.085  33.505  61.956  1.00  0.00    -0.070 N 
HETATM   19  H   UNL     1       6.701  34.267  61.608  1.00  0.00     0.279 HD
HETATM   20  C   UNL     1       5.450  33.974  63.248  1.00  0.00     0.235 C 
HETATM   21  C   UNL     1       6.528  34.292  64.274  1.00  0.00     0.028 C 
HETATM   22  C   UNL     1       7.439  33.099  64.521  1.00  0.00     0.003 C 
HETATM   23  C   UNL     1       8.039  32.601  63.213  1.00  0.00     0.028 C 
HETATM   24  C   UNL     1       6.963  32.288  62.184  1.00  0.00     0.235 C 
ENDBRANCH  17  18
ENDBRANCH  16  17
ENDBRANCH  13  16
ENDBRANCH  11  12
ENDBRANCH   3  11
BRANCH   1  25
HETATM   25  C   UNL     1       6.662  28.450  56.527  1.00  0.00    -0.030 A 
HETATM   26  C   UNL     1       6.990  28.991  57.789  1.00  0.00     0.016 A 
HETATM   27  C   UNL     1       8.277  29.484  58.057  1.00  0.00    -0.061 A 
HETATM   28  C   UNL     1       8.620  30.055  59.404  1.00  0.00     0.048 C 
HETATM   29  C   UNL     1       9.227  29.504  57.033  1.00  0.00     0.007 A 
HETATM   30  C   UNL     1       8.910  29.008  55.771  1.00  0.00     0.001 A 
HETATM   31  C   UNL     1       7.644  28.477  55.521  1.00  0.00     0.009 A 
ENDBRANCH   1  25
BRANCH  10  32
HETATM   32  C   UNL     1       5.505  25.424  56.437  1.00  0.00     0.294 C 
HETATM   33  O   UNL     1       4.804  25.374  57.437  1.00  0.00    -0.259 OA
BRANCH  32  34
HETATM   34  O   UNL     1       6.456  24.554  56.060  1.00  0.00    -0.313 OA
BRANCH  34  35
HETATM   35  C   UNL     1       7.855  24.908  56.196  1.00  0.00     0.124 C 
HETATM   36  C   UNL     1       8.200  25.326  57.619  1.00  0.00     0.040 C 
HETATM   37  C   UNL     1       8.775  23.817  55.653  1.00  0.00     0.040 C 
ENDBRANCH  34  35
ENDBRANCH  32  34
ENDBRANCH  10  32
TORSDOF 9
ENDMDL
MODEL 3
REMARK VINA RESULT:      -8.0      1.548      2.421
REMARK  9 active torsions:
REMARK  status: ('A' for Active; 'I' for Inactive)
REMARK    1  A    between atoms: C_4  and  C_5 
REMARK    2  A    between atoms: C_7  and  C_8 
REMARK    3  A    between atoms: C_8  and  C_9 
REMARK       I    between atoms: C_9  and  N_10 
REMARK    4  A    between atoms: N_10  and  C_11 
REMARK    5  A    between atoms: C_11  and  C_12 
REMARK    6  A    between atoms: C_12  and  N_13 
REMARK    7  A    between atoms: C_27  and  C_28 
REMARK    8  A    between atoms: C_28  and  O_29 
REMARK    9  A    between atoms: O_29  and  C_30 
ROOT
HETATM    1  C   UNL     1       6.684  26.883  55.633  1.00  0.00     0.166 C 
HETATM    2  N   UNL     1       5.647  27.512  54.793  1.00  0.00    -0.319 N 
HETATM    3  C   UNL     1       4.597  28.220  55.041  1.00  0.00     0.011 C 
HETATM    4  C   UNL     1       5.900  27.371  53.276  1.00  0.00     0.170 C 
HETATM    5  S   UNL     1       4.853  28.397  52.356  1.00  0.00    -0.086 SA
HETATM    6  C   UNL     1       3.859  28.749  53.832  1.00  0.00     0.135 C 
HETATM    7  N   UNL     1       6.743  26.563  52.741  1.00  0.00    -0.229 NA
HETATM    8  C   UNL     1       7.396  25.664  53.559  1.00  0.00     0.048 C 
HETATM    9  C   UNL     1       8.042  24.529  52.795  1.00  0.00     0.071 C 
HETATM   10  C   UNL     1       7.372  25.754  54.908  1.00  0.00     0.069 C 
ENDROOT
BRANCH   3  11
HETATM   11  C   UNL     1       4.093  28.454  56.435  1.00  0.00     0.156 C 
BRANCH  11  12
HETATM   12  C   UNL     1       4.378  29.862  56.925  1.00  0.00     0.223 C 
HETATM   13  N   UNL     1       3.686  30.240  58.045  1.00  0.00    -0.359 N 
HETATM   14  H   UNL     1       2.939  29.623  58.362  1.00  0.00     0.162 HD
HETATM   15  O   UNL     1       5.194  30.584  56.357  1.00  0.00    -0.273 OA
BRANCH  13  16
HETATM   16  C   UNL     1       3.615  31.587  58.620  1.00  0.00     0.150 C 
BRANCH  16  17
HETATM   17  C   UNL     1       3.472  31.741  60.151  1.00  0.00     0.254 C 
BRANCH  17  18
HETATM   18  N   UNL     1       4.796  31.834  60.892  1.00  0.00    -0.070 N 
HETATM   19  H   UNL     1       5.204  30.877  60.858  1.00  0.00     0.279 HD
HETATM   20  C   UNL     1       5.790  32.785  60.260  1.00  0.00     0.235 C 
HETATM   21  C   UNL     1       7.107  32.745  61.022  1.00  0.00     0.028 C 
HETATM   22  C   UNL     1       6.914  33.065  62.497  1.00  0.00     0.003 C 
HETATM   23  C   UNL     1       5.878  32.137  63.117  1.00  0.00     0.028 C 
HETATM   24  C   UNL     1       4.563  32.171  62.353  1.00  0.00     0.235 C 
ENDBRANCH  17  18
ENDBRANCH  16  17
ENDBRANCH  13  16
ENDBRANCH  11  12
ENDBRANCH   3  11
BRANCH   1  25
HETATM   25  C   UNL     1       7.679  27.923  56.157  1.00  0.00    -0.030 A 
HETATM   26  C   UNL     1       7.643  28.431  57.473  1.00  0.00     0.016 A 
HETATM   27  C   UNL     1       8.583  29.376  57.915  1.00  0.00    -0.061 A 
HETATM   28  C   UNL     1       8.539  29.911  59.319  1.00  0.00     0.048 C 
HETATM   29  C   UNL     1       9.526  29.873  57.013  1.00  0.00     0.007 A 
HETATM   30  C   UNL     1       9.555  29.410  55.700  1.00  0.00     0.001 A 
HETATM   31  C   UNL     1       8.647  28.438  55.276  1.00  0.00     0.009 A 
ENDBRANCH   1  25
BRANCH  10  32
HETATM   32  C   UNL     1       7.866  24.704  55.836  1.00  0.00     0.294 C 
HETATM   33  O   UNL     1       8.577  25.012  56.781  1.00  0.00    -0.259 OA
BRANCH  32  34
HETATM   34  O   UNL     1       7.456  23.473  55.489  1.00  0.00    -0.313 OA
BRANCH  34  35
HETATM   35  C   UNL     1       8.275  22.321  55.808  1.00  0.00     0.124 C 
HETATM   36  C   UNL     1       7.455  21.038  55.862  1.00  0.00     0.040 C 
HETATM   37  C   UNL     1       9.493  22.215  54.894  1.00  0.00     0.040 C 
ENDBRANCH  34  35
ENDBRANCH  32  34
ENDBRANCH  10  32
TORSDOF 9
ENDMDL
MODEL 4
REMARK VINA RESULT:      -7.8      2.347      7.579
REMARK  9 active torsions:
REMARK  status: ('A' for Active; 'I' for Inactive)
REMARK    1  A    between atoms: C_4  and  C_5 
REMARK    2  A    between atoms: C_7  and  C_8 
REMARK    3  A    between atoms: C_8  and  C_9 
REMARK       I    between atoms: C_9  and  N_10 
REMARK    4  A    between atoms: N_10  and  C_11 
REMARK    5  A    between atoms: C_11  and  C_12 
REMARK    6  A    between atoms: C_12  and  N_13 
REMARK    7  A    between atoms: C_27  and  C_28 
REMARK    8  A    between atoms: C_28  and  O_29 
REMARK    9  A    between atoms: O_29  and  C_30 
ROOT
HETATM    1  C   UNL     1       6.881  29.028  56.129  1.00  0.00     0.166 C 
HETATM    2  N   UNL     1       5.768  29.440  55.253  1.00  0.00    -0.319 N 
HETATM    3  C   UNL     1       5.462  29.209  54.021  1.00  0.00     0.011 C 
HETATM    4  C   UNL     1       4.677  30.263  55.972  1.00  0.00     0.170 C 
HETATM    5  S   UNL     1       3.256  30.429  54.997  1.00  0.00    -0.086 SA
HETATM    6  C   UNL     1       4.138  29.772  53.554  1.00  0.00     0.135 C 
HETATM    7  N   UNL     1       4.805  30.806  57.128  1.00  0.00    -0.229 NA
HETATM    8  C   UNL     1       6.042  30.762  57.738  1.00  0.00     0.048 C 
HETATM    9  C   UNL     1       6.178  31.750  58.875  1.00  0.00     0.071 C 
HETATM   10  C   UNL     1       7.047  29.974  57.291  1.00  0.00     0.069 C 
ENDROOT
BRANCH   3  11
HETATM   11  C   UNL     1       6.383  28.485  53.083  1.00  0.00     0.156 C 
BRANCH  11  12
HETATM   12  C   UNL     1       6.113  26.991  53.044  1.00  0.00     0.223 C 
HETATM   13  N   UNL     1       7.229  26.198  53.064  1.00  0.00    -0.359 N 
HETATM   14  H   UNL     1       8.131  26.658  52.947  1.00  0.00     0.162 HD
HETATM   15  O   UNL     1       4.968  26.548  53.024  1.00  0.00    -0.273 OA
BRANCH  13  16
HETATM   16  C   UNL     1       7.280  24.748  52.843  1.00  0.00     0.150 C 
BRANCH  16  17
HETATM   17  C   UNL     1       6.865  23.801  53.991  1.00  0.00     0.254 C 
BRANCH  17  18
HETATM   18  N   UNL     1       7.836  22.656  54.231  1.00  0.00    -0.070 N 
HETATM   19  H   UNL     1       8.781  23.088  54.248  1.00  0.00     0.279 HD
HETATM   20  C   UNL     1       7.630  21.939  55.548  1.00  0.00     0.235 C 
HETATM   21  C   UNL     1       8.696  20.870  55.733  1.00  0.00     0.028 C 
HETATM   22  C   UNL     1       8.710  19.882  54.575  1.00  0.00     0.003 C 
HETATM   23  C   UNL     1       8.869  20.612  53.249  1.00  0.00     0.028 C 
HETATM   24  C   UNL     1       7.807  21.685  53.065  1.00  0.00     0.235 C 
ENDBRANCH  17  18
ENDBRANCH  16  17
ENDBRANCH  13  16
ENDBRANCH  11  12
ENDBRANCH   3  11
BRANCH   1  25
HETATM   25  C   UNL     1       6.718  27.576  56.588  1.00  0.00    -0.030 A 
HETATM   26  C   UNL     1       7.812  26.730  56.873  1.00  0.00     0.016 A 
HETATM   27  C   UNL     1       7.617  25.407  57.301  1.00  0.00    -0.061 A 
HETATM   28  C   UNL     1       8.786  24.513  57.606  1.00  0.00     0.048 C 
HETATM   29  C   UNL     1       6.318  24.899  57.378  1.00  0.00     0.007 A 
HETATM   30  C   UNL     1       5.228  25.707  57.065  1.00  0.00     0.001 A 
HETATM   31  C   UNL     1       5.423  27.035  56.683  1.00  0.00     0.009 A 
ENDBRANCH   1  25
BRANCH  10  32
HETATM   32  C   UNL     1       8.453  30.045  57.767  1.00  0.00     0.294 C 
HETATM   33  O   UNL     1       9.351  30.296  56.976  1.00  0.00    -0.259 OA
BRANCH  32  34
HETATM   34  O   UNL     1       8.567  29.796  59.081  1.00  0.00    -0.313 OA
BRANCH  34  35
HETATM   35  C   UNL     1       8.838  30.881  60.003  1.00  0.00     0.124 C 
HETATM   36  C   UNL     1       9.144  30.374  61.406  1.00  0.00     0.040 C 
HETATM   37  C   UNL     1       9.903  31.835  59.466  1.00  0.00     0.040 C 
ENDBRANCH  34  35
ENDBRANCH  32  34
ENDBRANCH  10  32
TORSDOF 9
ENDMDL
MODEL 5
REMARK VINA RESULT:      -7.7      4.893     10.532
REMARK  9 active torsions:
REMARK  status: ('A' for Active; 'I' for Inactive)
REMARK    1  A    between atoms: C_4  and  C_5 
REMARK    2  A    between atoms: C_7  and  C_8 
REMARK    3  A    between atoms: C_8  and  C_9 
REMARK       I    between atoms: C_9  and  N_10 
REMARK    4  A    between atoms: N_10  and  C_11 
REMARK    5  A    between atoms: C_11  and  C_12 
REMARK    6  A    between atoms: C_12  and  N_13 
REMARK    7  A    between atoms: C_27  and  C_28 
REMARK    8  A    between atoms: C_28  and  O_29 
REMARK    9  A    between atoms: O_29  and  C_30 
ROOT
HETATM    1  C   UNL     1       5.390  35.684  62.028  1.00  0.00     0.166 C 
HETATM    2  N   UNL     1       4.355  34.917  61.309  1.00  0.00    -0.319 N 
HETATM    3  C   UNL     1       4.332  33.766  60.727  1.00  0.00     0.011 C 
HETATM    4  C   UNL     1       2.964  35.587  61.313  1.00  0.00     0.170 C 
HETATM    5  S   UNL     1       1.732  34.506  60.758  1.00  0.00    -0.086 SA
HETATM    6  C   UNL     1       2.988  33.326  60.191  1.00  0.00     0.135 C 
HETATM    7  N   UNL     1       2.735  36.809  61.638  1.00  0.00    -0.229 NA
HETATM    8  C   UNL     1       3.814  37.631  61.891  1.00  0.00     0.048 C 
HETATM    9  C   UNL     1       3.456  39.101  61.869  1.00  0.00     0.071 C 
HETATM   10  C   UNL     1       5.070  37.157  62.049  1.00  0.00     0.069 C 
ENDROOT
BRANCH   3  11
HETATM   11  C   UNL     1       5.567  32.936  60.531  1.00  0.00     0.156 C 
BRANCH  11  12
HETATM   12  C   UNL     1       5.693  32.411  59.112  1.00  0.00     0.223 C 
HETATM   13  N   UNL     1       5.468  31.067  58.967  1.00  0.00    -0.359 N 
HETATM   14  H   UNL     1       5.392  30.512  59.818  1.00  0.00     0.162 HD
HETATM   15  O   UNL     1       5.952  33.159  58.173  1.00  0.00    -0.273 OA
BRANCH  13  16
HETATM   16  C   UNL     1       5.707  30.262  57.764  1.00  0.00     0.150 C 
BRANCH  16  17
HETATM   17  C   UNL     1       6.897  29.277  57.746  1.00  0.00     0.254 C 
BRANCH  17  18
HETATM   18  N   UNL     1       8.232  29.924  57.412  1.00  0.00    -0.070 N 
HETATM   19  H   UNL     1       8.004  30.747  56.819  1.00  0.00     0.279 HD
HETATM   20  C   UNL     1       8.997  30.419  58.620  1.00  0.00     0.235 C 
HETATM   21  C   UNL     1      10.273  31.121  58.179  1.00  0.00     0.028 C 
HETATM   22  C   UNL     1      11.144  30.217  57.320  1.00  0.00     0.003 C 
HETATM   23  C   UNL     1      10.356  29.683  56.131  1.00  0.00     0.028 C 
HETATM   24  C   UNL     1       9.078  28.986  56.570  1.00  0.00     0.235 C 
ENDBRANCH  17  18
ENDBRANCH  16  17
ENDBRANCH  13  16
ENDBRANCH  11  12
ENDBRANCH   3  11
BRANCH   1  25
HETATM   25  C   UNL     1       5.620  35.124  63.435  1.00  0.00    -0.030 A 
HETATM   26  C   UNL     1       4.843  35.501  64.551  1.00  0.00     0.016 A 
HETATM   27  C   UNL     1       5.082  34.954  65.822  1.00  0.00    -0.061 A 
HETATM   28  C   UNL     1       4.248  35.358  67.006  1.00  0.00     0.048 C 
HETATM   29  C   UNL     1       6.152  34.075  65.996  1.00  0.00     0.007 A 
HETATM   30  C   UNL     1       6.953  33.718  64.914  1.00  0.00     0.001 A 
HETATM   31  C   UNL     1       6.685  34.230  63.643  1.00  0.00     0.009 A 
ENDBRANCH   1  25
BRANCH  10  32
HETATM   32  C   UNL     1       6.292  38.001  62.105  1.00  0.00     0.294 C 
HETATM   33  O   UNL     1       6.857  38.324  61.070  1.00  0.00    -0.259 OA
BRANCH  32  34
HETATM   34  O   UNL     1       6.651  38.309  63.362  1.00  0.00    -0.313 OA
BRANCH  34  35
HETATM   35  C   UNL     1       6.526  39.672  63.836  1.00  0.00     0.124 C 
HETATM   36  C   UNL     1       6.006  39.731  65.267  1.00  0.00     0.040 C 
HETATM   37  C   UNL     1       7.812  40.469  63.633  1.00  0.00     0.040 C 
ENDBRANCH  34  35
ENDBRANCH  32  34
ENDBRANCH  10  32
TORSDOF 9
ENDMDL
MODEL 6
REMARK VINA RESULT:      -7.5      2.938      8.702
REMARK  9 active torsions:
REMARK  status: ('A' for Active; 'I' for Inactive)
REMARK    1  A    between atoms: C_4  and  C_5 
REMARK    2  A    between atoms: C_7  and  C_8 
REMARK    3  A    between atoms: C_8  and  C_9 
REMARK       I    between atoms: C_9  and  N_10 
REMARK    4  A    between atoms: N_10  and  C_11 
REMARK    5  A    between atoms: C_11  and  C_12 
REMARK    6  A    between atoms: C_12  and  N_13 
REMARK    7  A    between atoms: C_27  and  C_28 
REMARK    8  A    between atoms: C_28  and  O_29 
REMARK    9  A    between atoms: O_29  and  C_30 
ROOT
HETATM    1  C   UNL     1       4.729  30.999  58.161  1.00  0.00     0.166 C 
HETATM    2  N   UNL     1       5.985  30.254  57.946  1.00  0.00    -0.319 N 
HETATM    3  C   UNL     1       6.279  29.134  57.376  1.00  0.00     0.011 C 
HETATM    4  C   UNL     1       7.246  31.001  58.432  1.00  0.00     0.170 C 
HETATM    5  S   UNL     1       8.695  30.245  57.861  1.00  0.00    -0.086 SA
HETATM    6  C   UNL     1       7.752  28.799  57.303  1.00  0.00     0.135 C 
HETATM    7  N   UNL     1       7.244  32.027  59.204  1.00  0.00    -0.229 NA
HETATM    8  C   UNL     1       6.042  32.436  59.745  1.00  0.00     0.048 C 
HETATM    9  C   UNL     1       6.209  33.375  60.919  1.00  0.00     0.071 C 
HETATM   10  C   UNL     1       4.850  31.963  59.313  1.00  0.00     0.069 C 
ENDROOT
BRANCH   3  11
HETATM   11  C   UNL     1       5.231  28.186  56.873  1.00  0.00     0.156 C 
BRANCH  11  12
HETATM   12  C   UNL     1       5.766  27.239  55.814  1.00  0.00     0.223 C 
HETATM   13  N   UNL     1       6.305  26.075  56.294  1.00  0.00    -0.359 N 
HETATM   14  H   UNL     1       6.445  26.005  57.300  1.00  0.00     0.162 HD
HETATM   15  O   UNL     1       5.687  27.506  54.618  1.00  0.00    -0.273 OA
BRANCH  13  16
HETATM   16  C   UNL     1       7.061  25.077  55.529  1.00  0.00     0.150 C 
BRANCH  16  17
HETATM   17  C   UNL     1       7.504  23.773  56.230  1.00  0.00     0.254 C 
BRANCH  17  18
HETATM   18  N   UNL     1       8.021  22.704  55.281  1.00  0.00    -0.070 N 
HETATM   19  H   UNL     1       9.052  22.837  55.243  1.00  0.00     0.279 HD
HETATM   20  C   UNL     1       7.752  21.288  55.742  1.00  0.00     0.235 C 
HETATM   21  C   UNL     1       8.377  20.295  54.773  1.00  0.00     0.028 C 
HETATM   22  C   UNL     1       7.877  20.506  53.352  1.00  0.00     0.003 C 
HETATM   23  C   UNL     1       8.107  21.944  52.909  1.00  0.00     0.028 C 
HETATM   24  C   UNL     1       7.488  22.938  53.880  1.00  0.00     0.235 C 
ENDBRANCH  17  18
ENDBRANCH  16  17
ENDBRANCH  13  16
ENDBRANCH  11  12
ENDBRANCH   3  11
BRANCH   1  25
HETATM   25  C   UNL     1       4.268  31.692  56.875  1.00  0.00    -0.030 A 
HETATM   26  C   UNL     1       4.940  32.798  56.311  1.00  0.00     0.016 A 
HETATM   27  C   UNL     1       4.489  33.396  55.124  1.00  0.00    -0.061 A 
HETATM   28  C   UNL     1       5.212  34.571  54.528  1.00  0.00     0.048 C 
HETATM   29  C   UNL     1       3.313  32.933  54.531  1.00  0.00     0.007 A 
HETATM   30  C   UNL     1       2.615  31.866  55.093  1.00  0.00     0.001 A 
HETATM   31  C   UNL     1       3.091  31.245  56.248  1.00  0.00     0.009 A 
ENDBRANCH   1  25
BRANCH  10  32
HETATM   32  C   UNL     1       3.550  32.197  59.994  1.00  0.00     0.294 C 
HETATM   33  O   UNL     1       3.309  31.638  61.054  1.00  0.00    -0.259 OA
BRANCH  32  34
HETATM   34  O   UNL     1       2.752  33.033  59.310  1.00  0.00    -0.313 OA
BRANCH  34  35
HETATM   35  C   UNL     1       3.111  34.430  59.177  1.00  0.00     0.124 C 
HETATM   36  C   UNL     1       2.518  35.053  57.920  1.00  0.00     0.040 C 
HETATM   37  C   UNL     1       2.797  35.224  60.443  1.00  0.00     0.040 C 
ENDBRANCH  34  35
ENDBRANCH  32  34
ENDBRANCH  10  32
TORSDOF 9
ENDMDL
MODEL 7
REMARK VINA RESULT:      -7.4      2.615      4.849
REMARK  9 active torsions:
REMARK  status: ('A' for Active; 'I' for Inactive)
REMARK    1  A    between atoms: C_4  and  C_5 
REMARK    2  A    between atoms: C_7  and  C_8 
REMARK    3  A    between atoms: C_8  and  C_9 
REMARK       I    between atoms: C_9  and  N_10 
REMARK    4  A    between atoms: N_10  and  C_11 
REMARK    5  A    between atoms: C_11  and  C_12 
REMARK    6  A    between atoms: C_12  and  N_13 
REMARK    7  A    between atoms: C_27  and  C_28 
REMARK    8  A    between atoms: C_28  and  O_29 
REMARK    9  A    between atoms: O_29  and  C_30 
ROOT
HETATM    1  C   UNL     1       6.172  28.353  54.694  1.00  0.00     0.166 C 
HETATM    2  N   UNL     1       7.037  27.589  55.613  1.00  0.00    -0.319 N 
HETATM    3  C   UNL     1       8.077  27.882  56.319  1.00  0.00     0.011 C 
HETATM    4  C   UNL     1       6.565  26.140  55.858  1.00  0.00     0.170 C 
HETATM    5  S   UNL     1       7.409  25.409  57.181  1.00  0.00    -0.086 SA
HETATM    6  C   UNL     1       8.596  26.780  57.215  1.00  0.00     0.135 C 
HETATM    7  N   UNL     1       5.691  25.520  55.151  1.00  0.00    -0.229 NA
HETATM    8  C   UNL     1       5.214  26.136  54.012  1.00  0.00     0.048 C 
HETATM    9  C   UNL     1       4.516  25.181  53.069  1.00  0.00     0.071 C 
HETATM   10  C   UNL     1       5.438  27.442  53.743  1.00  0.00     0.069 C 
ENDROOT
BRANCH   3  11
HETATM   11  C   UNL     1       8.773  29.207  56.218  1.00  0.00     0.156 C 
BRANCH  11  12
HETATM   12  C   UNL     1       9.101  29.796  57.579  1.00  0.00     0.223 C 
HETATM   13  N   UNL     1       8.020  30.036  58.384  1.00  0.00    -0.359 N 
HETATM   14  H   UNL     1       7.096  29.952  57.962  1.00  0.00     0.162 HD
HETATM   15  O   UNL     1      10.261  30.008  57.922  1.00  0.00    -0.273 OA
BRANCH  13  16
HETATM   16  C   UNL     1       8.017  30.768  59.655  1.00  0.00     0.150 C 
BRANCH  16  17
HETATM   17  C   UNL     1       7.139  32.032  59.790  1.00  0.00     0.254 C 
BRANCH  17  18
HETATM   18  N   UNL     1       7.282  32.746  61.125  1.00  0.00    -0.070 N 
HETATM   19  H   UNL     1       8.007  33.477  60.976  1.00  0.00     0.279 HD
HETATM   20  C   UNL     1       6.018  33.434  61.594  1.00  0.00     0.235 C 
HETATM   21  C   UNL     1       6.283  34.186  62.891  1.00  0.00     0.028 C 
HETATM   22  C   UNL     1       6.833  33.267  63.972  1.00  0.00     0.003 C 
HETATM   23  C   UNL     1       8.077  32.541  63.478  1.00  0.00     0.028 C 
HETATM   24  C   UNL     1       7.815  31.794  62.179  1.00  0.00     0.235 C 
ENDBRANCH  17  18
ENDBRANCH  16  17
ENDBRANCH  13  16
ENDBRANCH  11  12
ENDBRANCH   3  11
BRANCH   1  25
HETATM   25  C   UNL     1       5.217  29.270  55.465  1.00  0.00    -0.030 A 
HETATM   26  C   UNL     1       5.515  30.617  55.764  1.00  0.00     0.016 A 
HETATM   27  C   UNL     1       4.605  31.426  56.464  1.00  0.00    -0.061 A 
HETATM   28  C   UNL     1       4.928  32.860  56.776  1.00  0.00     0.048 C 
HETATM   29  C   UNL     1       3.415  30.865  56.933  1.00  0.00     0.007 A 
HETATM   30  C   UNL     1       3.120  29.528  56.680  1.00  0.00     0.001 A 
HETATM   31  C   UNL     1       4.007  28.739  55.945  1.00  0.00     0.009 A 
ENDBRANCH   1  25
BRANCH  10  32
HETATM   32  C   UNL     1       5.142  28.101  52.444  1.00  0.00     0.294 C 
HETATM   33  O   UNL     1       6.042  28.291  51.639  1.00  0.00    -0.259 OA
BRANCH  32  34
HETATM   34  O   UNL     1       3.848  28.437  52.318  1.00  0.00    -0.313 OA
BRANCH  34  35
HETATM   35  C   UNL     1       3.484  29.693  51.694  1.00  0.00     0.124 C 
HETATM   36  C   UNL     1       2.288  29.541  50.763  1.00  0.00     0.040 C 
HETATM   37  C   UNL     1       3.305  30.810  52.720  1.00  0.00     0.040 C 
ENDBRANCH  34  35
ENDBRANCH  32  34
ENDBRANCH  10  32
TORSDOF 9
ENDMDL
MODEL 8
REMARK VINA RESULT:      -7.1      2.913      8.816
REMARK  9 active torsions:
REMARK  status: ('A' for Active; 'I' for Inactive)
REMARK    1  A    between atoms: C_4  and  C_5 
REMARK    2  A    between atoms: C_7  and  C_8 
REMARK    3  A    between atoms: C_8  and  C_9 
REMARK       I    between atoms: C_9  and  N_10 
REMARK    4  A    between atoms: N_10  and  C_11 
REMARK    5  A    between atoms: C_11  and  C_12 
REMARK    6  A    between atoms: C_12  and  N_13 
REMARK    7  A    between atoms: C_27  and  C_28 
REMARK    8  A    between atoms: C_28  and  O_29 
REMARK    9  A    between atoms: O_29  and  C_30 
ROOT
HETATM    1  C   UNL     1       5.095  31.615  59.043  1.00  0.00     0.166 C 
HETATM    2  N   UNL     1       6.428  31.052  58.755  1.00  0.00    -0.319 N 
HETATM    3  C   UNL     1       6.854  30.084  58.015  1.00  0.00     0.011 C 
HETATM    4  C   UNL     1       7.590  31.826  59.414  1.00  0.00     0.170 C 
HETATM    5  S   UNL     1       9.125  31.333  58.782  1.00  0.00    -0.086 SA
HETATM    6  C   UNL     1       8.355  29.919  57.946  1.00  0.00     0.135 C 
HETATM    7  N   UNL     1       7.460  32.696  60.350  1.00  0.00    -0.229 NA
HETATM    8  C   UNL     1       6.209  32.879  60.902  1.00  0.00     0.048 C 
HETATM    9  C   UNL     1       6.247  33.610  62.226  1.00  0.00     0.071 C 
HETATM   10  C   UNL     1       5.085  32.371  60.347  1.00  0.00     0.069 C 
ENDROOT
BRANCH   3  11
HETATM   11  C   UNL     1       5.925  29.137  57.314  1.00  0.00     0.156 C 
BRANCH  11  12
HETATM   12  C   UNL     1       6.650  27.929  56.746  1.00  0.00     0.223 C 
HETATM   13  N   UNL     1       6.944  28.003  55.411  1.00  0.00    -0.359 N 
HETATM   14  H   UNL     1       6.529  28.768  54.882  1.00  0.00     0.162 HD
HETATM   15  O   UNL     1       6.962  26.978  57.458  1.00  0.00    -0.273 OA
BRANCH  13  16
HETATM   16  C   UNL     1       7.459  26.920  54.565  1.00  0.00     0.150 C 
BRANCH  16  17
HETATM   17  C   UNL     1       6.591  25.660  54.351  1.00  0.00     0.254 C 
BRANCH  17  18
HETATM   18  N   UNL     1       7.379  24.359  54.340  1.00  0.00    -0.070 N 
HETATM   19  H   UNL     1       8.379  24.638  54.288  1.00  0.00     0.279 HD
HETATM   20  C   UNL     1       7.195  23.517  55.584  1.00  0.00     0.235 C 
HETATM   21  C   UNL     1       8.084  22.284  55.515  1.00  0.00     0.028 C 
HETATM   22  C   UNL     1       7.814  21.465  54.261  1.00  0.00     0.003 C 
HETATM   23  C   UNL     1       7.953  22.328  53.015  1.00  0.00     0.028 C 
HETATM   24  C   UNL     1       7.069  23.564  53.085  1.00  0.00     0.235 C 
ENDBRANCH  17  18
ENDBRANCH  16  17
ENDBRANCH  13  16
ENDBRANCH  11  12
ENDBRANCH   3  11
BRANCH   1  25
HETATM   25  C   UNL     1       4.592  32.472  57.877  1.00  0.00    -0.030 A 
HETATM   26  C   UNL     1       5.001  33.807  57.668  1.00  0.00     0.016 A 
HETATM   27  C   UNL     1       4.523  34.553  56.579  1.00  0.00    -0.061 A 
HETATM   28  C   UNL     1       4.966  35.972  56.361  1.00  0.00     0.048 C 
HETATM   29  C   UNL     1       3.570  33.986  55.730  1.00  0.00     0.007 A 
HETATM   30  C   UNL     1       3.126  32.683  55.941  1.00  0.00     0.001 A 
HETATM   31  C   UNL     1       3.638  31.929  56.999  1.00  0.00     0.009 A 
ENDBRANCH   1  25
BRANCH  10  32
HETATM   32  C   UNL     1       3.753  32.349  61.004  1.00  0.00     0.294 C 
HETATM   33  O   UNL     1       3.567  31.638  61.981  1.00  0.00    -0.259 OA
BRANCH  32  34
HETATM   34  O   UNL     1       2.863  33.150  60.396  1.00  0.00    -0.313 OA
BRANCH  34  35
HETATM   35  C   UNL     1       2.532  34.436  60.977  1.00  0.00     0.124 C 
HETATM   36  C   UNL     1       3.289  35.575  60.305  1.00  0.00     0.040 C 
HETATM   37  C   UNL     1       1.024  34.668  61.031  1.00  0.00     0.040 C 
ENDBRANCH  34  35
ENDBRANCH  32  34
ENDBRANCH  10  32
TORSDOF 9
ENDMDL
MODEL 9
REMARK VINA RESULT:      -7.1      4.727     10.698
REMARK  9 active torsions:
REMARK  status: ('A' for Active; 'I' for Inactive)
REMARK    1  A    between atoms: C_4  and  C_5 
REMARK    2  A    between atoms: C_7  and  C_8 
REMARK    3  A    between atoms: C_8  and  C_9 
REMARK       I    between atoms: C_9  and  N_10 
REMARK    4  A    between atoms: N_10  and  C_11 
REMARK    5  A    between atoms: C_11  and  C_12 
REMARK    6  A    between atoms: C_12  and  N_13 
REMARK    7  A    between atoms: C_27  and  C_28 
REMARK    8  A    between atoms: C_28  and  O_29 
REMARK    9  A    between atoms: O_29  and  C_30 
ROOT
HETATM    1  C   UNL     1       5.825  35.372  62.294  1.00  0.00     0.166 C 
HETATM    2  N   UNL     1       5.169  34.358  61.446  1.00  0.00    -0.319 N 
HETATM    3  C   UNL     1       5.508  33.188  61.019  1.00  0.00     0.011 C 
HETATM    4  C   UNL     1       3.727  34.724  61.035  1.00  0.00     0.170 C 
HETATM    5  S   UNL     1       2.900  33.374  60.335  1.00  0.00    -0.086 SA
HETATM    6  C   UNL     1       4.454  32.443  60.233  1.00  0.00     0.135 C 
HETATM    7  N   UNL     1       3.203  35.891  61.144  1.00  0.00    -0.229 NA
HETATM    8  C   UNL     1       4.010  36.935  61.547  1.00  0.00     0.048 C 
HETATM    9  C   UNL     1       3.409  38.294  61.262  1.00  0.00     0.071 C 
HETATM   10  C   UNL     1       5.247  36.744  62.059  1.00  0.00     0.069 C 
ENDROOT
BRANCH   3  11
HETATM   11  C   UNL     1       6.881  32.620  61.228  1.00  0.00     0.156 C 
BRANCH  11  12
HETATM   12  C   UNL     1       7.536  32.194  59.926  1.00  0.00     0.223 C 
HETATM   13  N   UNL     1       6.848  31.250  59.211  1.00  0.00    -0.359 N 
HETATM   14  H   UNL     1       6.055  30.804  59.669  1.00  0.00     0.162 HD
HETATM   15  O   UNL     1       8.593  32.692  59.548  1.00  0.00    -0.273 OA
BRANCH  13  16
HETATM   16  C   UNL     1       7.327  30.520  58.032  1.00  0.00     0.150 C 
BRANCH  16  17
HETATM   17  C   UNL     1       7.902  29.097  58.214  1.00  0.00     0.254 C 
BRANCH  17  18
HETATM   18  N   UNL     1       7.197  28.034  57.386  1.00  0.00    -0.070 N 
HETATM   19  H   UNL     1       7.552  28.153  56.416  1.00  0.00     0.279 HD
HETATM   20  C   UNL     1       7.497  26.616  57.820  1.00  0.00     0.235 C 
HETATM   21  C   UNL     1       6.815  25.628  56.884  1.00  0.00     0.028 C 
HETATM   22  C   UNL     1       5.314  25.866  56.811  1.00  0.00     0.003 C 
HETATM   23  C   UNL     1       5.017  27.307  56.420  1.00  0.00     0.028 C 
HETATM   24  C   UNL     1       5.703  28.296  57.351  1.00  0.00     0.235 C 
ENDBRANCH  17  18
ENDBRANCH  16  17
ENDBRANCH  13  16
ENDBRANCH  11  12
ENDBRANCH   3  11
BRANCH   1  25
HETATM   25  C   UNL     1       5.779  34.973  63.772  1.00  0.00    -0.030 A 
HETATM   26  C   UNL     1       4.707  35.304  64.628  1.00  0.00     0.016 A 
HETATM   27  C   UNL     1       4.702  34.909  65.975  1.00  0.00    -0.061 A 
HETATM   28  C   UNL     1       3.555  35.263  66.880  1.00  0.00     0.048 C 
HETATM   29  C   UNL     1       5.810  34.236  66.493  1.00  0.00     0.007 A 
HETATM   30  C   UNL     1       6.894  33.931  65.673  1.00  0.00     0.001 A 
HETATM   31  C   UNL     1       6.877  34.287  64.323  1.00  0.00     0.009 A 
ENDBRANCH   1  25
BRANCH  10  32
HETATM   32  C   UNL     1       6.238  37.824  62.304  1.00  0.00     0.294 C 
HETATM   33  O   UNL     1       7.004  38.161  61.414  1.00  0.00    -0.259 OA
BRANCH  32  34
HETATM   34  O   UNL     1       6.170  38.314  63.553  1.00  0.00    -0.313 OA
BRANCH  34  35
HETATM   35  C   UNL     1       6.282  39.741  63.777  1.00  0.00     0.124 C 
HETATM   36  C   UNL     1       7.734  40.203  63.790  1.00  0.00     0.040 C 
HETATM   37  C   UNL     1       5.409  40.542  62.814  1.00  0.00     0.040 C 
ENDBRANCH  34  35
ENDBRANCH  32  34
ENDBRANCH  10  32
TORSDOF 9
ENDMDL
MODEL 10
REMARK VINA RESULT:      -7.0      5.715      9.699
REMARK  9 active torsions:
REMARK  status: ('A' for Active; 'I' for Inactive)
REMARK    1  A    between atoms: C_4  and  C_5 
REMARK    2  A    between atoms: C_7  and  C_8 
REMARK    3  A    between atoms: C_8  and  C_9 
REMARK       I    between atoms: C_9  and  N_10 
REMARK    4  A    between atoms: N_10  and  C_11 
REMARK    5  A    between atoms: C_11  and  C_12 
REMARK    6  A    between atoms: C_12  and  N_13 
REMARK    7  A    between atoms: C_27  and  C_28 
REMARK    8  A    between atoms: C_28  and  O_29 
REMARK    9  A    between atoms: O_29  and  C_30 
ROOT
HETATM    1  C   UNL     1       2.478  29.994  49.150  1.00  0.00     0.166 C 
HETATM    2  N   UNL     1       3.285  30.712  50.155  1.00  0.00    -0.319 N 
HETATM    3  C   UNL     1       3.621  30.470  51.377  1.00  0.00     0.011 C 
HETATM    4  C   UNL     1       3.948  32.000  49.621  1.00  0.00     0.170 C 
HETATM    5  S   UNL     1       5.134  32.612  50.724  1.00  0.00    -0.086 SA
HETATM    6  C   UNL     1       4.567  31.465  52.010  1.00  0.00     0.135 C 
HETATM    7  N   UNL     1       3.640  32.587  48.522  1.00  0.00    -0.229 NA
HETATM    8  C   UNL     1       2.557  32.114  47.809  1.00  0.00     0.048 C 
HETATM    9  C   UNL     1       2.052  33.096  46.775  1.00  0.00     0.071 C 
HETATM   10  C   UNL     1       1.965  30.929  48.084  1.00  0.00     0.069 C 
ENDROOT
BRANCH   3  11
HETATM   11  C   UNL     1       3.062  29.313  52.153  1.00  0.00     0.156 C 
BRANCH  11  12
HETATM   12  C   UNL     1       4.123  28.285  52.505  1.00  0.00     0.223 C 
HETATM   13  N   UNL     1       4.459  28.228  53.831  1.00  0.00    -0.359 N 
HETATM   14  H   UNL     1       4.098  28.964  54.437  1.00  0.00     0.162 HD
HETATM   15  O   UNL     1       4.611  27.551  51.650  1.00  0.00    -0.273 OA
BRANCH  13  16
HETATM   16  C   UNL     1       5.572  27.479  54.423  1.00  0.00     0.150 C 
BRANCH  16  17
HETATM   17  C   UNL     1       5.416  25.959  54.650  1.00  0.00     0.254 C 
BRANCH  17  18
HETATM   18  N   UNL     1       6.642  25.145  54.267  1.00  0.00    -0.070 N 
HETATM   19  H   UNL     1       7.449  25.796  54.355  1.00  0.00     0.279 HD
HETATM   20  C   UNL     1       6.902  23.959  55.170  1.00  0.00     0.235 C 
HETATM   21  C   UNL     1       8.190  23.261  54.758  1.00  0.00     0.028 C 
HETATM   22  C   UNL     1       8.156  22.834  53.298  1.00  0.00     0.003 C 
HETATM   23  C   UNL     1       7.847  24.022  52.397  1.00  0.00     0.028 C 
HETATM   24  C   UNL     1       6.563  24.724  52.812  1.00  0.00     0.235 C 
ENDBRANCH  17  18
ENDBRANCH  16  17
ENDBRANCH  13  16
ENDBRANCH  11  12
ENDBRANCH   3  11
BRANCH   1  25
HETATM   25  C   UNL     1       3.253  28.814  48.556  1.00  0.00    -0.030 A 
HETATM   26  C   UNL     1       2.769  27.488  48.570  1.00  0.00     0.016 A 
HETATM   27  C   UNL     1       3.508  26.437  48.004  1.00  0.00    -0.061 A 
HETATM   28  C   UNL     1       2.985  25.028  48.021  1.00  0.00     0.048 C 
HETATM   29  C   UNL     1       4.776  26.699  47.482  1.00  0.00     0.007 A 
HETATM   30  C   UNL     1       5.286  27.995  47.491  1.00  0.00     0.001 A 
HETATM   31  C   UNL     1       4.530  29.045  48.015  1.00  0.00     0.009 A 
ENDBRANCH   1  25
BRANCH  10  32
HETATM   32  C   UNL     1       0.676  30.472  47.503  1.00  0.00     0.294 C 
HETATM   33  O   UNL     1      -0.379  30.856  47.985  1.00  0.00    -0.259 OA
BRANCH  32  34
HETATM   34  O   UNL     1       0.844  29.634  46.467  1.00  0.00    -0.313 OA
BRANCH  34  35
HETATM   35  C   UNL     1      -0.238  28.761  46.061  1.00  0.00     0.124 C 
HETATM   36  C   UNL     1      -0.898  29.235  44.772  1.00  0.00     0.040 C 
HETATM   37  C   UNL     1       0.197  27.298  46.006  1.00  0.00     0.040 C 
ENDBRANCH  34  35
ENDBRANCH  32  34
ENDBRANCH  10  32
TORSDOF 9
ENDMDL
