MODEL 1
REMARK VINA RESULT:      -9.8      0.000      0.000
REMARK  6 active torsions:
REMARK  status: ('A' for Active; 'I' for Inactive)
REMARK    1  A    between atoms: C_2  and  O_3 
REMARK    2  A    between atoms: C_2  and  C_4 
REMARK    3  A    between atoms: C_7  and  N_8 
REMARK       I    between atoms: N_8  and  C_9 
REMARK    4  A    between atoms: C_9  and  C_10 
REMARK    5  A    between atoms: C_15  and  C_16 
REMARK    6  A    between atoms: C_22  and  C_23 
ROOT
HETATM    1  C   UNL     1       8.118  30.799  60.377  1.00  0.00     0.148 A 
HETATM    2  N   UNL     1       9.120  30.045  59.864  1.00  0.00    -0.165 NA
HETATM    3  N   UNL     1       8.823  29.997  58.552  1.00  0.00    -0.240 N 
HETATM    4  C   UNL     1       7.642  30.597  58.224  1.00  0.00     0.123 A 
HETATM    5  N   UNL     1       7.134  30.496  56.980  1.00  0.00    -0.364 N 
HETATM    6  C   UNL     1       7.582  29.472  56.025  1.00  0.00     0.143 C 
HETATM    7  C   UNL     1       8.596  28.496  56.668  1.00  0.00     0.068 C 
HETATM    8  C   UNL     1       9.582  29.201  57.609  1.00  0.00     0.221 C 
HETATM    9  C   UNL     1       7.201  31.206  59.366  1.00  0.00     0.089 A 
HETATM   10  H   UNL     1       6.255  30.950  56.734  1.00  0.00     0.162 HD
ENDROOT
BRANCH   1  11
HETATM   11  C   UNL     1       7.993  31.064  61.823  1.00  0.00     0.276 C 
HETATM   12  N   UNL     1       6.984  31.968  62.095  1.00  0.00    -0.322 N 
HETATM   13  H   UNL     1       6.448  32.236  61.273  1.00  0.00     0.169 HD
HETATM   14  O   UNL     1       8.748  30.541  62.633  1.00  0.00    -0.266 OA
BRANCH  12  15
HETATM   15  C   UNL     1       6.690  32.599  63.315  1.00  0.00     0.035 A 
HETATM   16  C   UNL     1       7.658  33.150  64.156  1.00  0.00     0.030 A 
HETATM   17  C   UNL     1       7.285  33.821  65.326  1.00  0.00     0.012 A 
HETATM   18  C   UNL     1       5.936  33.952  65.680  1.00  0.00    -0.030 A 
HETATM   19  C   UNL     1       4.970  33.370  64.850  1.00  0.00     0.012 A 
HETATM   20  C   UNL     1       5.344  32.707  63.675  1.00  0.00     0.030 A 
BRANCH  18  21
HETATM   21  C   UNL     1       5.552  34.691  66.943  1.00  0.00     0.147 C 
HETATM   22  C   UNL     1       4.335  34.080  67.620  1.00  0.00     0.044 C 
BRANCH  21  23
HETATM   23  O   UNL     1       5.282  36.062  66.654  1.00  0.00    -0.391 OA
HETATM   24  H   UNL     1       5.717  36.262  65.807  1.00  0.00     0.210 HD
ENDBRANCH  21  23
ENDBRANCH  18  21
ENDBRANCH  12  15
ENDBRANCH   1  11
BRANCH   8  25
HETATM   25  C   UNL     1      10.581  30.067  56.876  1.00  0.00     0.409 C 
HETATM   26  F   UNL     1      10.533  31.355  57.279  1.00  0.00    -0.169 F 
HETATM   27  F   UNL     1      11.841  29.628  57.136  1.00  0.00    -0.169 F 
HETATM   28  F   UNL     1      10.438  30.048  55.535  1.00  0.00    -0.169 F 
ENDBRANCH   8  25
BRANCH   6  29
HETATM   29  C   UNL     1       6.440  28.682  55.459  1.00  0.00     0.075 A 
HETATM   30  O   UNL     1       6.477  27.329  55.634  1.00  0.00    -0.325 OA
HETATM   31  C   UNL     1       5.355  26.825  55.058  1.00  0.00     0.142 A 
HETATM   32  C   UNL     1       4.591  27.836  54.520  1.00  0.00     0.027 A 
HETATM   33  C   UNL     1       5.291  29.038  54.779  1.00  0.00     0.037 A 
ENDBRANCH   6  29
TORSDOF 6
ENDMDL
MODEL 2
REMARK VINA RESULT:      -9.7      4.283      6.610
REMARK  6 active torsions:
REMARK  status: ('A' for Active; 'I' for Inactive)
REMARK    1  A    between atoms: C_2  and  O_3 
REMARK    2  A    between atoms: C_2  and  C_4 
REMARK    3  A    between atoms: C_7  and  N_8 
REMARK       I    between atoms: N_8  and  C_9 
REMARK    4  A    between atoms: C_9  and  C_10 
REMARK    5  A    between atoms: C_15  and  C_16 
REMARK    6  A    between atoms: C_22  and  C_23 
ROOT
HETATM    1  C   UNL     1       7.611  27.818  55.447  1.00  0.00     0.148 A 
HETATM    2  N   UNL     1       7.688  27.823  54.094  1.00  0.00    -0.165 NA
HETATM    3  N   UNL     1       7.217  26.608  53.757  1.00  0.00    -0.240 N 
HETATM    4  C   UNL     1       6.938  25.802  54.823  1.00  0.00     0.123 A 
HETATM    5  N   UNL     1       6.609  24.507  54.648  1.00  0.00    -0.364 N 
HETATM    6  C   UNL     1       6.879  23.787  53.396  1.00  0.00     0.143 C 
HETATM    7  C   UNL     1       7.668  24.661  52.392  1.00  0.00     0.068 C 
HETATM    8  C   UNL     1       7.206  26.125  52.391  1.00  0.00     0.221 C 
HETATM    9  C   UNL     1       7.096  26.583  55.935  1.00  0.00     0.089 A 
HETATM   10  H   UNL     1       6.394  23.908  55.445  1.00  0.00     0.162 HD
ENDROOT
BRANCH   1  11
HETATM   11  C   UNL     1       8.096  28.944  56.267  1.00  0.00     0.276 C 
HETATM   12  N   UNL     1       7.429  29.026  57.474  1.00  0.00    -0.322 N 
HETATM   13  H   UNL     1       6.780  28.258  57.631  1.00  0.00     0.169 HD
HETATM   14  O   UNL     1       8.965  29.703  55.855  1.00  0.00    -0.266 OA
BRANCH  12  15
HETATM   15  C   UNL     1       7.480  30.057  58.426  1.00  0.00     0.035 A 
HETATM   16  C   UNL     1       6.557  31.101  58.489  1.00  0.00     0.030 A 
HETATM   17  C   UNL     1       6.634  32.059  59.506  1.00  0.00     0.012 A 
HETATM   18  C   UNL     1       7.639  31.994  60.479  1.00  0.00    -0.030 A 
HETATM   19  C   UNL     1       8.584  30.962  60.393  1.00  0.00     0.012 A 
HETATM   20  C   UNL     1       8.499  30.000  59.381  1.00  0.00     0.030 A 
BRANCH  18  21
HETATM   21  C   UNL     1       7.700  33.032  61.578  1.00  0.00     0.147 C 
HETATM   22  C   UNL     1       8.078  32.427  62.921  1.00  0.00     0.044 C 
BRANCH  21  23
HETATM   23  O   UNL     1       6.442  33.694  61.706  1.00  0.00    -0.391 OA
HETATM   24  H   UNL     1       5.830  33.057  62.116  1.00  0.00     0.210 HD
ENDBRANCH  21  23
ENDBRANCH  18  21
ENDBRANCH  12  15
ENDBRANCH   1  11
BRANCH   8  25
HETATM   25  C   UNL     1       5.836  26.311  51.780  1.00  0.00     0.409 C 
HETATM   26  F   UNL     1       4.870  26.427  52.717  1.00  0.00    -0.169 F 
HETATM   27  F   UNL     1       5.813  27.463  51.059  1.00  0.00    -0.169 F 
HETATM   28  F   UNL     1       5.477  25.323  50.936  1.00  0.00    -0.169 F 
ENDBRANCH   8  25
BRANCH   6  29
HETATM   29  C   UNL     1       7.633  22.510  53.624  1.00  0.00     0.075 A 
HETATM   30  O   UNL     1       8.117  22.295  54.880  1.00  0.00    -0.325 OA
HETATM   31  C   UNL     1       8.747  21.091  54.860  1.00  0.00     0.142 A 
HETATM   32  C   UNL     1       8.670  20.526  53.607  1.00  0.00     0.027 A 
HETATM   33  C   UNL     1       7.949  21.442  52.806  1.00  0.00     0.037 A 
ENDBRANCH   6  29
TORSDOF 6
ENDMDL
MODEL 3
REMARK VINA RESULT:      -9.5      4.092     10.414
REMARK  6 active torsions:
REMARK  status: ('A' for Active; 'I' for Inactive)
REMARK    1  A    between atoms: C_2  and  O_3 
REMARK    2  A    between atoms: C_2  and  C_4 
REMARK    3  A    between atoms: C_7  and  N_8 
REMARK       I    between atoms: N_8  and  C_9 
REMARK    4  A    between atoms: C_9  and  C_10 
REMARK    5  A    between atoms: C_15  and  C_16 
REMARK    6  A    between atoms: C_22  and  C_23 
ROOT
HETATM    1  C   UNL     1       6.430  27.630  57.119  1.00  0.00     0.148 A 
HETATM    2  N   UNL     1       5.328  28.419  57.140  1.00  0.00    -0.165 NA
HETATM    3  N   UNL     1       5.807  29.600  57.573  1.00  0.00    -0.240 N 
HETATM    4  C   UNL     1       7.128  29.575  57.916  1.00  0.00     0.123 A 
HETATM    5  N   UNL     1       7.711  30.633  58.512  1.00  0.00    -0.364 N 
HETATM    6  C   UNL     1       6.935  31.702  59.157  1.00  0.00     0.143 C 
HETATM    7  C   UNL     1       5.420  31.389  59.156  1.00  0.00     0.068 C 
HETATM    8  C   UNL     1       4.951  30.736  57.848  1.00  0.00     0.221 C 
HETATM    9  C   UNL     1       7.587  28.340  57.550  1.00  0.00     0.089 A 
HETATM   10  H   UNL     1       8.699  30.617  58.761  1.00  0.00     0.162 HD
ENDROOT
BRANCH   1  11
HETATM   11  C   UNL     1       6.368  26.199  56.766  1.00  0.00     0.276 C 
HETATM   12  N   UNL     1       7.578  25.733  56.290  1.00  0.00    -0.322 N 
HETATM   13  H   UNL     1       8.324  26.423  56.338  1.00  0.00     0.169 HD
HETATM   14  O   UNL     1       5.326  25.563  56.872  1.00  0.00    -0.266 OA
BRANCH  12  15
HETATM   15  C   UNL     1       7.855  24.494  55.690  1.00  0.00     0.035 A 
HETATM   16  C   UNL     1       7.721  24.247  54.324  1.00  0.00     0.030 A 
HETATM   17  C   UNL     1       8.078  23.005  53.786  1.00  0.00     0.012 A 
HETATM   18  C   UNL     1       8.573  21.984  54.607  1.00  0.00    -0.030 A 
HETATM   19  C   UNL     1       8.676  22.225  55.983  1.00  0.00     0.012 A 
HETATM   20  C   UNL     1       8.327  23.470  56.517  1.00  0.00     0.030 A 
BRANCH  18  21
HETATM   21  C   UNL     1       8.964  20.652  54.007  1.00  0.00     0.147 C 
HETATM   22  C   UNL     1       8.207  20.355  52.721  1.00  0.00     0.044 C 
BRANCH  21  23
HETATM   23  O   UNL     1       8.726  19.597  54.938  1.00  0.00    -0.391 OA
HETATM   24  H   UNL     1       8.332  18.862  54.435  1.00  0.00     0.210 HD
ENDBRANCH  21  23
ENDBRANCH  18  21
ENDBRANCH  12  15
ENDBRANCH   1  11
BRANCH   8  25
HETATM   25  C   UNL     1       4.955  31.692  56.677  1.00  0.00     0.409 C 
HETATM   26  F   UNL     1       5.707  31.238  55.650  1.00  0.00    -0.169 F 
HETATM   27  F   UNL     1       3.691  31.829  56.198  1.00  0.00    -0.169 F 
HETATM   28  F   UNL     1       5.384  32.932  56.988  1.00  0.00    -0.169 F 
ENDBRANCH   8  25
BRANCH   6  29
HETATM   29  C   UNL     1       7.376  31.954  60.569  1.00  0.00     0.075 A 
HETATM   30  O   UNL     1       6.402  31.997  61.523  1.00  0.00    -0.325 OA
HETATM   31  C   UNL     1       7.022  32.223  62.711  1.00  0.00     0.142 A 
HETATM   32  C   UNL     1       8.383  32.320  62.535  1.00  0.00     0.027 A 
HETATM   33  C   UNL     1       8.615  32.146  61.150  1.00  0.00     0.037 A 
ENDBRANCH   6  29
TORSDOF 6
ENDMDL
MODEL 4
REMARK VINA RESULT:      -9.1      2.803      3.706
REMARK  6 active torsions:
REMARK  status: ('A' for Active; 'I' for Inactive)
REMARK    1  A    between atoms: C_2  and  O_3 
REMARK    2  A    between atoms: C_2  and  C_4 
REMARK    3  A    between atoms: C_7  and  N_8 
REMARK       I    between atoms: N_8  and  C_9 
REMARK    4  A    between atoms: C_9  and  C_10 
REMARK    5  A    between atoms: C_15  and  C_16 
REMARK    6  A    between atoms: C_22  and  C_23 
ROOT
HETATM    1  C   UNL     1       8.367  29.547  57.798  1.00  0.00     0.148 A 
HETATM    2  N   UNL     1       7.696  28.398  58.056  1.00  0.00    -0.165 NA
HETATM    3  N   UNL     1       7.658  27.793  56.854  1.00  0.00    -0.240 N 
HETATM    4  C   UNL     1       8.181  28.537  55.836  1.00  0.00     0.123 A 
HETATM    5  N   UNL     1       8.072  28.135  54.555  1.00  0.00    -0.364 N 
HETATM    6  C   UNL     1       7.105  27.114  54.127  1.00  0.00     0.143 C 
HETATM    7  C   UNL     1       6.187  26.673  55.292  1.00  0.00     0.068 C 
HETATM    8  C   UNL     1       6.938  26.556  56.625  1.00  0.00     0.221 C 
HETATM    9  C   UNL     1       8.731  29.641  56.424  1.00  0.00     0.089 A 
HETATM   10  H   UNL     1       8.470  28.688  53.796  1.00  0.00     0.162 HD
ENDROOT
BRANCH   1  11
HETATM   11  C   UNL     1       8.590  30.577  58.830  1.00  0.00     0.276 C 
HETATM   12  N   UNL     1       7.726  30.431  59.898  1.00  0.00    -0.322 N 
HETATM   13  H   UNL     1       7.142  29.600  59.835  1.00  0.00     0.169 HD
HETATM   14  O   UNL     1       9.434  31.453  58.683  1.00  0.00    -0.266 OA
BRANCH  12  15
HETATM   15  C   UNL     1       7.512  31.314  60.968  1.00  0.00     0.035 A 
HETATM   16  C   UNL     1       8.206  31.250  62.177  1.00  0.00     0.030 A 
HETATM   17  C   UNL     1       7.985  32.205  63.176  1.00  0.00     0.012 A 
HETATM   18  C   UNL     1       7.062  33.242  62.987  1.00  0.00    -0.030 A 
HETATM   19  C   UNL     1       6.344  33.283  61.785  1.00  0.00     0.012 A 
HETATM   20  C   UNL     1       6.573  32.333  60.784  1.00  0.00     0.030 A 
BRANCH  18  21
HETATM   21  C   UNL     1       6.845  34.271  64.074  1.00  0.00     0.147 C 
HETATM   22  C   UNL     1       7.204  33.738  65.452  1.00  0.00     0.044 C 
BRANCH  21  23
HETATM   23  O   UNL     1       5.485  34.704  64.085  1.00  0.00    -0.391 OA
HETATM   24  H   UNL     1       5.245  34.851  65.016  1.00  0.00     0.210 HD
ENDBRANCH  21  23
ENDBRANCH  18  21
ENDBRANCH  12  15
ENDBRANCH   1  11
BRANCH   8  25
HETATM   25  C   UNL     1       7.888  25.381  56.667  1.00  0.00     0.409 C 
HETATM   26  F   UNL     1       9.024  25.666  57.340  1.00  0.00    -0.169 F 
HETATM   27  F   UNL     1       7.301  24.345  57.323  1.00  0.00    -0.169 F 
HETATM   28  F   UNL     1       8.235  24.918  55.449  1.00  0.00    -0.169 F 
ENDBRANCH   8  25
BRANCH   6  29
HETATM   29  C   UNL     1       6.249  27.583  52.987  1.00  0.00     0.075 A 
HETATM   30  O   UNL     1       6.155  26.757  51.905  1.00  0.00    -0.325 OA
HETATM   31  C   UNL     1       5.334  27.369  51.012  1.00  0.00     0.142 A 
HETATM   32  C   UNL     1       4.892  28.574  51.507  1.00  0.00     0.027 A 
HETATM   33  C   UNL     1       5.483  28.714  52.785  1.00  0.00     0.037 A 
ENDBRANCH   6  29
TORSDOF 6
ENDMDL
MODEL 5
REMARK VINA RESULT:      -9.0      8.352     12.773
REMARK  6 active torsions:
REMARK  status: ('A' for Active; 'I' for Inactive)
REMARK    1  A    between atoms: C_2  and  O_3 
REMARK    2  A    between atoms: C_2  and  C_4 
REMARK    3  A    between atoms: C_7  and  N_8 
REMARK       I    between atoms: N_8  and  C_9 
REMARK    4  A    between atoms: C_9  and  C_10 
REMARK    5  A    between atoms: C_15  and  C_16 
REMARK    6  A    between atoms: C_22  and  C_23 
ROOT
HETATM    1  C   UNL     1       5.685  27.085  51.691  1.00  0.00     0.148 A 
HETATM    2  N   UNL     1       5.261  27.107  52.978  1.00  0.00    -0.165 NA
HETATM    3  N   UNL     1       6.167  26.337  53.609  1.00  0.00    -0.240 N 
HETATM    4  C   UNL     1       7.080  25.753  52.779  1.00  0.00     0.123 A 
HETATM    5  N   UNL     1       7.950  24.834  53.240  1.00  0.00    -0.364 N 
HETATM    6  C   UNL     1       7.755  24.134  54.518  1.00  0.00     0.143 C 
HETATM    7  C   UNL     1       6.403  24.504  55.172  1.00  0.00     0.068 C 
HETATM    8  C   UNL     1       6.055  25.990  55.012  1.00  0.00     0.221 C 
HETATM    9  C   UNL     1       6.855  26.286  51.540  1.00  0.00     0.089 A 
HETATM   10  H   UNL     1       8.637  24.404  52.621  1.00  0.00     0.162 HD
ENDROOT
BRANCH   1  11
HETATM   11  C   UNL     1       4.941  27.752  50.606  1.00  0.00     0.276 C 
HETATM   12  N   UNL     1       3.841  27.017  50.208  1.00  0.00    -0.322 N 
HETATM   13  H   UNL     1       3.681  26.189  50.777  1.00  0.00     0.169 HD
HETATM   14  O   UNL     1       5.325  28.815  50.131  1.00  0.00    -0.266 OA
BRANCH  12  15
HETATM   15  C   UNL     1       3.010  27.231  49.097  1.00  0.00     0.035 A 
HETATM   16  C   UNL     1       2.994  26.408  47.970  1.00  0.00     0.030 A 
HETATM   17  C   UNL     1       2.092  26.646  46.927  1.00  0.00     0.012 A 
HETATM   18  C   UNL     1       1.189  27.715  46.989  1.00  0.00    -0.030 A 
HETATM   19  C   UNL     1       1.230  28.559  48.107  1.00  0.00     0.012 A 
HETATM   20  C   UNL     1       2.126  28.313  49.153  1.00  0.00     0.030 A 
BRANCH  18  21
HETATM   21  C   UNL     1       0.214  27.950  45.857  1.00  0.00     0.147 C 
HETATM   22  C   UNL     1      -1.136  28.447  46.353  1.00  0.00     0.044 C 
BRANCH  21  23
HETATM   23  O   UNL     1       0.018  26.748  45.111  1.00  0.00    -0.391 OA
HETATM   24  H   UNL     1      -0.672  26.241  45.573  1.00  0.00     0.210 HD
ENDBRANCH  21  23
ENDBRANCH  18  21
ENDBRANCH  12  15
ENDBRANCH   1  11
BRANCH   8  25
HETATM   25  C   UNL     1       6.932  26.895  55.847  1.00  0.00     0.409 C 
HETATM   26  F   UNL     1       7.680  26.205  56.735  1.00  0.00    -0.169 F 
HETATM   27  F   UNL     1       7.805  27.554  55.039  1.00  0.00    -0.169 F 
HETATM   28  F   UNL     1       6.250  27.839  56.526  1.00  0.00    -0.169 F 
ENDBRANCH   8  25
BRANCH   6  29
HETATM   29  C   UNL     1       7.828  22.643  54.367  1.00  0.00     0.075 A 
HETATM   30  O   UNL     1       7.756  21.902  55.510  1.00  0.00    -0.325 OA
HETATM   31  C   UNL     1       7.831  20.596  55.140  1.00  0.00     0.142 A 
HETATM   32  C   UNL     1       7.943  20.487  53.773  1.00  0.00     0.027 A 
HETATM   33  C   UNL     1       7.941  21.809  53.271  1.00  0.00     0.037 A 
ENDBRANCH   6  29
TORSDOF 6
ENDMDL
MODEL 6
REMARK VINA RESULT:      -8.9      4.070      6.436
REMARK  6 active torsions:
REMARK  status: ('A' for Active; 'I' for Inactive)
REMARK    1  A    between atoms: C_2  and  O_3 
REMARK    2  A    between atoms: C_2  and  C_4 
REMARK    3  A    between atoms: C_7  and  N_8 
REMARK       I    between atoms: N_8  and  C_9 
REMARK    4  A    between atoms: C_9  and  C_10 
REMARK    5  A    between atoms: C_15  and  C_16 
REMARK    6  A    between atoms: C_22  and  C_23 
ROOT
HETATM    1  C   UNL     1       7.191  27.019  55.733  1.00  0.00     0.148 A 
HETATM    2  N   UNL     1       6.802  25.740  55.507  1.00  0.00    -0.165 NA
HETATM    3  N   UNL     1       6.761  25.668  54.163  1.00  0.00    -0.240 N 
HETATM    4  C   UNL     1       7.009  26.852  53.531  1.00  0.00     0.123 A 
HETATM    5  N   UNL     1       6.851  26.976  52.200  1.00  0.00    -0.364 N 
HETATM    6  C   UNL     1       6.074  26.014  51.404  1.00  0.00     0.143 C 
HETATM    7  C   UNL     1       5.395  24.949  52.299  1.00  0.00     0.068 C 
HETATM    8  C   UNL     1       6.291  24.492  53.458  1.00  0.00     0.221 C 
HETATM    9  C   UNL     1       7.381  27.729  54.513  1.00  0.00     0.089 A 
HETATM   10  H   UNL     1       7.044  27.859  51.728  1.00  0.00     0.162 HD
ENDROOT
BRANCH   1  11
HETATM   11  C   UNL     1       7.306  27.578  57.093  1.00  0.00     0.276 C 
HETATM   12  N   UNL     1       7.092  28.942  57.108  1.00  0.00    -0.322 N 
HETATM   13  H   UNL     1       6.815  29.319  56.204  1.00  0.00     0.169 HD
HETATM   14  O   UNL     1       7.594  26.869  58.050  1.00  0.00    -0.266 OA
BRANCH  12  15
HETATM   15  C   UNL     1       7.297  29.841  58.167  1.00  0.00     0.035 A 
HETATM   16  C   UNL     1       8.399  29.795  59.022  1.00  0.00     0.030 A 
HETATM   17  C   UNL     1       8.570  30.764  60.017  1.00  0.00     0.012 A 
HETATM   18  C   UNL     1       7.638  31.798  60.179  1.00  0.00    -0.030 A 
HETATM   19  C   UNL     1       6.516  31.822  59.341  1.00  0.00     0.012 A 
HETATM   20  C   UNL     1       6.353  30.857  58.340  1.00  0.00     0.030 A 
BRANCH  18  21
HETATM   21  C   UNL     1       7.845  32.843  61.253  1.00  0.00     0.147 C 
HETATM   22  C   UNL     1       8.406  32.247  62.536  1.00  0.00     0.044 C 
BRANCH  21  23
HETATM   23  O   UNL     1       6.615  33.502  61.549  1.00  0.00    -0.391 OA
HETATM   24  H   UNL     1       5.926  33.063  61.020  1.00  0.00     0.210 HD
ENDBRANCH  21  23
ENDBRANCH  18  21
ENDBRANCH  12  15
ENDBRANCH   1  11
BRANCH   8  25
HETATM   25  C   UNL     1       7.461  23.650  53.004  1.00  0.00     0.409 C 
HETATM   26  F   UNL     1       7.958  24.064  51.818  1.00  0.00    -0.169 F 
HETATM   27  F   UNL     1       8.474  23.756  53.904  1.00  0.00    -0.169 F 
HETATM   28  F   UNL     1       7.177  22.336  52.898  1.00  0.00    -0.169 F 
ENDBRANCH   8  25
BRANCH   6  29
HETATM   29  C   UNL     1       5.024  26.683  50.567  1.00  0.00     0.075 A 
HETATM   30  O   UNL     1       4.497  27.845  51.049  1.00  0.00    -0.325 OA
HETATM   31  C   UNL     1       3.587  28.274  50.136  1.00  0.00     0.142 A 
HETATM   32  C   UNL     1       3.526  27.409  49.069  1.00  0.00     0.027 A 
HETATM   33  C   UNL     1       4.456  26.379  49.345  1.00  0.00     0.037 A 
ENDBRANCH   6  29
TORSDOF 6
ENDMDL
MODEL 7
REMARK VINA RESULT:      -8.8     10.009     11.937
REMARK  6 active torsions:
REMARK  status: ('A' for Active; 'I' for Inactive)
REMARK    1  A    between atoms: C_2  and  O_3 
REMARK    2  A    between atoms: C_2  and  C_4 
REMARK    3  A    between atoms: C_7  and  N_8 
REMARK       I    between atoms: N_8  and  C_9 
REMARK    4  A    between atoms: C_9  and  C_10 
REMARK    5  A    between atoms: C_15  and  C_16 
REMARK    6  A    between atoms: C_22  and  C_23 
ROOT
HETATM    1  C   UNL     1       5.318  26.602  51.920  1.00  0.00     0.148 A 
HETATM    2  N   UNL     1       4.753  26.584  50.688  1.00  0.00    -0.165 NA
HETATM    3  N   UNL     1       4.836  27.869  50.296  1.00  0.00    -0.240 N 
HETATM    4  C   UNL     1       5.333  28.713  51.248  1.00  0.00     0.123 A 
HETATM    5  N   UNL     1       5.330  30.047  51.063  1.00  0.00    -0.364 N 
HETATM    6  C   UNL     1       4.493  30.702  50.048  1.00  0.00     0.143 C 
HETATM    7  C   UNL     1       3.567  29.690  49.332  1.00  0.00     0.068 C 
HETATM    8  C   UNL     1       4.256  28.347  49.057  1.00  0.00     0.221 C 
HETATM    9  C   UNL     1       5.740  27.914  52.281  1.00  0.00     0.089 A 
HETATM   10  H   UNL     1       5.708  30.675  51.771  1.00  0.00     0.162 HD
ENDROOT
BRANCH   1  11
HETATM   11  C   UNL     1       5.384  25.401  52.774  1.00  0.00     0.276 C 
HETATM   12  N   UNL     1       6.687  25.031  53.041  1.00  0.00    -0.322 N 
HETATM   13  H   UNL     1       7.376  25.685  52.679  1.00  0.00     0.169 HD
HETATM   14  O   UNL     1       4.366  24.825  53.140  1.00  0.00    -0.266 OA
BRANCH  12  15
HETATM   15  C   UNL     1       7.146  23.853  53.654  1.00  0.00     0.035 A 
HETATM   16  C   UNL     1       7.087  23.620  55.028  1.00  0.00     0.030 A 
HETATM   17  C   UNL     1       7.505  22.395  55.561  1.00  0.00     0.012 A 
HETATM   18  C   UNL     1       7.994  21.380  54.729  1.00  0.00    -0.030 A 
HETATM   19  C   UNL     1       8.083  21.630  53.353  1.00  0.00     0.012 A 
HETATM   20  C   UNL     1       7.655  22.852  52.822  1.00  0.00     0.030 A 
BRANCH  18  21
HETATM   21  C   UNL     1       8.431  20.059  55.322  1.00  0.00     0.147 C 
HETATM   22  C   UNL     1       9.286  20.241  56.567  1.00  0.00     0.044 C 
BRANCH  21  23
HETATM   23  O   UNL     1       9.167  19.301  54.362  1.00  0.00    -0.391 OA
HETATM   24  H   UNL     1       8.560  18.626  54.012  1.00  0.00     0.210 HD
ENDBRANCH  21  23
ENDBRANCH  18  21
ENDBRANCH  12  15
ENDBRANCH   1  11
BRANCH   8  25
HETATM   25  C   UNL     1       5.316  28.437  47.983  1.00  0.00     0.409 C 
HETATM   26  F   UNL     1       5.427  27.290  47.277  1.00  0.00    -0.169 F 
HETATM   27  F   UNL     1       4.979  29.407  47.092  1.00  0.00    -0.169 F 
HETATM   28  F   UNL     1       6.540  28.754  48.451  1.00  0.00    -0.169 F 
ENDBRANCH   8  25
BRANCH   6  29
HETATM   29  C   UNL     1       3.654  31.803  50.625  1.00  0.00     0.075 A 
HETATM   30  O   UNL     1       2.707  31.444  51.539  1.00  0.00    -0.325 OA
HETATM   31  C   UNL     1       2.082  32.586  51.930  1.00  0.00     0.142 A 
HETATM   32  C   UNL     1       2.619  33.676  51.284  1.00  0.00     0.027 A 
HETATM   33  C   UNL     1       3.636  33.172  50.440  1.00  0.00     0.037 A 
ENDBRANCH   6  29
TORSDOF 6
ENDMDL
MODEL 8
REMARK VINA RESULT:      -8.7     10.139     12.025
REMARK  6 active torsions:
REMARK  status: ('A' for Active; 'I' for Inactive)
REMARK    1  A    between atoms: C_2  and  O_3 
REMARK    2  A    between atoms: C_2  and  C_4 
REMARK    3  A    between atoms: C_7  and  N_8 
REMARK       I    between atoms: N_8  and  C_9 
REMARK    4  A    between atoms: C_9  and  C_10 
REMARK    5  A    between atoms: C_15  and  C_16 
REMARK    6  A    between atoms: C_22  and  C_23 
ROOT
HETATM    1  C   UNL     1       5.473  27.347  51.226  1.00  0.00     0.148 A 
HETATM    2  N   UNL     1       4.637  26.536  50.534  1.00  0.00    -0.165 NA
HETATM    3  N   UNL     1       4.010  27.386  49.699  1.00  0.00    -0.240 N 
HETATM    4  C   UNL     1       4.333  28.698  49.891  1.00  0.00     0.123 A 
HETATM    5  N   UNL     1       3.674  29.678  49.243  1.00  0.00    -0.364 N 
HETATM    6  C   UNL     1       2.370  29.460  48.599  1.00  0.00     0.143 C 
HETATM    7  C   UNL     1       1.833  28.034  48.865  1.00  0.00     0.068 C 
HETATM    8  C   UNL     1       2.935  26.968  48.821  1.00  0.00     0.221 C 
HETATM    9  C   UNL     1       5.345  28.704  50.811  1.00  0.00     0.089 A 
HETATM   10  H   UNL     1       3.921  30.657  49.382  1.00  0.00     0.162 HD
ENDROOT
BRANCH   1  11
HETATM   11  C   UNL     1       6.326  26.849  52.321  1.00  0.00     0.276 C 
HETATM   12  N   UNL     1       6.333  25.469  52.381  1.00  0.00    -0.322 N 
HETATM   13  H   UNL     1       5.821  25.028  51.620  1.00  0.00     0.169 HD
HETATM   14  O   UNL     1       6.906  27.620  53.077  1.00  0.00    -0.266 OA
BRANCH  12  15
HETATM   15  C   UNL     1       6.869  24.647  53.385  1.00  0.00     0.035 A 
HETATM   16  C   UNL     1       6.474  24.697  54.722  1.00  0.00     0.030 A 
HETATM   17  C   UNL     1       7.006  23.801  55.657  1.00  0.00     0.012 A 
HETATM   18  C   UNL     1       7.948  22.839  55.272  1.00  0.00    -0.030 A 
HETATM   19  C   UNL     1       8.367  22.813  53.935  1.00  0.00     0.012 A 
HETATM   20  C   UNL     1       7.826  23.703  53.001  1.00  0.00     0.030 A 
BRANCH  18  21
HETATM   21  C   UNL     1       8.504  21.872  56.294  1.00  0.00     0.147 C 
HETATM   22  C   UNL     1       7.902  20.481  56.158  1.00  0.00     0.044 C 
BRANCH  21  23
HETATM   23  O   UNL     1       8.264  22.353  57.616  1.00  0.00    -0.391 OA
HETATM   24  H   UNL     1       7.632  21.738  58.028  1.00  0.00     0.210 HD
ENDBRANCH  21  23
ENDBRANCH  18  21
ENDBRANCH  12  15
ENDBRANCH   1  11
BRANCH   8  25
HETATM   25  C   UNL     1       3.464  26.723  47.426  1.00  0.00     0.409 C 
HETATM   26  F   UNL     1       4.608  27.399  47.187  1.00  0.00    -0.169 F 
HETATM   27  F   UNL     1       3.758  25.404  47.277  1.00  0.00    -0.169 F 
HETATM   28  F   UNL     1       2.588  27.034  46.450  1.00  0.00    -0.169 F 
ENDBRANCH   8  25
BRANCH   6  29
HETATM   29  C   UNL     1       1.341  30.457  49.046  1.00  0.00     0.075 A 
HETATM   30  O   UNL     1       0.376  30.795  48.143  1.00  0.00    -0.325 OA
HETATM   31  C   UNL     1      -0.442  31.691  48.757  1.00  0.00     0.142 A 
HETATM   32  C   UNL     1      -0.020  31.928  50.044  1.00  0.00     0.027 A 
HETATM   33  C   UNL     1       1.133  31.131  50.234  1.00  0.00     0.037 A 
ENDBRANCH   6  29
TORSDOF 6
ENDMDL
MODEL 9
REMARK VINA RESULT:      -8.7      6.303     12.896
REMARK  6 active torsions:
REMARK  status: ('A' for Active; 'I' for Inactive)
REMARK    1  A    between atoms: C_2  and  O_3 
REMARK    2  A    between atoms: C_2  and  C_4 
REMARK    3  A    between atoms: C_7  and  N_8 
REMARK       I    between atoms: N_8  and  C_9 
REMARK    4  A    between atoms: C_9  and  C_10 
REMARK    5  A    between atoms: C_15  and  C_16 
REMARK    6  A    between atoms: C_22  and  C_23 
ROOT
HETATM    1  C   UNL     1       4.855  27.359  51.408  1.00  0.00     0.148 A 
HETATM    2  N   UNL     1       6.028  26.707  51.597  1.00  0.00    -0.165 NA
HETATM    3  N   UNL     1       6.093  26.580  52.936  1.00  0.00    -0.240 N 
HETATM    4  C   UNL     1       5.076  27.197  53.606  1.00  0.00     0.123 A 
HETATM    5  N   UNL     1       5.087  27.292  54.950  1.00  0.00    -0.364 N 
HETATM    6  C   UNL     1       6.307  27.092  55.746  1.00  0.00     0.143 C 
HETATM    7  C   UNL     1       7.548  26.881  54.846  1.00  0.00     0.068 C 
HETATM    8  C   UNL     1       7.246  26.020  53.612  1.00  0.00     0.221 C 
HETATM    9  C   UNL     1       4.207  27.636  52.646  1.00  0.00     0.089 A 
HETATM   10  H   UNL     1       4.324  27.747  55.450  1.00  0.00     0.162 HD
ENDROOT
BRANCH   1  11
HETATM   11  C   UNL     1       4.396  27.782  50.072  1.00  0.00     0.276 C 
HETATM   12  N   UNL     1       3.027  27.656  49.934  1.00  0.00    -0.322 N 
HETATM   13  H   UNL     1       2.558  27.375  50.792  1.00  0.00     0.169 HD
HETATM   14  O   UNL     1       5.188  28.156  49.216  1.00  0.00    -0.266 OA
BRANCH  12  15
HETATM   15  C   UNL     1       2.257  27.781  48.767  1.00  0.00     0.035 A 
HETATM   16  C   UNL     1       2.053  26.743  47.857  1.00  0.00     0.030 A 
HETATM   17  C   UNL     1       1.220  26.922  46.747  1.00  0.00     0.012 A 
HETATM   18  C   UNL     1       0.576  28.145  46.523  1.00  0.00    -0.030 A 
HETATM   19  C   UNL     1       0.809  29.196  47.421  1.00  0.00     0.012 A 
HETATM   20  C   UNL     1       1.635  29.011  48.535  1.00  0.00     0.030 A 
BRANCH  18  21
HETATM   21  C   UNL     1      -0.330  28.316  45.324  1.00  0.00     0.147 C 
HETATM   22  C   UNL     1      -1.658  28.959  45.693  1.00  0.00     0.044 C 
BRANCH  21  23
HETATM   23  O   UNL     1      -0.583  27.054  44.707  1.00  0.00    -0.391 OA
HETATM   24  H   UNL     1       0.278  26.708  44.414  1.00  0.00     0.210 HD
ENDBRANCH  21  23
ENDBRANCH  18  21
ENDBRANCH  12  15
ENDBRANCH   1  11
BRANCH   8  25
HETATM   25  C   UNL     1       7.000  24.568  53.952  1.00  0.00     0.409 C 
HETATM   26  F   UNL     1       5.684  24.267  53.990  1.00  0.00    -0.169 F 
HETATM   27  F   UNL     1       7.548  23.777  52.991  1.00  0.00    -0.169 F 
HETATM   28  F   UNL     1       7.546  24.183  55.123  1.00  0.00    -0.169 F 
ENDBRANCH   8  25
BRANCH   6  29
HETATM   29  C   UNL     1       6.573  28.236  56.678  1.00  0.00     0.075 A 
HETATM   30  O   UNL     1       7.704  28.165  57.436  1.00  0.00    -0.325 OA
HETATM   31  C   UNL     1       7.747  29.297  58.188  1.00  0.00     0.142 A 
HETATM   32  C   UNL     1       6.662  30.098  57.919  1.00  0.00     0.027 A 
HETATM   33  C   UNL     1       5.901  29.415  56.942  1.00  0.00     0.037 A 
ENDBRANCH   6  29
TORSDOF 6
ENDMDL
MODEL 10
REMARK VINA RESULT:      -8.6      6.570     12.909
REMARK  6 active torsions:
REMARK  status: ('A' for Active; 'I' for Inactive)
REMARK    1  A    between atoms: C_2  and  O_3 
REMARK    2  A    between atoms: C_2  and  C_4 
REMARK    3  A    between atoms: C_7  and  N_8 
REMARK       I    between atoms: N_8  and  C_9 
REMARK    4  A    between atoms: C_9  and  C_10 
REMARK    5  A    between atoms: C_15  and  C_16 
REMARK    6  A    between atoms: C_22  and  C_23 
ROOT
HETATM    1  C   UNL     1       4.828  27.153  51.254  1.00  0.00     0.148 A 
HETATM    2  N   UNL     1       5.989  26.456  51.325  1.00  0.00    -0.165 NA
HETATM    3  N   UNL     1       6.120  26.218  52.644  1.00  0.00    -0.240 N 
HETATM    4  C   UNL     1       5.160  26.806  53.416  1.00  0.00     0.123 A 
HETATM    5  N   UNL     1       5.245  26.791  54.760  1.00  0.00    -0.364 N 
HETATM    6  C   UNL     1       6.498  26.494  55.469  1.00  0.00     0.143 C 
HETATM    7  C   UNL     1       7.683  26.324  54.488  1.00  0.00     0.068 C 
HETATM    8  C   UNL     1       7.289  25.574  53.209  1.00  0.00     0.221 C 
HETATM    9  C   UNL     1       4.256  27.345  52.544  1.00  0.00     0.089 A 
HETATM   10  H   UNL     1       4.524  27.225  55.336  1.00  0.00     0.162 HD
ENDROOT
BRANCH   1  11
HETATM   11  C   UNL     1       4.313  27.695  49.983  1.00  0.00     0.276 C 
HETATM   12  N   UNL     1       2.939  27.832  50.001  1.00  0.00    -0.322 N 
HETATM   13  H   UNL     1       2.522  27.616  50.904  1.00  0.00     0.169 HD
HETATM   14  O   UNL     1       5.063  27.941  49.045  1.00  0.00    -0.266 OA
BRANCH  12  15
HETATM   15  C   UNL     1       2.082  28.135  48.930  1.00  0.00     0.035 A 
HETATM   16  C   UNL     1       1.607  29.418  48.656  1.00  0.00     0.030 A 
HETATM   17  C   UNL     1       0.808  29.656  47.532  1.00  0.00     0.012 A 
HETATM   18  C   UNL     1       0.464  28.613  46.662  1.00  0.00    -0.030 A 
HETATM   19  C   UNL     1       0.916  27.321  46.959  1.00  0.00     0.012 A 
HETATM   20  C   UNL     1       1.723  27.087  48.077  1.00  0.00     0.030 A 
BRANCH  18  21
HETATM   21  C   UNL     1      -0.391  28.892  45.446  1.00  0.00     0.147 C 
HETATM   22  C   UNL     1      -1.838  29.186  45.815  1.00  0.00     0.044 C 
BRANCH  21  23
HETATM   23  O   UNL     1      -0.359  27.782  44.550  1.00  0.00    -0.391 OA
HETATM   24  H   UNL     1       0.516  27.790  44.125  1.00  0.00     0.210 HD
ENDBRANCH  21  23
ENDBRANCH  18  21
ENDBRANCH  12  15
ENDBRANCH   1  11
BRANCH   8  25
HETATM   25  C   UNL     1       7.016  24.106  53.444  1.00  0.00     0.409 C 
HETATM   26  F   UNL     1       5.878  23.695  52.844  1.00  0.00    -0.169 F 
HETATM   27  F   UNL     1       8.023  23.365  52.910  1.00  0.00    -0.169 F 
HETATM   28  F   UNL     1       6.942  23.769  54.748  1.00  0.00    -0.169 F 
ENDBRANCH   8  25
BRANCH   6  29
HETATM   29  C   UNL     1       6.849  27.551  56.474  1.00  0.00     0.075 A 
HETATM   30  O   UNL     1       6.000  28.614  56.575  1.00  0.00    -0.325 OA
HETATM   31  C   UNL     1       6.501  29.429  57.540  1.00  0.00     0.142 A 
HETATM   32  C   UNL     1       7.658  28.903  58.065  1.00  0.00     0.027 A 
HETATM   33  C   UNL     1       7.885  27.688  57.378  1.00  0.00     0.037 A 
ENDBRANCH   6  29
TORSDOF 6
ENDMDL
