MODEL 1
REMARK VINA RESULT:      -8.8      0.000      0.000
REMARK  5 active torsions:
REMARK  status: ('A' for Active; 'I' for Inactive)
REMARK    1  A    between atoms: C_5  and  C_6 
REMARK       I    between atoms: C_6  and  N_7 
REMARK    2  A    between atoms: N_7  and  C_8 
REMARK    3  A    between atoms: C_8  and  C_9 
REMARK    4  A    between atoms: C_11  and  N_12 
REMARK    5  A    between atoms: N_12  and  C_13 
ROOT
HETATM    1  C   UNL     1       7.262  27.717  57.428  1.00  0.00     0.161 C 
ENDROOT
BRANCH   1   2
HETATM    2  N   UNL     1       7.548  26.935  56.248  1.00  0.00    -0.353 N 
HETATM    3  C   UNL     1       6.707  25.934  55.812  1.00  0.00     0.255 C 
HETATM    4  O   UNL     1       5.631  25.703  56.356  1.00  0.00    -0.268 OA
HETATM    5  H   UNL     1       8.443  27.062  55.788  1.00  0.00     0.163 HD
BRANCH   3   6
HETATM    6  C   UNL     1       7.137  25.130  54.632  1.00  0.00     0.071 A 
HETATM    7  C   UNL     1       7.257  23.737  54.661  1.00  0.00     0.138 A 
HETATM    8  C   UNL     1       7.656  23.017  53.529  1.00  0.00    -0.022 A 
HETATM    9  F   UNL     1       6.994  23.058  55.792  1.00  0.00    -0.204 F 
HETATM   10  C   UNL     1       7.809  21.525  53.583  1.00  0.00     0.051 C 
HETATM   11  C   UNL     1       7.969  23.715  52.356  1.00  0.00     0.010 A 
HETATM   12  C   UNL     1       7.857  25.105  52.313  1.00  0.00     0.002 A 
HETATM   13  C   UNL     1       7.440  25.810  53.443  1.00  0.00     0.020 A 
ENDBRANCH   3   6
ENDBRANCH   1   2
BRANCH   1  14
HETATM   14  C   UNL     1       8.327  28.764  57.655  1.00  0.00    -0.036 A 
HETATM   15  C   UNL     1       8.123  29.784  58.595  1.00  0.00     0.057 A 
HETATM   16  C   UNL     1       9.075  30.789  58.768  1.00  0.00     0.101 A 
HETATM   17  N   UNL     1      10.164  30.771  57.987  1.00  0.00    -0.353 N 
HETATM   18  H   UNL     1      10.815  31.544  58.088  1.00  0.00     0.166 HD
HETATM   19  C   UNL     1      10.403  29.818  57.075  1.00  0.00     0.090 A 
HETATM   20  C   UNL     1       9.491  28.789  56.888  1.00  0.00     0.026 A 
BRANCH  16  21
HETATM   21  N   UNL     1       8.844  31.859  59.641  1.00  0.00    -0.372 N 
HETATM   22  H   UNL     1       7.876  32.186  59.595  1.00  0.00     0.161 HD
BRANCH  21  23
HETATM   23  C   UNL     1       9.473  31.940  60.958  1.00  0.00     0.083 A 
HETATM   24  C   UNL     1       8.656  32.002  62.217  1.00  0.00     0.027 A 
HETATM   25  C   UNL     1       9.413  30.752  61.875  1.00  0.00     0.027 A 
ENDBRANCH  21  23
ENDBRANCH  16  21
ENDBRANCH   1  14
TORSDOF 5
ENDMDL
MODEL 2
REMARK VINA RESULT:      -8.7      3.237      5.636
REMARK  5 active torsions:
REMARK  status: ('A' for Active; 'I' for Inactive)
REMARK    1  A    between atoms: C_5  and  C_6 
REMARK       I    between atoms: C_6  and  N_7 
REMARK    2  A    between atoms: N_7  and  C_8 
REMARK    3  A    between atoms: C_8  and  C_9 
REMARK    4  A    between atoms: C_11  and  N_12 
REMARK    5  A    between atoms: N_12  and  C_13 
ROOT
HETATM    1  C   UNL     1       7.218  25.993  57.757  1.00  0.00     0.161 C 
ENDROOT
BRANCH   1   2
HETATM    2  N   UNL     1       7.244  24.676  57.167  1.00  0.00    -0.353 N 
HETATM    3  C   UNL     1       8.423  23.998  56.939  1.00  0.00     0.255 C 
HETATM    4  O   UNL     1       9.509  24.445  57.296  1.00  0.00    -0.268 OA
HETATM    5  H   UNL     1       6.375  24.283  56.820  1.00  0.00     0.163 HD
BRANCH   3   6
HETATM    6  C   UNL     1       8.344  22.681  56.248  1.00  0.00     0.071 A 
HETATM    7  C   UNL     1       8.224  22.553  54.860  1.00  0.00     0.138 A 
HETATM    8  C   UNL     1       8.162  21.296  54.247  1.00  0.00    -0.022 A 
HETATM    9  F   UNL     1       8.161  23.648  54.083  1.00  0.00    -0.204 F 
HETATM   10  C   UNL     1       8.004  21.175  52.760  1.00  0.00     0.051 C 
HETATM   11  C   UNL     1       8.191  20.148  55.048  1.00  0.00     0.010 A 
HETATM   12  C   UNL     1       8.307  20.259  56.434  1.00  0.00     0.002 A 
HETATM   13  C   UNL     1       8.387  21.518  57.032  1.00  0.00     0.020 A 
ENDBRANCH   3   6
ENDBRANCH   1   2
BRANCH   1  14
HETATM   14  C   UNL     1       7.478  27.058  56.717  1.00  0.00    -0.036 A 
HETATM   15  C   UNL     1       6.944  26.928  55.428  1.00  0.00     0.057 A 
HETATM   16  C   UNL     1       7.229  27.876  54.443  1.00  0.00     0.101 A 
HETATM   17  N   UNL     1       8.054  28.885  54.757  1.00  0.00    -0.353 N 
HETATM   18  H   UNL     1       8.295  29.529  54.010  1.00  0.00     0.166 HD
HETATM   19  C   UNL     1       8.589  29.051  55.974  1.00  0.00     0.090 A 
HETATM   20  C   UNL     1       8.313  28.142  56.986  1.00  0.00     0.026 A 
BRANCH  16  21
HETATM   21  N   UNL     1       6.772  27.712  53.130  1.00  0.00    -0.372 N 
HETATM   22  H   UNL     1       7.427  28.099  52.447  1.00  0.00     0.161 HD
BRANCH  21  23
HETATM   23  C   UNL     1       6.049  26.516  52.701  1.00  0.00     0.083 A 
HETATM   24  C   UNL     1       5.634  26.320  51.270  1.00  0.00     0.027 A 
HETATM   25  C   UNL     1       6.751  25.500  51.845  1.00  0.00     0.027 A 
ENDBRANCH  21  23
ENDBRANCH  16  21
ENDBRANCH   1  14
TORSDOF 5
ENDMDL
MODEL 3
REMARK VINA RESULT:      -8.7      2.597      3.969
REMARK  5 active torsions:
REMARK  status: ('A' for Active; 'I' for Inactive)
REMARK    1  A    between atoms: C_5  and  C_6 
REMARK       I    between atoms: C_6  and  N_7 
REMARK    2  A    between atoms: N_7  and  C_8 
REMARK    3  A    between atoms: C_8  and  C_9 
REMARK    4  A    between atoms: C_11  and  N_12 
REMARK    5  A    between atoms: N_12  and  C_13 
ROOT
HETATM    1  C   UNL     1       5.723  26.361  54.044  1.00  0.00     0.161 C 
ENDROOT
BRANCH   1   2
HETATM    2  N   UNL     1       6.169  25.010  54.283  1.00  0.00    -0.353 N 
HETATM    3  C   UNL     1       7.312  24.502  53.702  1.00  0.00     0.255 C 
HETATM    4  O   UNL     1       8.054  25.195  53.011  1.00  0.00    -0.268 OA
HETATM    5  H   UNL     1       5.569  24.387  54.814  1.00  0.00     0.163 HD
BRANCH   3   6
HETATM    6  C   UNL     1       7.638  23.069  53.946  1.00  0.00     0.071 A 
HETATM    7  C   UNL     1       7.803  22.531  55.227  1.00  0.00     0.138 A 
HETATM    8  C   UNL     1       8.100  21.176  55.416  1.00  0.00    -0.022 A 
HETATM    9  F   UNL     1       7.682  23.317  56.311  1.00  0.00    -0.204 F 
HETATM   10  C   UNL     1       8.303  20.620  56.795  1.00  0.00     0.051 C 
HETATM   11  C   UNL     1       8.264  20.355  54.294  1.00  0.00     0.010 A 
HETATM   12  C   UNL     1       8.106  20.877  53.010  1.00  0.00     0.002 A 
HETATM   13  C   UNL     1       7.792  22.226  52.835  1.00  0.00     0.020 A 
ENDBRANCH   3   6
ENDBRANCH   1   2
BRANCH   1  14
HETATM   14  C   UNL     1       5.961  27.232  55.255  1.00  0.00    -0.036 A 
HETATM   15  C   UNL     1       7.266  27.469  55.707  1.00  0.00     0.057 A 
HETATM   16  C   UNL     1       7.492  28.222  56.861  1.00  0.00     0.101 A 
HETATM   17  N   UNL     1       6.428  28.676  57.538  1.00  0.00    -0.353 N 
HETATM   18  H   UNL     1       6.613  29.171  58.405  1.00  0.00     0.166 HD
HETATM   19  C   UNL     1       5.163  28.475  57.147  1.00  0.00     0.090 A 
HETATM   20  C   UNL     1       4.897  27.750  55.994  1.00  0.00     0.026 A 
BRANCH  16  21
HETATM   21  N   UNL     1       8.785  28.393  57.369  1.00  0.00    -0.372 N 
HETATM   22  H   UNL     1       9.326  27.526  57.335  1.00  0.00     0.161 HD
BRANCH  21  23
HETATM   23  C   UNL     1       9.551  29.620  57.154  1.00  0.00     0.083 A 
HETATM   24  C   UNL     1      11.053  29.615  57.128  1.00  0.00     0.027 A 
HETATM   25  C   UNL     1      10.282  29.812  55.856  1.00  0.00     0.027 A 
ENDBRANCH  21  23
ENDBRANCH  16  21
ENDBRANCH   1  14
TORSDOF 5
ENDMDL
MODEL 4
REMARK VINA RESULT:      -8.6      4.768      7.575
REMARK  5 active torsions:
REMARK  status: ('A' for Active; 'I' for Inactive)
REMARK    1  A    between atoms: C_5  and  C_6 
REMARK       I    between atoms: C_6  and  N_7 
REMARK    2  A    between atoms: N_7  and  C_8 
REMARK    3  A    between atoms: C_8  and  C_9 
REMARK    4  A    between atoms: C_11  and  N_12 
REMARK    5  A    between atoms: N_12  and  C_13 
ROOT
HETATM    1  C   UNL     1       7.062  26.693  54.835  1.00  0.00     0.161 C 
ENDROOT
BRANCH   1   2
HETATM    2  N   UNL     1       7.522  25.329  54.730  1.00  0.00    -0.353 N 
HETATM    3  C   UNL     1       7.020  24.323  55.529  1.00  0.00     0.255 C 
HETATM    4  O   UNL     1       6.101  24.517  56.319  1.00  0.00    -0.268 OA
HETATM    5  H   UNL     1       8.307  25.127  54.120  1.00  0.00     0.163 HD
BRANCH   3   6
HETATM    6  C   UNL     1       7.623  22.967  55.400  1.00  0.00     0.071 A 
HETATM    7  C   UNL     1       7.715  22.286  54.181  1.00  0.00     0.138 A 
HETATM    8  C   UNL     1       8.297  21.015  54.099  1.00  0.00    -0.022 A 
HETATM    9  F   UNL     1       7.235  22.844  53.056  1.00  0.00    -0.204 F 
HETATM   10  C   UNL     1       8.363  20.284  52.790  1.00  0.00     0.051 C 
HETATM   11  C   UNL     1       8.768  20.407  55.270  1.00  0.00     0.010 A 
HETATM   12  C   UNL     1       8.680  21.072  56.493  1.00  0.00     0.002 A 
HETATM   13  C   UNL     1       8.114  22.347  56.559  1.00  0.00     0.020 A 
ENDBRANCH   3   6
ENDBRANCH   1   2
BRANCH   1  14
HETATM   14  C   UNL     1       5.983  26.980  53.817  1.00  0.00    -0.036 A 
HETATM   15  C   UNL     1       6.141  26.569  52.487  1.00  0.00     0.057 A 
HETATM   16  C   UNL     1       5.177  26.884  51.528  1.00  0.00     0.101 A 
HETATM   17  N   UNL     1       4.123  27.619  51.908  1.00  0.00    -0.353 N 
HETATM   18  H   UNL     1       3.465  27.887  51.183  1.00  0.00     0.166 HD
HETATM   19  C   UNL     1       3.928  28.035  53.166  1.00  0.00     0.090 A 
HETATM   20  C   UNL     1       4.853  27.725  54.154  1.00  0.00     0.026 A 
BRANCH  16  21
HETATM   21  N   UNL     1       5.366  26.553  50.180  1.00  0.00    -0.372 N 
HETATM   22  H   UNL     1       5.803  25.636  50.071  1.00  0.00     0.161 HD
BRANCH  21  23
HETATM   23  C   UNL     1       4.398  26.917  49.146  1.00  0.00     0.083 A 
HETATM   24  C   UNL     1       4.635  26.589  47.699  1.00  0.00     0.027 A 
HETATM   25  C   UNL     1       3.596  25.837  48.478  1.00  0.00     0.027 A 
ENDBRANCH  21  23
ENDBRANCH  16  21
ENDBRANCH   1  14
TORSDOF 5
ENDMDL
MODEL 5
REMARK VINA RESULT:      -8.3      2.586      3.852
REMARK  5 active torsions:
REMARK  status: ('A' for Active; 'I' for Inactive)
REMARK    1  A    between atoms: C_5  and  C_6 
REMARK       I    between atoms: C_6  and  N_7 
REMARK    2  A    between atoms: N_7  and  C_8 
REMARK    3  A    between atoms: C_8  and  C_9 
REMARK    4  A    between atoms: C_11  and  N_12 
REMARK    5  A    between atoms: N_12  and  C_13 
ROOT
HETATM    1  C   UNL     1       5.917  25.674  56.429  1.00  0.00     0.161 C 
ENDROOT
BRANCH   1   2
HETATM    2  N   UNL     1       6.361  24.364  56.019  1.00  0.00    -0.353 N 
HETATM    3  C   UNL     1       7.550  23.822  56.460  1.00  0.00     0.255 C 
HETATM    4  O   UNL     1       8.259  24.393  57.284  1.00  0.00    -0.268 OA
HETATM    5  H   UNL     1       5.829  23.871  55.309  1.00  0.00     0.163 HD
BRANCH   3   6
HETATM    6  C   UNL     1       7.956  22.498  55.910  1.00  0.00     0.071 A 
HETATM    7  C   UNL     1       7.862  22.174  54.553  1.00  0.00     0.138 A 
HETATM    8  C   UNL     1       8.262  20.921  54.074  1.00  0.00    -0.022 A 
HETATM    9  F   UNL     1       7.376  23.069  53.675  1.00  0.00    -0.204 F 
HETATM   10  C   UNL     1       8.129  20.577  52.619  1.00  0.00     0.051 C 
HETATM   11  C   UNL     1       8.737  19.967  54.983  1.00  0.00     0.010 A 
HETATM   12  C   UNL     1       8.833  20.274  56.340  1.00  0.00     0.002 A 
HETATM   13  C   UNL     1       8.448  21.534  56.802  1.00  0.00     0.020 A 
ENDBRANCH   3   6
ENDBRANCH   1   2
BRANCH   1  14
HETATM   14  C   UNL     1       6.763  26.755  55.797  1.00  0.00    -0.036 A 
HETATM   15  C   UNL     1       7.435  27.684  56.602  1.00  0.00     0.057 A 
HETATM   16  C   UNL     1       8.169  28.722  56.026  1.00  0.00     0.101 A 
HETATM   17  N   UNL     1       8.179  28.824  54.690  1.00  0.00    -0.353 N 
HETATM   18  H   UNL     1       8.669  29.620  54.293  1.00  0.00     0.166 HD
HETATM   19  C   UNL     1       7.552  27.961  53.878  1.00  0.00     0.090 A 
HETATM   20  C   UNL     1       6.829  26.903  54.412  1.00  0.00     0.026 A 
BRANCH  16  21
HETATM   21  N   UNL     1       8.774  29.705  56.819  1.00  0.00    -0.372 N 
HETATM   22  H   UNL     1       8.538  29.595  57.808  1.00  0.00     0.161 HD
BRANCH  21  23
HETATM   23  C   UNL     1      10.118  30.208  56.545  1.00  0.00     0.083 A 
HETATM   24  C   UNL     1      10.960  30.830  57.624  1.00  0.00     0.027 A 
HETATM   25  C   UNL     1      11.306  29.470  57.093  1.00  0.00     0.027 A 
ENDBRANCH  21  23
ENDBRANCH  16  21
ENDBRANCH   1  14
TORSDOF 5
ENDMDL
MODEL 6
REMARK VINA RESULT:      -8.2      3.256      5.109
REMARK  5 active torsions:
REMARK  status: ('A' for Active; 'I' for Inactive)
REMARK    1  A    between atoms: C_5  and  C_6 
REMARK       I    between atoms: C_6  and  N_7 
REMARK    2  A    between atoms: N_7  and  C_8 
REMARK    3  A    between atoms: C_8  and  C_9 
REMARK    4  A    between atoms: C_11  and  N_12 
REMARK    5  A    between atoms: N_12  and  C_13 
ROOT
HETATM    1  C   UNL     1       5.320  25.471  52.325  1.00  0.00     0.161 C 
ENDROOT
BRANCH   1   2
HETATM    2  N   UNL     1       5.853  24.316  53.008  1.00  0.00    -0.353 N 
HETATM    3  C   UNL     1       7.181  23.958  52.914  1.00  0.00     0.255 C 
HETATM    4  O   UNL     1       7.999  24.643  52.307  1.00  0.00    -0.268 OA
HETATM    5  H   UNL     1       5.209  23.697  53.488  1.00  0.00     0.163 HD
BRANCH   3   6
HETATM    6  C   UNL     1       7.611  22.701  53.589  1.00  0.00     0.071 A 
HETATM    7  C   UNL     1       7.716  22.578  54.978  1.00  0.00     0.138 A 
HETATM    8  C   UNL     1       8.115  21.376  55.575  1.00  0.00    -0.022 A 
HETATM    9  F   UNL     1       7.437  23.626  55.773  1.00  0.00    -0.204 F 
HETATM   10  C   UNL     1       8.251  21.268  57.066  1.00  0.00     0.051 C 
HETATM   11  C   UNL     1       8.443  20.288  54.757  1.00  0.00     0.010 A 
HETATM   12  C   UNL     1       8.347  20.396  53.370  1.00  0.00     0.002 A 
HETATM   13  C   UNL     1       7.930  21.594  52.787  1.00  0.00     0.020 A 
ENDBRANCH   3   6
ENDBRANCH   1   2
BRANCH   1  14
HETATM   14  C   UNL     1       4.999  26.578  53.302  1.00  0.00    -0.036 A 
HETATM   15  C   UNL     1       5.520  26.543  54.602  1.00  0.00     0.057 A 
HETATM   16  C   UNL     1       5.178  27.529  55.530  1.00  0.00     0.101 A 
HETATM   17  N   UNL     1       4.315  28.481  55.152  1.00  0.00    -0.353 N 
HETATM   18  H   UNL     1       4.035  29.154  55.859  1.00  0.00     0.166 HD
HETATM   19  C   UNL     1       3.790  28.556  53.921  1.00  0.00     0.090 A 
HETATM   20  C   UNL     1       4.121  27.607  52.964  1.00  0.00     0.026 A 
BRANCH  16  21
HETATM   21  N   UNL     1       5.624  27.457  56.855  1.00  0.00    -0.372 N 
HETATM   22  H   UNL     1       5.769  26.491  57.157  1.00  0.00     0.161 HD
BRANCH  21  23
HETATM   23  C   UNL     1       6.549  28.438  57.420  1.00  0.00     0.083 A 
HETATM   24  C   UNL     1       8.003  28.118  57.627  1.00  0.00     0.027 A 
HETATM   25  C   UNL     1       7.591  29.060  56.534  1.00  0.00     0.027 A 
ENDBRANCH  21  23
ENDBRANCH  16  21
ENDBRANCH   1  14
TORSDOF 5
ENDMDL
MODEL 7
REMARK VINA RESULT:      -8.2      5.473      8.038
REMARK  5 active torsions:
REMARK  status: ('A' for Active; 'I' for Inactive)
REMARK    1  A    between atoms: C_5  and  C_6 
REMARK       I    between atoms: C_6  and  N_7 
REMARK    2  A    between atoms: N_7  and  C_8 
REMARK    3  A    between atoms: C_8  and  C_9 
REMARK    4  A    between atoms: C_11  and  N_12 
REMARK    5  A    between atoms: N_12  and  C_13 
ROOT
HETATM    1  C   UNL     1       5.454  26.991  53.794  1.00  0.00     0.161 C 
ENDROOT
BRANCH   1   2
HETATM    2  N   UNL     1       5.859  25.606  53.775  1.00  0.00    -0.353 N 
HETATM    3  C   UNL     1       6.946  25.151  54.491  1.00  0.00     0.255 C 
HETATM    4  O   UNL     1       7.581  25.883  55.245  1.00  0.00    -0.268 OA
HETATM    5  H   UNL     1       5.390  24.972  53.137  1.00  0.00     0.163 HD
BRANCH   3   6
HETATM    6  C   UNL     1       7.331  23.720  54.336  1.00  0.00     0.071 A 
HETATM    7  C   UNL     1       7.506  22.854  55.420  1.00  0.00     0.138 A 
HETATM    8  C   UNL     1       7.859  21.513  55.232  1.00  0.00    -0.022 A 
HETATM    9  F   UNL     1       7.340  23.302  56.678  1.00  0.00    -0.204 F 
HETATM   10  C   UNL     1       8.071  20.603  56.407  1.00  0.00     0.051 C 
HETATM   11  C   UNL     1       8.070  21.043  53.930  1.00  0.00     0.010 A 
HETATM   12  C   UNL     1       7.903  21.895  52.838  1.00  0.00     0.002 A 
HETATM   13  C   UNL     1       7.533  23.226  53.038  1.00  0.00     0.020 A 
ENDBRANCH   3   6
ENDBRANCH   1   2
BRANCH   1  14
HETATM   14  C   UNL     1       5.368  27.550  52.393  1.00  0.00    -0.036 A 
HETATM   15  C   UNL     1       5.194  26.690  51.301  1.00  0.00     0.057 A 
HETATM   16  C   UNL     1       5.175  27.192  49.999  1.00  0.00     0.101 A 
HETATM   17  N   UNL     1       5.366  28.507  49.825  1.00  0.00    -0.353 N 
HETATM   18  H   UNL     1       5.407  28.842  48.867  1.00  0.00     0.166 HD
HETATM   19  C   UNL     1       5.538  29.369  50.836  1.00  0.00     0.090 A 
HETATM   20  C   UNL     1       5.541  28.912  52.147  1.00  0.00     0.026 A 
BRANCH  16  21
HETATM   21  N   UNL     1       5.087  26.333  48.896  1.00  0.00    -0.372 N 
HETATM   22  H   UNL     1       5.302  25.366  49.148  1.00  0.00     0.161 HD
BRANCH  21  23
HETATM   23  C   UNL     1       4.072  26.502  47.857  1.00  0.00     0.083 A 
HETATM   24  C   UNL     1       3.126  25.391  47.495  1.00  0.00     0.027 A 
HETATM   25  C   UNL     1       2.625  26.587  48.250  1.00  0.00     0.027 A 
ENDBRANCH  21  23
ENDBRANCH  16  21
ENDBRANCH   1  14
TORSDOF 5
ENDMDL
MODEL 8
REMARK VINA RESULT:      -8.0      2.241      3.164
REMARK  5 active torsions:
REMARK  status: ('A' for Active; 'I' for Inactive)
REMARK    1  A    between atoms: C_5  and  C_6 
REMARK       I    between atoms: C_6  and  N_7 
REMARK    2  A    between atoms: N_7  and  C_8 
REMARK    3  A    between atoms: C_8  and  C_9 
REMARK    4  A    between atoms: C_11  and  N_12 
REMARK    5  A    between atoms: N_12  and  C_13 
ROOT
HETATM    1  C   UNL     1       5.346  25.744  57.329  1.00  0.00     0.161 C 
ENDROOT
BRANCH   1   2
HETATM    2  N   UNL     1       5.787  24.853  56.282  1.00  0.00    -0.353 N 
HETATM    3  C   UNL     1       7.015  24.227  56.322  1.00  0.00     0.255 C 
HETATM    4  O   UNL     1       7.768  24.331  57.286  1.00  0.00    -0.268 OA
HETATM    5  H   UNL     1       5.217  24.766  55.447  1.00  0.00     0.163 HD
BRANCH   3   6
HETATM    6  C   UNL     1       7.408  23.394  55.150  1.00  0.00     0.071 A 
HETATM    7  C   UNL     1       7.836  22.067  55.267  1.00  0.00     0.138 A 
HETATM    8  C   UNL     1       8.189  21.315  54.140  1.00  0.00    -0.022 A 
HETATM    9  F   UNL     1       7.921  21.487  56.477  1.00  0.00    -0.204 F 
HETATM   10  C   UNL     1       8.673  19.901  54.282  1.00  0.00     0.051 C 
HETATM   11  C   UNL     1       8.139  21.918  52.878  1.00  0.00     0.010 A 
HETATM   12  C   UNL     1       7.719  23.242  52.746  1.00  0.00     0.002 A 
HETATM   13  C   UNL     1       7.352  23.976  53.875  1.00  0.00     0.020 A 
ENDBRANCH   3   6
ENDBRANCH   1   2
BRANCH   1  14
HETATM   14  C   UNL     1       5.774  27.165  57.046  1.00  0.00    -0.036 A 
HETATM   15  C   UNL     1       6.988  27.649  57.551  1.00  0.00     0.057 A 
HETATM   16  C   UNL     1       7.362  28.978  57.347  1.00  0.00     0.101 A 
HETATM   17  N   UNL     1       6.513  29.781  56.691  1.00  0.00    -0.353 N 
HETATM   18  H   UNL     1       6.777  30.757  56.605  1.00  0.00     0.166 HD
HETATM   19  C   UNL     1       5.341  29.365  56.191  1.00  0.00     0.090 A 
HETATM   20  C   UNL     1       4.943  28.046  56.354  1.00  0.00     0.026 A 
BRANCH  16  21
HETATM   21  N   UNL     1       8.532  29.494  57.919  1.00  0.00    -0.372 N 
HETATM   22  H   UNL     1       8.906  28.878  58.643  1.00  0.00     0.161 HD
BRANCH  21  23
HETATM   23  C   UNL     1       9.529  30.218  57.133  1.00  0.00     0.083 A 
HETATM   24  C   UNL     1      10.633  30.998  57.790  1.00  0.00     0.027 A 
HETATM   25  C   UNL     1      10.941  29.709  57.087  1.00  0.00     0.027 A 
ENDBRANCH  21  23
ENDBRANCH  16  21
ENDBRANCH   1  14
TORSDOF 5
ENDMDL
MODEL 9
REMARK VINA RESULT:      -8.0      3.520      9.366
REMARK  5 active torsions:
REMARK  status: ('A' for Active; 'I' for Inactive)
REMARK    1  A    between atoms: C_5  and  C_6 
REMARK       I    between atoms: C_6  and  N_7 
REMARK    2  A    between atoms: N_7  and  C_8 
REMARK    3  A    between atoms: C_8  and  C_9 
REMARK    4  A    between atoms: C_11  and  N_12 
REMARK    5  A    between atoms: N_12  and  C_13 
ROOT
HETATM    1  C   UNL     1       8.403  29.670  58.410  1.00  0.00     0.161 C 
ENDROOT
BRANCH   1   2
HETATM    2  N   UNL     1       7.669  30.397  59.418  1.00  0.00    -0.353 N 
HETATM    3  C   UNL     1       7.990  31.692  59.767  1.00  0.00     0.255 C 
HETATM    4  O   UNL     1       8.868  32.324  59.187  1.00  0.00    -0.268 OA
HETATM    5  H   UNL     1       6.962  29.905  59.953  1.00  0.00     0.163 HD
BRANCH   3   6
HETATM    6  C   UNL     1       7.224  32.322  60.879  1.00  0.00     0.071 A 
HETATM    7  C   UNL     1       7.770  32.557  62.145  1.00  0.00     0.138 A 
HETATM    8  C   UNL     1       7.020  33.160  63.162  1.00  0.00    -0.022 A 
HETATM    9  F   UNL     1       9.039  32.200  62.412  1.00  0.00    -0.204 F 
HETATM   10  C   UNL     1       7.610  33.380  64.524  1.00  0.00     0.051 C 
HETATM   11  C   UNL     1       5.686  33.504  62.908  1.00  0.00     0.010 A 
HETATM   12  C   UNL     1       5.126  33.272  61.651  1.00  0.00     0.002 A 
HETATM   13  C   UNL     1       5.891  32.688  60.640  1.00  0.00     0.020 A 
ENDBRANCH   3   6
ENDBRANCH   1   2
BRANCH   1  14
HETATM   14  C   UNL     1       7.530  28.630  57.749  1.00  0.00    -0.036 A 
HETATM   15  C   UNL     1       8.063  27.382  57.398  1.00  0.00     0.057 A 
HETATM   16  C   UNL     1       7.280  26.438  56.732  1.00  0.00     0.101 A 
HETATM   17  N   UNL     1       6.025  26.774  56.406  1.00  0.00    -0.353 N 
HETATM   18  H   UNL     1       5.492  26.096  55.870  1.00  0.00     0.166 HD
HETATM   19  C   UNL     1       5.471  27.954  56.718  1.00  0.00     0.090 A 
HETATM   20  C   UNL     1       6.210  28.911  57.399  1.00  0.00     0.026 A 
BRANCH  16  21
HETATM   21  N   UNL     1       7.826  25.222  56.302  1.00  0.00    -0.372 N 
HETATM   22  H   UNL     1       8.301  24.728  57.061  1.00  0.00     0.161 HD
BRANCH  21  23
HETATM   23  C   UNL     1       7.157  24.372  55.319  1.00  0.00     0.083 A 
HETATM   24  C   UNL     1       7.847  23.935  54.058  1.00  0.00     0.027 A 
HETATM   25  C   UNL     1       7.599  22.946  55.159  1.00  0.00     0.027 A 
ENDBRANCH  21  23
ENDBRANCH  16  21
ENDBRANCH   1  14
TORSDOF 5
ENDMDL
MODEL 10
REMARK VINA RESULT:      -7.9      5.580      7.576
REMARK  5 active torsions:
REMARK  status: ('A' for Active; 'I' for Inactive)
REMARK    1  A    between atoms: C_5  and  C_6 
REMARK       I    between atoms: C_6  and  N_7 
REMARK    2  A    between atoms: N_7  and  C_8 
REMARK    3  A    between atoms: C_8  and  C_9 
REMARK    4  A    between atoms: C_11  and  N_12 
REMARK    5  A    between atoms: N_12  and  C_13 
ROOT
HETATM    1  C   UNL     1       5.351  26.211  54.405  1.00  0.00     0.161 C 
ENDROOT
BRANCH   1   2
HETATM    2  N   UNL     1       5.846  24.860  54.522  1.00  0.00    -0.353 N 
HETATM    3  C   UNL     1       7.086  24.578  55.054  1.00  0.00     0.255 C 
HETATM    4  O   UNL     1       7.805  25.452  55.529  1.00  0.00    -0.268 OA
HETATM    5  H   UNL     1       5.306  24.108  54.107  1.00  0.00     0.163 HD
BRANCH   3   6
HETATM    6  C   UNL     1       7.537  23.158  55.051  1.00  0.00     0.071 A 
HETATM    7  C   UNL     1       7.740  22.425  53.877  1.00  0.00     0.138 A 
HETATM    8  C   UNL     1       8.172  21.093  53.915  1.00  0.00    -0.022 A 
HETATM    9  F   UNL     1       7.516  22.991  52.678  1.00  0.00    -0.204 F 
HETATM   10  C   UNL     1       8.359  20.311  52.648  1.00  0.00     0.051 C 
HETATM   11  C   UNL     1       8.374  20.481  55.158  1.00  0.00     0.010 A 
HETATM   12  C   UNL     1       8.172  21.198  56.337  1.00  0.00     0.002 A 
HETATM   13  C   UNL     1       7.759  22.530  56.286  1.00  0.00     0.020 A 
ENDBRANCH   3   6
ENDBRANCH   1   2
BRANCH   1  14
HETATM   14  C   UNL     1       5.085  26.568  52.962  1.00  0.00    -0.036 A 
HETATM   15  C   UNL     1       4.416  27.758  52.642  1.00  0.00     0.057 A 
HETATM   16  C   UNL     1       4.113  28.066  51.315  1.00  0.00     0.101 A 
HETATM   17  N   UNL     1       4.444  27.178  50.367  1.00  0.00    -0.353 N 
HETATM   18  H   UNL     1       4.162  27.394  49.416  1.00  0.00     0.166 HD
HETATM   19  C   UNL     1       5.083  26.028  50.623  1.00  0.00     0.090 A 
HETATM   20  C   UNL     1       5.421  25.695  51.928  1.00  0.00     0.026 A 
BRANCH  16  21
HETATM   21  N   UNL     1       3.371  29.209  50.991  1.00  0.00    -0.372 N 
HETATM   22  H   UNL     1       3.916  29.872  50.437  1.00  0.00     0.161 HD
BRANCH  21  23
HETATM   23  C   UNL     1       1.945  29.148  50.676  1.00  0.00     0.083 A 
HETATM   24  C   UNL     1       1.308  30.120  49.723  1.00  0.00     0.027 A 
HETATM   25  C   UNL     1       1.512  28.691  49.312  1.00  0.00     0.027 A 
ENDBRANCH  21  23
ENDBRANCH  16  21
ENDBRANCH   1  14
TORSDOF 5
ENDMDL
