MODEL 1
REMARK VINA RESULT:     -11.6      0.000      0.000
REMARK  7 active torsions:
REMARK  status: ('A' for Active; 'I' for Inactive)
REMARK    1  A    between atoms: C_4  and  C_5 
REMARK    2  A    between atoms: C_5  and  N_6 
REMARK    3  A    between atoms: C_14  and  C_15 
REMARK    4  A    between atoms: C_18  and  O_19 
REMARK    5  A    between atoms: O_19  and  C_20 
REMARK    6  A    between atoms: C_20  and  C_21 
REMARK    7  A    between atoms: C_22  and  C_23 
ROOT
HETATM    1  N   UNL     1       6.076  26.408  55.736  1.00  0.00    -0.063 N 
HETATM    2  H   UNL     1       6.569  26.996  55.053  1.00  0.00     0.280 HD
HETATM    3  C   UNL     1       4.946  27.281  56.261  1.00  0.00     0.282 C 
HETATM    4  C   UNL     1       5.521  28.457  56.973  1.00  0.00     0.018 A 
HETATM    5  C   UNL     1       6.809  28.525  57.473  1.00  0.00    -0.023 A 
HETATM    6  C   UNL     1       7.055  29.793  58.094  1.00  0.00     0.073 A 
HETATM    7  C   UNL     1       5.957  30.615  58.026  1.00  0.00     0.088 A 
HETATM    8  N   UNL     1       5.940  31.875  58.499  1.00  0.00    -0.358 N 
HETATM    9  C   UNL     1       7.006  32.349  59.356  1.00  0.00     0.219 C 
HETATM   10  N   UNL     1       8.195  31.542  59.244  1.00  0.00    -0.332 N 
HETATM   11  C   UNL     1       8.264  30.281  58.725  1.00  0.00     0.256 C 
HETATM   12  O   UNL     1       9.291  29.615  58.787  1.00  0.00    -0.267 OA
HETATM   13  S   UNL     1       4.628  29.875  57.264  1.00  0.00    -0.074 SA
HETATM   14  C   UNL     1       7.782  27.394  57.307  1.00  0.00     0.068 C 
HETATM   15  C   UNL     1       7.085  26.102  56.837  1.00  0.00     0.240 C 
HETATM   16  H   UNL     1       5.052  32.355  58.620  1.00  0.00     0.162 HD
HETATM   17  H   UNL     1       9.023  31.854  59.727  1.00  0.00     0.165 HD
ENDROOT
BRANCH   9  18
HETATM   18  C   UNL     1       6.510  32.480  60.784  1.00  0.00    -0.016 A 
HETATM   19  C   UNL     1       7.390  32.541  61.879  1.00  0.00     0.014 A 
HETATM   20  C   UNL     1       6.903  32.617  63.189  1.00  0.00     0.038 A 
HETATM   21  C   UNL     1       5.531  32.601  63.411  1.00  0.00     0.079 A 
HETATM   22  C   UNL     1       4.639  32.559  62.340  1.00  0.00     0.038 A 
HETATM   23  C   UNL     1       5.126  32.490  61.035  1.00  0.00     0.014 A 
BRANCH  21  24
HETATM   24  O   UNL     1       4.941  32.681  64.688  1.00  0.00    -0.276 OA
BRANCH  24  25
HETATM   25  C   UNL     1       4.563  33.900  65.232  1.00  0.00     0.288 C 
HETATM   26  O   UNL     1       3.686  34.650  64.832  1.00  0.00    -0.260 OA
BRANCH  25  27
HETATM   27  C   UNL     1       5.392  34.223  66.414  1.00  0.00     0.085 C 
HETATM   28  C   UNL     1       4.929  34.257  67.672  1.00  0.00     0.043 C 
BRANCH  28  29
HETATM   29  C   UNL     1       5.801  34.531  68.761  1.00  0.00     0.075 A 
HETATM   30  O   UNL     1       5.398  34.593  70.078  1.00  0.00    -0.323 OA
HETATM   31  C   UNL     1       6.480  34.877  70.844  1.00  0.00     0.142 A 
HETATM   32  C   UNL     1       7.598  35.008  70.063  1.00  0.00     0.027 A 
HETATM   33  C   UNL     1       7.168  34.785  68.733  1.00  0.00     0.039 A 
ENDBRANCH  28  29
ENDBRANCH  25  27
ENDBRANCH  24  25
ENDBRANCH  21  24
ENDBRANCH   9  18
BRANCH   1  34
HETATM   34  C   UNL     1       5.604  25.204  54.963  1.00  0.00     0.273 C 
BRANCH  34  35
HETATM   35  C   UNL     1       6.675  24.239  54.534  1.00  0.00    -0.033 A 
HETATM   36  C   UNL     1       7.195  24.281  53.230  1.00  0.00     0.009 A 
HETATM   37  C   UNL     1       8.172  23.371  52.827  1.00  0.00     0.001 A 
HETATM   38  C   UNL     1       8.645  22.414  53.720  1.00  0.00     0.000 A 
HETATM   39  C   UNL     1       8.149  22.368  55.021  1.00  0.00     0.001 A 
HETATM   40  C   UNL     1       7.172  23.277  55.428  1.00  0.00     0.009 A 
ENDBRANCH  34  35
ENDBRANCH   1  34
TORSDOF 7
ENDMDL
MODEL 2
REMARK VINA RESULT:     -10.8      1.917      2.974
REMARK  7 active torsions:
REMARK  status: ('A' for Active; 'I' for Inactive)
REMARK    1  A    between atoms: C_4  and  C_5 
REMARK    2  A    between atoms: C_5  and  N_6 
REMARK    3  A    between atoms: C_14  and  C_15 
REMARK    4  A    between atoms: C_18  and  O_19 
REMARK    5  A    between atoms: O_19  and  C_20 
REMARK    6  A    between atoms: C_20  and  C_21 
REMARK    7  A    between atoms: C_22  and  C_23 
ROOT
HETATM    1  N   UNL     1       6.123  26.245  55.747  1.00  0.00    -0.063 N 
HETATM    2  H   UNL     1       6.629  26.823  55.065  1.00  0.00     0.280 HD
HETATM    3  C   UNL     1       4.983  27.124  56.237  1.00  0.00     0.282 C 
HETATM    4  C   UNL     1       5.543  28.313  56.941  1.00  0.00     0.018 A 
HETATM    5  C   UNL     1       6.821  28.390  57.464  1.00  0.00    -0.023 A 
HETATM    6  C   UNL     1       7.054  29.668  58.069  1.00  0.00     0.073 A 
HETATM    7  C   UNL     1       5.956  30.487  57.968  1.00  0.00     0.088 A 
HETATM    8  N   UNL     1       5.929  31.755  58.421  1.00  0.00    -0.358 N 
HETATM    9  C   UNL     1       6.978  32.244  59.290  1.00  0.00     0.219 C 
HETATM   10  N   UNL     1       8.170  31.437  59.213  1.00  0.00    -0.332 N 
HETATM   11  C   UNL     1       8.250  30.168  58.716  1.00  0.00     0.256 C 
HETATM   12  O   UNL     1       9.277  29.505  58.806  1.00  0.00    -0.267 OA
HETATM   13  S   UNL     1       4.643  29.733  57.194  1.00  0.00    -0.074 SA
HETATM   14  C   UNL     1       7.799  27.258  57.334  1.00  0.00     0.068 C 
HETATM   15  C   UNL     1       7.112  25.958  56.872  1.00  0.00     0.240 C 
HETATM   16  H   UNL     1       5.038  32.235  58.518  1.00  0.00     0.162 HD
HETATM   17  H   UNL     1       8.989  31.758  59.706  1.00  0.00     0.165 HD
ENDROOT
BRANCH   9  18
HETATM   18  C   UNL     1       6.455  32.396  60.706  1.00  0.00    -0.016 A 
HETATM   19  C   UNL     1       7.283  32.230  61.831  1.00  0.00     0.014 A 
HETATM   20  C   UNL     1       6.764  32.332  63.126  1.00  0.00     0.038 A 
HETATM   21  C   UNL     1       5.406  32.573  63.303  1.00  0.00     0.079 A 
HETATM   22  C   UNL     1       4.569  32.759  62.203  1.00  0.00     0.038 A 
HETATM   23  C   UNL     1       5.090  32.663  60.912  1.00  0.00     0.014 A 
BRANCH  21  24
HETATM   24  O   UNL     1       4.788  32.701  64.562  1.00  0.00    -0.276 OA
BRANCH  24  25
HETATM   25  C   UNL     1       5.029  33.799  65.375  1.00  0.00     0.288 C 
HETATM   26  O   UNL     1       4.824  33.892  66.576  1.00  0.00    -0.260 OA
BRANCH  25  27
HETATM   27  C   UNL     1       5.585  34.921  64.587  1.00  0.00     0.085 C 
HETATM   28  C   UNL     1       4.873  35.986  64.188  1.00  0.00     0.043 C 
BRANCH  28  29
HETATM   29  C   UNL     1       5.491  37.047  63.473  1.00  0.00     0.075 A 
HETATM   30  O   UNL     1       5.794  37.002  62.129  1.00  0.00    -0.323 OA
HETATM   31  C   UNL     1       6.377  38.176  61.781  1.00  0.00     0.142 A 
HETATM   32  C   UNL     1       6.472  39.004  62.869  1.00  0.00     0.027 A 
HETATM   33  C   UNL     1       5.905  38.287  63.950  1.00  0.00     0.039 A 
ENDBRANCH  28  29
ENDBRANCH  25  27
ENDBRANCH  24  25
ENDBRANCH  21  24
ENDBRANCH   9  18
BRANCH   1  34
HETATM   34  C   UNL     1       5.667  25.029  54.985  1.00  0.00     0.273 C 
BRANCH  34  35
HETATM   35  C   UNL     1       6.753  24.084  54.546  1.00  0.00    -0.033 A 
HETATM   36  C   UNL     1       7.280  24.154  53.246  1.00  0.00     0.009 A 
HETATM   37  C   UNL     1       8.271  23.263  52.834  1.00  0.00     0.001 A 
HETATM   38  C   UNL     1       8.752  22.298  53.714  1.00  0.00     0.000 A 
HETATM   39  C   UNL     1       8.249  22.225  55.011  1.00  0.00     0.001 A 
HETATM   40  C   UNL     1       7.258  23.114  55.427  1.00  0.00     0.009 A 
ENDBRANCH  34  35
ENDBRANCH   1  34
TORSDOF 7
ENDMDL
MODEL 3
REMARK VINA RESULT:     -10.5      3.283     12.656
REMARK  7 active torsions:
REMARK  status: ('A' for Active; 'I' for Inactive)
REMARK    1  A    between atoms: C_4  and  C_5 
REMARK    2  A    between atoms: C_5  and  N_6 
REMARK    3  A    between atoms: C_14  and  C_15 
REMARK    4  A    between atoms: C_18  and  O_19 
REMARK    5  A    between atoms: O_19  and  C_20 
REMARK    6  A    between atoms: C_20  and  C_21 
REMARK    7  A    between atoms: C_22  and  C_23 
ROOT
HETATM    1  N   UNL     1       7.028  33.268  63.548  1.00  0.00    -0.063 N 
HETATM    2  H   UNL     1       7.316  34.045  62.941  1.00  0.00     0.280 HD
HETATM    3  C   UNL     1       8.025  32.156  63.260  1.00  0.00     0.282 C 
HETATM    4  C   UNL     1       7.888  31.727  61.839  1.00  0.00     0.018 A 
HETATM    5  C   UNL     1       6.775  31.953  61.049  1.00  0.00    -0.023 A 
HETATM    6  C   UNL     1       6.961  31.424  59.731  1.00  0.00     0.073 A 
HETATM    7  C   UNL     1       8.196  30.838  59.587  1.00  0.00     0.088 A 
HETATM    8  N   UNL     1       8.634  30.301  58.433  1.00  0.00    -0.358 N 
HETATM    9  C   UNL     1       7.716  30.069  57.338  1.00  0.00     0.219 C 
HETATM   10  N   UNL     1       6.513  30.853  57.461  1.00  0.00    -0.332 N 
HETATM   11  C   UNL     1       6.059  31.456  58.598  1.00  0.00     0.256 C 
HETATM   12  O   UNL     1       4.959  31.995  58.646  1.00  0.00    -0.267 OA
HETATM   13  S   UNL     1       9.114  30.881  61.018  1.00  0.00    -0.074 SA
HETATM   14  C   UNL     1       5.581  32.704  61.564  1.00  0.00     0.068 C 
HETATM   15  C   UNL     1       5.626  32.876  63.095  1.00  0.00     0.240 C 
HETATM   16  H   UNL     1       9.451  29.696  58.439  1.00  0.00     0.162 HD
HETATM   17  H   UNL     1       5.859  30.835  56.693  1.00  0.00     0.165 HD
ENDROOT
BRANCH   9  18
HETATM   18  C   UNL     1       7.444  28.584  57.190  1.00  0.00    -0.016 A 
HETATM   19  C   UNL     1       8.472  27.626  57.246  1.00  0.00     0.014 A 
HETATM   20  C   UNL     1       8.197  26.266  57.061  1.00  0.00     0.038 A 
HETATM   21  C   UNL     1       6.895  25.861  56.790  1.00  0.00     0.079 A 
HETATM   22  C   UNL     1       5.857  26.791  56.748  1.00  0.00     0.038 A 
HETATM   23  C   UNL     1       6.132  28.145  56.938  1.00  0.00     0.014 A 
BRANCH  21  24
HETATM   24  O   UNL     1       6.514  24.519  56.597  1.00  0.00    -0.276 OA
BRANCH  24  25
HETATM   25  C   UNL     1       6.869  23.826  55.449  1.00  0.00     0.288 C 
HETATM   26  O   UNL     1       7.302  22.686  55.376  1.00  0.00    -0.260 OA
BRANCH  25  27
HETATM   27  C   UNL     1       6.669  24.666  54.248  1.00  0.00     0.085 C 
HETATM   28  C   UNL     1       5.495  24.810  53.618  1.00  0.00     0.043 C 
BRANCH  28  29
HETATM   29  C   UNL     1       5.373  25.675  52.496  1.00  0.00     0.075 A 
HETATM   30  O   UNL     1       4.972  25.264  51.242  1.00  0.00    -0.323 OA
HETATM   31  C   UNL     1       4.972  26.340  50.418  1.00  0.00     0.142 A 
HETATM   32  C   UNL     1       5.370  27.463  51.097  1.00  0.00     0.027 A 
HETATM   33  C   UNL     1       5.623  27.041  52.424  1.00  0.00     0.039 A 
ENDBRANCH  28  29
ENDBRANCH  25  27
ENDBRANCH  24  25
ENDBRANCH  21  24
ENDBRANCH   9  18
BRANCH   1  34
HETATM   34  C   UNL     1       7.108  33.805  64.953  1.00  0.00     0.273 C 
BRANCH  34  35
HETATM   35  C   UNL     1       5.852  34.442  65.484  1.00  0.00    -0.033 A 
HETATM   36  C   UNL     1       5.231  33.942  66.640  1.00  0.00     0.009 A 
HETATM   37  C   UNL     1       4.055  34.521  67.118  1.00  0.00     0.001 A 
HETATM   38  C   UNL     1       3.490  35.606  66.454  1.00  0.00     0.000 A 
HETATM   39  C   UNL     1       4.103  36.121  65.314  1.00  0.00     0.001 A 
HETATM   40  C   UNL     1       5.279  35.546  64.832  1.00  0.00     0.009 A 
ENDBRANCH  34  35
ENDBRANCH   1  34
TORSDOF 7
ENDMDL
MODEL 4
REMARK VINA RESULT:     -10.4      1.532      2.229
REMARK  7 active torsions:
REMARK  status: ('A' for Active; 'I' for Inactive)
REMARK    1  A    between atoms: C_4  and  C_5 
REMARK    2  A    between atoms: C_5  and  N_6 
REMARK    3  A    between atoms: C_14  and  C_15 
REMARK    4  A    between atoms: C_18  and  O_19 
REMARK    5  A    between atoms: O_19  and  C_20 
REMARK    6  A    between atoms: C_20  and  C_21 
REMARK    7  A    between atoms: C_22  and  C_23 
ROOT
HETATM    1  N   UNL     1       5.838  27.032  55.513  1.00  0.00    -0.063 N 
HETATM    2  H   UNL     1       6.426  27.635  54.925  1.00  0.00     0.280 HD
HETATM    3  C   UNL     1       4.738  27.946  56.033  1.00  0.00     0.282 C 
HETATM    4  C   UNL     1       5.341  29.007  56.889  1.00  0.00     0.018 A 
HETATM    5  C   UNL     1       6.587  28.927  57.486  1.00  0.00    -0.023 A 
HETATM    6  C   UNL     1       6.875  30.112  58.236  1.00  0.00     0.073 A 
HETATM    7  C   UNL     1       5.850  31.024  58.165  1.00  0.00     0.088 A 
HETATM    8  N   UNL     1       5.889  32.236  58.749  1.00  0.00    -0.358 N 
HETATM    9  C   UNL     1       6.916  32.547  59.721  1.00  0.00     0.219 C 
HETATM   10  N   UNL     1       8.047  31.658  59.621  1.00  0.00    -0.332 N 
HETATM   11  C   UNL     1       8.063  30.446  58.996  1.00  0.00     0.256 C 
HETATM   12  O   UNL     1       9.031  29.696  59.070  1.00  0.00    -0.267 OA
HETATM   13  S   UNL     1       4.535  30.461  57.244  1.00  0.00    -0.074 SA
HETATM   14  C   UNL     1       7.483  27.739  57.287  1.00  0.00     0.068 C 
HETATM   15  C   UNL     1       6.731  26.553  56.652  1.00  0.00     0.240 C 
HETATM   16  H   UNL     1       5.033  32.774  58.848  1.00  0.00     0.162 HD
HETATM   17  H   UNL     1       8.856  31.860  60.189  1.00  0.00     0.165 HD
ENDROOT
BRANCH   9  18
HETATM   18  C   UNL     1       6.320  32.594  61.114  1.00  0.00    -0.016 A 
HETATM   19  C   UNL     1       4.938  32.463  61.342  1.00  0.00     0.014 A 
HETATM   20  C   UNL     1       4.411  32.555  62.635  1.00  0.00     0.038 A 
HETATM   21  C   UNL     1       5.262  32.810  63.705  1.00  0.00     0.079 A 
HETATM   22  C   UNL     1       6.637  32.925  63.506  1.00  0.00     0.038 A 
HETATM   23  C   UNL     1       7.162  32.827  62.217  1.00  0.00     0.014 A 
BRANCH  21  24
HETATM   24  O   UNL     1       4.833  32.912  65.043  1.00  0.00    -0.276 OA
BRANCH  24  25
HETATM   25  C   UNL     1       4.356  34.109  65.558  1.00  0.00     0.288 C 
HETATM   26  O   UNL     1       3.402  34.759  65.158  1.00  0.00    -0.260 OA
BRANCH  25  27
HETATM   27  C   UNL     1       5.180  34.551  66.704  1.00  0.00     0.085 C 
HETATM   28  C   UNL     1       4.961  34.182  67.975  1.00  0.00     0.043 C 
BRANCH  28  29
HETATM   29  C   UNL     1       5.828  34.612  69.016  1.00  0.00     0.075 A 
HETATM   30  O   UNL     1       5.474  34.659  70.347  1.00  0.00    -0.323 OA
HETATM   31  C   UNL     1       6.534  35.119  71.057  1.00  0.00     0.142 A 
HETATM   32  C   UNL     1       7.589  35.383  70.223  1.00  0.00     0.027 A 
HETATM   33  C   UNL     1       7.142  35.058  68.920  1.00  0.00     0.039 A 
ENDBRANCH  28  29
ENDBRANCH  25  27
ENDBRANCH  24  25
ENDBRANCH  21  24
ENDBRANCH   9  18
BRANCH   1  34
HETATM   34  C   UNL     1       5.341  25.942  54.601  1.00  0.00     0.273 C 
BRANCH  34  35
HETATM   35  C   UNL     1       5.291  26.283  53.137  1.00  0.00    -0.033 A 
HETATM   36  C   UNL     1       5.429  27.613  52.708  1.00  0.00     0.009 A 
HETATM   37  C   UNL     1       5.360  27.931  51.351  1.00  0.00     0.001 A 
HETATM   38  C   UNL     1       5.158  26.927  50.408  1.00  0.00     0.000 A 
HETATM   39  C   UNL     1       5.033  25.601  50.818  1.00  0.00     0.001 A 
HETATM   40  C   UNL     1       5.101  25.279  52.174  1.00  0.00     0.009 A 
ENDBRANCH  34  35
ENDBRANCH   1  34
TORSDOF 7
ENDMDL
MODEL 5
REMARK VINA RESULT:     -10.2      5.217     13.570
REMARK  7 active torsions:
REMARK  status: ('A' for Active; 'I' for Inactive)
REMARK    1  A    between atoms: C_4  and  C_5 
REMARK    2  A    between atoms: C_5  and  N_6 
REMARK    3  A    between atoms: C_14  and  C_15 
REMARK    4  A    between atoms: C_18  and  O_19 
REMARK    5  A    between atoms: O_19  and  C_20 
REMARK    6  A    between atoms: C_20  and  C_21 
REMARK    7  A    between atoms: C_22  and  C_23 
ROOT
HETATM    1  N   UNL     1       7.953  31.439  59.647  1.00  0.00    -0.063 N 
HETATM    2  H   UNL     1       7.683  30.761  60.371  1.00  0.00     0.280 HD
HETATM    3  C   UNL     1       6.724  31.573  58.760  1.00  0.00     0.282 C 
HETATM    4  C   UNL     1       6.441  30.264  58.106  1.00  0.00     0.018 A 
HETATM    5  C   UNL     1       7.361  29.242  57.954  1.00  0.00    -0.023 A 
HETATM    6  C   UNL     1       6.775  28.115  57.292  1.00  0.00     0.073 A 
HETATM    7  C   UNL     1       5.453  28.333  56.988  1.00  0.00     0.088 A 
HETATM    8  N   UNL     1       4.663  27.415  56.401  1.00  0.00    -0.358 N 
HETATM    9  C   UNL     1       5.238  26.227  55.807  1.00  0.00     0.219 C 
HETATM   10  N   UNL     1       6.563  25.956  56.306  1.00  0.00    -0.332 N 
HETATM   11  C   UNL     1       7.376  26.842  56.950  1.00  0.00     0.256 C 
HETATM   12  O   UNL     1       8.538  26.567  57.227  1.00  0.00    -0.267 OA
HETATM   13  S   UNL     1       4.920  29.881  57.449  1.00  0.00    -0.074 SA
HETATM   14  C   UNL     1       8.762  29.355  58.482  1.00  0.00     0.068 C 
HETATM   15  C   UNL     1       9.109  30.803  58.883  1.00  0.00     0.240 C 
HETATM   16  H   UNL     1       3.771  27.699  56.005  1.00  0.00     0.162 HD
HETATM   17  H   UNL     1       7.004  25.092  56.026  1.00  0.00     0.165 HD
ENDROOT
BRANCH   9  18
HETATM   18  C   UNL     1       5.182  26.319  54.294  1.00  0.00    -0.016 A 
HETATM   19  C   UNL     1       4.732  27.475  53.631  1.00  0.00     0.014 A 
HETATM   20  C   UNL     1       4.649  27.515  52.234  1.00  0.00     0.038 A 
HETATM   21  C   UNL     1       4.987  26.387  51.495  1.00  0.00     0.079 A 
HETATM   22  C   UNL     1       5.453  25.236  52.129  1.00  0.00     0.038 A 
HETATM   23  C   UNL     1       5.542  25.200  53.521  1.00  0.00     0.014 A 
BRANCH  21  24
HETATM   24  O   UNL     1       4.946  26.329  50.089  1.00  0.00    -0.276 OA
BRANCH  24  25
HETATM   25  C   UNL     1       4.969  27.482  49.317  1.00  0.00     0.288 C 
HETATM   26  O   UNL     1       5.802  28.375  49.345  1.00  0.00    -0.260 OA
BRANCH  25  27
HETATM   27  C   UNL     1       3.801  27.528  48.410  1.00  0.00     0.085 C 
HETATM   28  C   UNL     1       2.625  28.088  48.725  1.00  0.00     0.043 C 
BRANCH  28  29
HETATM   29  C   UNL     1       1.564  28.134  47.780  1.00  0.00     0.075 A 
HETATM   30  O   UNL     1       0.991  29.298  47.315  1.00  0.00    -0.323 OA
HETATM   31  C   UNL     1       0.013  28.973  46.435  1.00  0.00     0.142 A 
HETATM   32  C   UNL     1      -0.080  27.612  46.305  1.00  0.00     0.027 A 
HETATM   33  C   UNL     1       0.910  27.074  47.160  1.00  0.00     0.039 A 
ENDBRANCH  28  29
ENDBRANCH  25  27
ENDBRANCH  24  25
ENDBRANCH  21  24
ENDBRANCH   9  18
BRANCH   1  34
HETATM   34  C   UNL     1       8.307  32.700  60.389  1.00  0.00     0.273 C 
BRANCH  34  35
HETATM   35  C   UNL     1       7.624  32.895  61.716  1.00  0.00    -0.033 A 
HETATM   36  C   UNL     1       8.255  32.505  62.908  1.00  0.00     0.009 A 
HETATM   37  C   UNL     1       7.612  32.666  64.135  1.00  0.00     0.001 A 
HETATM   38  C   UNL     1       6.337  33.223  64.187  1.00  0.00     0.000 A 
HETATM   39  C   UNL     1       5.704  33.627  63.014  1.00  0.00     0.001 A 
HETATM   40  C   UNL     1       6.344  33.467  61.785  1.00  0.00     0.009 A 
ENDBRANCH  34  35
ENDBRANCH   1  34
TORSDOF 7
ENDMDL
MODEL 6
REMARK VINA RESULT:     -10.1      5.314      7.731
REMARK  7 active torsions:
REMARK  status: ('A' for Active; 'I' for Inactive)
REMARK    1  A    between atoms: C_4  and  C_5 
REMARK    2  A    between atoms: C_5  and  N_6 
REMARK    3  A    between atoms: C_14  and  C_15 
REMARK    4  A    between atoms: C_18  and  O_19 
REMARK    5  A    between atoms: O_19  and  C_20 
REMARK    6  A    between atoms: C_20  and  C_21 
REMARK    7  A    between atoms: C_22  and  C_23 
ROOT
HETATM    1  N   UNL     1       3.645  28.422  49.457  1.00  0.00    -0.063 N 
HETATM    2  H   UNL     1       2.717  28.107  49.767  1.00  0.00     0.280 HD
HETATM    3  C   UNL     1       4.631  27.587  50.259  1.00  0.00     0.282 C 
HETATM    4  C   UNL     1       4.480  27.901  51.708  1.00  0.00     0.018 A 
HETATM    5  C   UNL     1       3.897  29.050  52.211  1.00  0.00    -0.023 A 
HETATM    6  C   UNL     1       3.899  29.046  53.643  1.00  0.00     0.073 A 
HETATM    7  C   UNL     1       4.471  27.903  54.148  1.00  0.00     0.088 A 
HETATM    8  N   UNL     1       4.560  27.635  55.464  1.00  0.00    -0.358 N 
HETATM    9  C   UNL     1       4.297  28.670  56.442  1.00  0.00     0.219 C 
HETATM   10  N   UNL     1       3.537  29.762  55.887  1.00  0.00    -0.332 N 
HETATM   11  C   UNL     1       3.379  30.040  54.560  1.00  0.00     0.256 C 
HETATM   12  O   UNL     1       2.823  31.063  54.178  1.00  0.00    -0.267 OA
HETATM   13  S   UNL     1       5.036  26.858  52.931  1.00  0.00    -0.074 SA
HETATM   14  C   UNL     1       3.315  30.100  51.309  1.00  0.00     0.068 C 
HETATM   15  C   UNL     1       3.739  29.895  49.841  1.00  0.00     0.240 C 
HETATM   16  H   UNL     1       5.177  26.894  55.786  1.00  0.00     0.162 HD
HETATM   17  H   UNL     1       3.218  30.482  56.518  1.00  0.00     0.165 HD
ENDROOT
BRANCH   9  18
HETATM   18  C   UNL     1       5.593  29.119  57.090  1.00  0.00    -0.016 A 
HETATM   19  C   UNL     1       5.901  30.477  57.285  1.00  0.00     0.014 A 
HETATM   20  C   UNL     1       7.124  30.863  57.845  1.00  0.00     0.038 A 
HETATM   21  C   UNL     1       8.059  29.892  58.185  1.00  0.00     0.079 A 
HETATM   22  C   UNL     1       7.768  28.538  58.018  1.00  0.00     0.038 A 
HETATM   23  C   UNL     1       6.546  28.155  57.465  1.00  0.00     0.014 A 
BRANCH  21  24
HETATM   24  O   UNL     1       9.312  30.176  58.762  1.00  0.00    -0.276 OA
BRANCH  24  25
HETATM   25  C   UNL     1       9.709  31.480  59.018  1.00  0.00     0.288 C 
HETATM   26  O   UNL     1      10.341  32.221  58.280  1.00  0.00    -0.260 OA
BRANCH  25  27
HETATM   27  C   UNL     1       9.274  31.903  60.367  1.00  0.00     0.085 C 
HETATM   28  C   UNL     1       8.102  32.502  60.626  1.00  0.00     0.043 C 
BRANCH  28  29
HETATM   29  C   UNL     1       7.735  32.836  61.958  1.00  0.00     0.075 A 
HETATM   30  O   UNL     1       6.744  33.735  62.285  1.00  0.00    -0.323 OA
HETATM   31  C   UNL     1       6.665  33.816  63.636  1.00  0.00     0.142 A 
HETATM   32  C   UNL     1       7.589  32.987  64.219  1.00  0.00     0.027 A 
HETATM   33  C   UNL     1       8.272  32.359  63.150  1.00  0.00     0.039 A 
ENDBRANCH  28  29
ENDBRANCH  25  27
ENDBRANCH  24  25
ENDBRANCH  21  24
ENDBRANCH   9  18
BRANCH   1  34
HETATM   34  C   UNL     1       3.686  28.154  47.976  1.00  0.00     0.273 C 
BRANCH  34  35
HETATM   35  C   UNL     1       2.387  28.340  47.239  1.00  0.00    -0.033 A 
HETATM   36  C   UNL     1       2.042  29.591  46.702  1.00  0.00     0.009 A 
HETATM   37  C   UNL     1       0.827  29.766  46.039  1.00  0.00     0.001 A 
HETATM   38  C   UNL     1      -0.053  28.696  45.898  1.00  0.00     0.000 A 
HETATM   39  C   UNL     1       0.282  27.446  46.413  1.00  0.00     0.001 A 
HETATM   40  C   UNL     1       1.496  27.266  47.077  1.00  0.00     0.009 A 
ENDBRANCH  34  35
ENDBRANCH   1  34
TORSDOF 7
ENDMDL
MODEL 7
REMARK VINA RESULT:      -9.9      2.551      4.387
REMARK  7 active torsions:
REMARK  status: ('A' for Active; 'I' for Inactive)
REMARK    1  A    between atoms: C_4  and  C_5 
REMARK    2  A    between atoms: C_5  and  N_6 
REMARK    3  A    between atoms: C_14  and  C_15 
REMARK    4  A    between atoms: C_18  and  O_19 
REMARK    5  A    between atoms: O_19  and  C_20 
REMARK    6  A    between atoms: C_20  and  C_21 
REMARK    7  A    between atoms: C_22  and  C_23 
ROOT
HETATM    1  N   UNL     1       6.798  23.939  53.569  1.00  0.00    -0.063 N 
HETATM    2  H   UNL     1       5.827  23.987  53.238  1.00  0.00     0.280 HD
HETATM    3  C   UNL     1       6.706  24.109  55.078  1.00  0.00     0.282 C 
HETATM    4  C   UNL     1       6.160  25.460  55.391  1.00  0.00     0.018 A 
HETATM    5  C   UNL     1       6.166  26.535  54.520  1.00  0.00    -0.023 A 
HETATM    6  C   UNL     1       5.562  27.687  55.119  1.00  0.00     0.073 A 
HETATM    7  C   UNL     1       5.126  27.429  56.396  1.00  0.00     0.088 A 
HETATM    8  N   UNL     1       4.487  28.333  57.161  1.00  0.00    -0.358 N 
HETATM    9  C   UNL     1       4.460  29.728  56.778  1.00  0.00     0.219 C 
HETATM   10  N   UNL     1       4.752  29.914  55.378  1.00  0.00    -0.332 N 
HETATM   11  C   UNL     1       5.352  29.006  54.555  1.00  0.00     0.256 C 
HETATM   12  O   UNL     1       5.682  29.293  53.410  1.00  0.00    -0.267 OA
HETATM   13  S   UNL     1       5.466  25.839  56.896  1.00  0.00    -0.074 SA
HETATM   14  C   UNL     1       6.711  26.419  53.125  1.00  0.00     0.068 C 
HETATM   15  C   UNL     1       7.520  25.121  52.931  1.00  0.00     0.240 C 
HETATM   16  H   UNL     1       4.384  28.164  58.158  1.00  0.00     0.162 HD
HETATM   17  H   UNL     1       4.657  30.843  54.997  1.00  0.00     0.165 HD
ENDROOT
BRANCH   9  18
HETATM   18  C   UNL     1       5.365  30.538  57.685  1.00  0.00    -0.016 A 
HETATM   19  C   UNL     1       6.751  30.307  57.760  1.00  0.00     0.014 A 
HETATM   20  C   UNL     1       7.555  31.040  58.640  1.00  0.00     0.038 A 
HETATM   21  C   UNL     1       6.971  31.989  59.472  1.00  0.00     0.079 A 
HETATM   22  C   UNL     1       5.603  32.248  59.404  1.00  0.00     0.038 A 
HETATM   23  C   UNL     1       4.804  31.520  58.521  1.00  0.00     0.014 A 
BRANCH  21  24
HETATM   24  O   UNL     1       7.693  32.783  60.385  1.00  0.00    -0.276 OA
BRANCH  24  25
HETATM   25  C   UNL     1       8.051  32.300  61.635  1.00  0.00     0.288 C 
HETATM   26  O   UNL     1       8.825  31.387  61.883  1.00  0.00    -0.260 OA
BRANCH  25  27
HETATM   27  C   UNL     1       7.348  33.042  62.704  1.00  0.00     0.085 C 
HETATM   28  C   UNL     1       6.034  32.937  62.954  1.00  0.00     0.043 C 
BRANCH  28  29
HETATM   29  C   UNL     1       5.440  33.649  64.031  1.00  0.00     0.075 A 
HETATM   30  O   UNL     1       4.695  33.060  65.030  1.00  0.00    -0.323 OA
HETATM   31  C   UNL     1       4.280  34.028  65.883  1.00  0.00     0.142 A 
HETATM   32  C   UNL     1       4.732  35.255  65.471  1.00  0.00     0.027 A 
HETATM   33  C   UNL     1       5.475  35.015  64.290  1.00  0.00     0.039 A 
ENDBRANCH  28  29
ENDBRANCH  25  27
ENDBRANCH  24  25
ENDBRANCH  21  24
ENDBRANCH   9  18
BRANCH   1  34
HETATM   34  C   UNL     1       7.304  22.587  53.140  1.00  0.00     0.273 C 
BRANCH  34  35
HETATM   35  C   UNL     1       8.015  21.786  54.197  1.00  0.00    -0.033 A 
HETATM   36  C   UNL     1       9.381  21.989  54.449  1.00  0.00     0.009 A 
HETATM   37  C   UNL     1      10.044  21.230  55.415  1.00  0.00     0.001 A 
HETATM   38  C   UNL     1       9.351  20.266  56.141  1.00  0.00     0.000 A 
HETATM   39  C   UNL     1       7.992  20.063  55.911  1.00  0.00     0.001 A 
HETATM   40  C   UNL     1       7.326  20.820  54.947  1.00  0.00     0.009 A 
ENDBRANCH  34  35
ENDBRANCH   1  34
TORSDOF 7
ENDMDL
MODEL 8
REMARK VINA RESULT:      -9.9      5.021     13.157
REMARK  7 active torsions:
REMARK  status: ('A' for Active; 'I' for Inactive)
REMARK    1  A    between atoms: C_4  and  C_5 
REMARK    2  A    between atoms: C_5  and  N_6 
REMARK    3  A    between atoms: C_14  and  C_15 
REMARK    4  A    between atoms: C_18  and  O_19 
REMARK    5  A    between atoms: O_19  and  C_20 
REMARK    6  A    between atoms: C_20  and  C_21 
REMARK    7  A    between atoms: C_22  and  C_23 
ROOT
HETATM    1  N   UNL     1       7.777  31.517  59.623  1.00  0.00    -0.063 N 
HETATM    2  H   UNL     1       7.416  30.876  60.340  1.00  0.00     0.280 HD
HETATM    3  C   UNL     1       6.647  31.651  58.613  1.00  0.00     0.282 C 
HETATM    4  C   UNL     1       6.390  30.325  57.982  1.00  0.00     0.018 A 
HETATM    5  C   UNL     1       7.288  29.274  57.959  1.00  0.00    -0.023 A 
HETATM    6  C   UNL     1       6.736  28.138  57.283  1.00  0.00     0.073 A 
HETATM    7  C   UNL     1       5.458  28.380  56.841  1.00  0.00     0.088 A 
HETATM    8  N   UNL     1       4.702  27.461  56.211  1.00  0.00    -0.358 N 
HETATM    9  C   UNL     1       5.297  26.236  55.720  1.00  0.00     0.219 C 
HETATM   10  N   UNL     1       6.557  25.948  56.359  1.00  0.00    -0.332 N 
HETATM   11  C   UNL     1       7.329  26.837  57.049  1.00  0.00     0.256 C 
HETATM   12  O   UNL     1       8.449  26.541  57.451  1.00  0.00    -0.267 OA
HETATM   13  S   UNL     1       4.930  29.958  57.190  1.00  0.00    -0.074 SA
HETATM   14  C   UNL     1       8.633  29.369  58.620  1.00  0.00     0.068 C 
HETATM   15  C   UNL     1       8.983  30.821  59.002  1.00  0.00     0.240 C 
HETATM   16  H   UNL     1       3.863  27.753  55.718  1.00  0.00     0.162 HD
HETATM   17  H   UNL     1       6.996  25.063  56.156  1.00  0.00     0.165 HD
ENDROOT
BRANCH   9  18
HETATM   18  C   UNL     1       5.393  26.271  54.207  1.00  0.00    -0.016 A 
HETATM   19  C   UNL     1       5.732  27.442  53.506  1.00  0.00     0.014 A 
HETATM   20  C   UNL     1       5.769  27.455  52.107  1.00  0.00     0.038 A 
HETATM   21  C   UNL     1       5.439  26.303  51.401  1.00  0.00     0.079 A 
HETATM   22  C   UNL     1       5.119  25.126  52.075  1.00  0.00     0.038 A 
HETATM   23  C   UNL     1       5.088  25.112  53.470  1.00  0.00     0.014 A 
BRANCH  21  24
HETATM   24  O   UNL     1       5.455  26.211  49.996  1.00  0.00    -0.276 OA
BRANCH  24  25
HETATM   25  C   UNL     1       4.299  26.385  49.249  1.00  0.00     0.288 C 
HETATM   26  O   UNL     1       3.494  25.527  48.920  1.00  0.00    -0.260 OA
BRANCH  25  27
HETATM   27  C   UNL     1       4.139  27.802  48.855  1.00  0.00     0.085 C 
HETATM   28  C   UNL     1       5.157  28.617  48.548  1.00  0.00     0.043 C 
BRANCH  28  29
HETATM   29  C   UNL     1       4.918  29.955  48.132  1.00  0.00     0.075 A 
HETATM   30  O   UNL     1       4.621  30.323  46.838  1.00  0.00    -0.323 OA
HETATM   31  C   UNL     1       4.459  31.668  46.799  1.00  0.00     0.142 A 
HETATM   32  C   UNL     1       4.646  32.208  48.045  1.00  0.00     0.027 A 
HETATM   33  C   UNL     1       4.936  31.117  48.899  1.00  0.00     0.039 A 
ENDBRANCH  28  29
ENDBRANCH  25  27
ENDBRANCH  24  25
ENDBRANCH  21  24
ENDBRANCH   9  18
BRANCH   1  34
HETATM   34  C   UNL     1       8.094  32.797  60.351  1.00  0.00     0.273 C 
BRANCH  34  35
HETATM   35  C   UNL     1       7.484  32.943  61.719  1.00  0.00    -0.033 A 
HETATM   36  C   UNL     1       8.221  32.617  62.869  1.00  0.00     0.009 A 
HETATM   37  C   UNL     1       7.646  32.732  64.135  1.00  0.00     0.001 A 
HETATM   38  C   UNL     1       6.334  33.178  64.268  1.00  0.00     0.000 A 
HETATM   39  C   UNL     1       5.596  33.518  63.137  1.00  0.00     0.001 A 
HETATM   40  C   UNL     1       6.167  33.404  61.869  1.00  0.00     0.009 A 
ENDBRANCH  34  35
ENDBRANCH   1  34
TORSDOF 7
ENDMDL
MODEL 9
REMARK VINA RESULT:      -9.6      9.653     14.465
REMARK  7 active torsions:
REMARK  status: ('A' for Active; 'I' for Inactive)
REMARK    1  A    between atoms: C_4  and  C_5 
REMARK    2  A    between atoms: C_5  and  N_6 
REMARK    3  A    between atoms: C_14  and  C_15 
REMARK    4  A    between atoms: C_18  and  O_19 
REMARK    5  A    between atoms: O_19  and  C_20 
REMARK    6  A    between atoms: C_20  and  C_21 
REMARK    7  A    between atoms: C_22  and  C_23 
ROOT
HETATM    1  N   UNL     1      -0.714  29.330  45.921  1.00  0.00    -0.063 N 
HETATM    2  H   UNL     1      -0.034  29.491  45.168  1.00  0.00     0.280 HD
HETATM    3  C   UNL     1      -0.149  30.067  47.125  1.00  0.00     0.282 C 
HETATM    4  C   UNL     1       1.151  29.450  47.516  1.00  0.00     0.018 A 
HETATM    5  C   UNL     1       1.557  28.175  47.166  1.00  0.00    -0.023 A 
HETATM    6  C   UNL     1       2.858  27.885  47.692  1.00  0.00     0.073 A 
HETATM    7  C   UNL     1       3.369  28.946  48.398  1.00  0.00     0.088 A 
HETATM    8  N   UNL     1       4.593  28.945  48.960  1.00  0.00    -0.358 N 
HETATM    9  C   UNL     1       5.342  27.713  49.081  1.00  0.00     0.219 C 
HETATM   10  N   UNL     1       4.864  26.695  48.179  1.00  0.00    -0.332 N 
HETATM   11  C   UNL     1       3.653  26.683  47.550  1.00  0.00     0.256 C 
HETATM   12  O   UNL     1       3.274  25.714  46.901  1.00  0.00    -0.267 OA
HETATM   13  S   UNL     1       2.297  30.265  48.471  1.00  0.00    -0.074 SA
HETATM   14  C   UNL     1       0.709  27.285  46.304  1.00  0.00     0.068 C 
HETATM   15  C   UNL     1      -0.728  27.824  46.161  1.00  0.00     0.240 C 
HETATM   16  H   UNL     1       4.831  29.657  49.645  1.00  0.00     0.162 HD
HETATM   17  H   UNL     1       5.389  25.835  48.119  1.00  0.00     0.165 HD
ENDROOT
BRANCH   9  18
HETATM   18  C   UNL     1       5.371  27.258  50.527  1.00  0.00    -0.016 A 
HETATM   19  C   UNL     1       5.029  25.947  50.907  1.00  0.00     0.014 A 
HETATM   20  C   UNL     1       5.022  25.569  52.254  1.00  0.00     0.038 A 
HETATM   21  C   UNL     1       5.328  26.508  53.232  1.00  0.00     0.079 A 
HETATM   22  C   UNL     1       5.688  27.808  52.878  1.00  0.00     0.038 A 
HETATM   23  C   UNL     1       5.701  28.183  51.534  1.00  0.00     0.014 A 
BRANCH  21  24
HETATM   24  O   UNL     1       5.358  26.226  54.611  1.00  0.00    -0.276 OA
BRANCH  24  25
HETATM   25  C   UNL     1       6.529  25.831  55.242  1.00  0.00     0.288 C 
HETATM   26  O   UNL     1       7.304  26.534  55.872  1.00  0.00    -0.260 OA
BRANCH  25  27
HETATM   27  C   UNL     1       6.762  24.383  55.051  1.00  0.00     0.085 C 
HETATM   28  C   UNL     1       7.697  23.872  54.236  1.00  0.00     0.043 C 
BRANCH  28  29
HETATM   29  C   UNL     1       7.892  22.467  54.142  1.00  0.00     0.075 A 
HETATM   30  O   UNL     1       7.728  21.591  55.194  1.00  0.00    -0.323 OA
HETATM   31  C   UNL     1       7.999  20.338  54.755  1.00  0.00     0.142 A 
HETATM   32  C   UNL     1       8.344  20.360  53.428  1.00  0.00     0.027 A 
HETATM   33  C   UNL     1       8.274  21.718  53.034  1.00  0.00     0.039 A 
ENDBRANCH  28  29
ENDBRANCH  25  27
ENDBRANCH  24  25
ENDBRANCH  21  24
ENDBRANCH   9  18
BRANCH   1  34
HETATM   34  C   UNL     1      -2.014  29.898  45.416  1.00  0.00     0.273 C 
BRANCH  34  35
HETATM   35  C   UNL     1      -2.272  29.738  43.942  1.00  0.00    -0.033 A 
HETATM   36  C   UNL     1      -3.420  30.292  43.353  1.00  0.00     0.009 A 
HETATM   37  C   UNL     1      -3.669  30.124  41.991  1.00  0.00     0.001 A 
HETATM   38  C   UNL     1      -2.775  29.407  41.201  1.00  0.00     0.000 A 
HETATM   39  C   UNL     1      -1.625  28.863  41.769  1.00  0.00     0.001 A 
HETATM   40  C   UNL     1      -1.372  29.029  43.131  1.00  0.00     0.009 A 
ENDBRANCH  34  35
ENDBRANCH   1  34
TORSDOF 7
ENDMDL
MODEL 10
REMARK VINA RESULT:      -9.6      3.878     12.931
REMARK  7 active torsions:
REMARK  status: ('A' for Active; 'I' for Inactive)
REMARK    1  A    between atoms: C_4  and  C_5 
REMARK    2  A    between atoms: C_5  and  N_6 
REMARK    3  A    between atoms: C_14  and  C_15 
REMARK    4  A    between atoms: C_18  and  O_19 
REMARK    5  A    between atoms: O_19  and  C_20 
REMARK    6  A    between atoms: C_20  and  C_21 
REMARK    7  A    between atoms: C_22  and  C_23 
ROOT
HETATM    1  N   UNL     1       4.339  34.424  62.379  1.00  0.00    -0.063 N 
HETATM    2  H   UNL     1       4.421  35.123  61.630  1.00  0.00     0.280 HD
HETATM    3  C   UNL     1       5.635  33.631  62.319  1.00  0.00     0.282 C 
HETATM    4  C   UNL     1       5.720  32.921  61.011  1.00  0.00     0.018 A 
HETATM    5  C   UNL     1       4.641  32.646  60.191  1.00  0.00    -0.023 A 
HETATM    6  C   UNL     1       5.057  31.960  59.004  1.00  0.00     0.073 A 
HETATM    7  C   UNL     1       6.416  31.758  58.982  1.00  0.00     0.088 A 
HETATM    8  N   UNL     1       7.064  31.172  57.959  1.00  0.00    -0.358 N 
HETATM    9  C   UNL     1       6.326  30.470  56.930  1.00  0.00     0.219 C 
HETATM   10  N   UNL     1       4.939  30.863  56.892  1.00  0.00    -0.332 N 
HETATM   11  C   UNL     1       4.258  31.503  57.886  1.00  0.00     0.256 C 
HETATM   12  O   UNL     1       3.047  31.684  57.823  1.00  0.00    -0.267 OA
HETATM   13  S   UNL     1       7.190  32.346  60.378  1.00  0.00    -0.074 SA
HETATM   14  C   UNL     1       3.249  33.085  60.543  1.00  0.00     0.068 C 
HETATM   15  C   UNL     1       3.147  33.548  62.009  1.00  0.00     0.240 C 
HETATM   16  H   UNL     1       8.021  30.854  58.086  1.00  0.00     0.162 HD
HETATM   17  H   UNL     1       4.369  30.503  56.141  1.00  0.00     0.165 HD
ENDROOT
BRANCH   9  18
HETATM   18  C   UNL     1       6.515  28.973  57.079  1.00  0.00    -0.016 A 
HETATM   19  C   UNL     1       7.692  28.417  57.611  1.00  0.00     0.014 A 
HETATM   20  C   UNL     1       7.856  27.029  57.695  1.00  0.00     0.038 A 
HETATM   21  C   UNL     1       6.854  26.191  57.220  1.00  0.00     0.079 A 
HETATM   22  C   UNL     1       5.671  26.719  56.705  1.00  0.00     0.038 A 
HETATM   23  C   UNL     1       5.507  28.102  56.628  1.00  0.00     0.014 A 
BRANCH  21  24
HETATM   24  O   UNL     1       6.919  24.785  57.266  1.00  0.00    -0.276 OA
BRANCH  24  25
HETATM   25  C   UNL     1       8.135  24.121  57.355  1.00  0.00     0.288 C 
HETATM   26  O   UNL     1       9.079  24.398  58.079  1.00  0.00    -0.260 OA
BRANCH  25  27
HETATM   27  C   UNL     1       8.177  22.980  56.414  1.00  0.00     0.085 C 
HETATM   28  C   UNL     1       8.271  23.105  55.083  1.00  0.00     0.043 C 
BRANCH  28  29
HETATM   29  C   UNL     1       8.354  21.958  54.248  1.00  0.00     0.075 A 
HETATM   30  O   UNL     1       8.989  20.787  54.603  1.00  0.00    -0.323 OA
HETATM   31  C   UNL     1       8.880  19.911  53.574  1.00  0.00     0.142 A 
HETATM   32  C   UNL     1       8.185  20.476  52.537  1.00  0.00     0.027 A 
HETATM   33  C   UNL     1       7.846  21.781  52.965  1.00  0.00     0.039 A 
ENDBRANCH  28  29
ENDBRANCH  25  27
ENDBRANCH  24  25
ENDBRANCH  21  24
ENDBRANCH   9  18
BRANCH   1  34
HETATM   34  C   UNL     1       4.169  35.215  63.649  1.00  0.00     0.273 C 
BRANCH  34  35
HETATM   35  C   UNL     1       4.872  36.544  63.694  1.00  0.00    -0.033 A 
HETATM   36  C   UNL     1       5.032  37.227  64.911  1.00  0.00     0.009 A 
HETATM   37  C   UNL     1       5.665  38.470  64.947  1.00  0.00     0.001 A 
HETATM   38  C   UNL     1       6.151  39.041  63.774  1.00  0.00     0.000 A 
HETATM   39  C   UNL     1       6.012  38.369  62.563  1.00  0.00     0.001 A 
HETATM   40  C   UNL     1       5.379  37.126  62.521  1.00  0.00     0.009 A 
ENDBRANCH  34  35
ENDBRANCH   1  34
TORSDOF 7
ENDMDL
