MODEL 1
REMARK VINA RESULT:      -9.2      0.000      0.000
REMARK  5 active torsions:
REMARK  status: ('A' for Active; 'I' for Inactive)
REMARK    1  A    between atoms: C_6  and  N_7 
REMARK       I    between atoms: N_7  and  C_8 
REMARK    2  A    between atoms: C_8  and  C_9 
REMARK    3  A    between atoms: C_9  and  C_10 
REMARK    4  A    between atoms: C_13  and  O_14 
REMARK    5  A    between atoms: C_19  and  C_20 
ROOT
HETATM    1  C   UNL     1       5.033  25.973  51.013  1.00  0.00     0.073 C 
HETATM    2  C   UNL     1       5.807  26.783  51.987  1.00  0.00     0.065 A 
HETATM    3  N   UNL     1       5.714  28.119  51.966  1.00  0.00    -0.177 NA
HETATM    4  N   UNL     1       6.515  28.513  52.971  1.00  0.00    -0.262 N 
HETATM    5  H   UNL     1       6.620  29.505  53.173  1.00  0.00     0.191 HD
HETATM    6  C   UNL     1       7.130  27.480  53.629  1.00  0.00     0.137 A 
HETATM    7  C   UNL     1       6.685  26.327  53.011  1.00  0.00     0.046 A 
ENDROOT
BRANCH   6   8
HETATM    8  N   UNL     1       8.010  27.654  54.684  1.00  0.00    -0.311 N 
HETATM    9  C   UNL     1       7.597  27.585  56.009  1.00  0.00     0.227 C 
HETATM   10  O   UNL     1       6.434  27.374  56.351  1.00  0.00    -0.273 OA
HETATM   11  H   UNL     1       8.982  27.831  54.459  1.00  0.00     0.170 HD
BRANCH   9  12
HETATM   12  C   UNL     1       8.760  27.721  56.983  1.00  0.00     0.141 C 
BRANCH  12  13
HETATM   13  C   UNL     1       8.890  29.070  57.648  1.00  0.00    -0.049 A 
HETATM   14  C   UNL     1       7.889  29.544  58.504  1.00  0.00     0.010 A 
HETATM   15  C   UNL     1       8.034  30.774  59.151  1.00  0.00     0.037 A 
HETATM   16  C   UNL     1       9.181  31.546  58.965  1.00  0.00     0.068 A 
HETATM   17  C   UNL     1      10.176  31.088  58.101  1.00  0.00     0.037 A 
HETATM   18  C   UNL     1      10.030  29.859  57.447  1.00  0.00     0.010 A 
BRANCH  16  19
HETATM   19  O   UNL     1       9.206  32.716  59.671  1.00  0.00    -0.356 OA
HETATM   20  C   UNL     1       8.331  32.807  60.789  1.00  0.00     0.210 C 
ENDBRANCH  16  19
ENDBRANCH  12  13
ENDBRANCH   9  12
ENDBRANCH   6   8
BRANCH   7  21
HETATM   21  C   UNL     1       7.077  24.981  53.380  1.00  0.00    -0.020 A 
HETATM   22  C   UNL     1       6.631  24.414  54.581  1.00  0.00     0.014 A 
HETATM   23  C   UNL     1       7.011  23.116  54.932  1.00  0.00     0.020 A 
HETATM   24  C   UNL     1       7.830  22.382  54.077  1.00  0.00     0.011 A 
HETATM   25 BR   UNL     1       8.342  20.625  54.549  1.00  0.00    -0.051 Br
HETATM   26  C   UNL     1       8.272  22.931  52.875  1.00  0.00     0.020 A 
HETATM   27  C   UNL     1       7.895  24.231  52.526  1.00  0.00     0.014 A 
ENDBRANCH   7  21
TORSDOF 5
ENDMDL
MODEL 2
REMARK VINA RESULT:      -8.9      3.736      5.155
REMARK  5 active torsions:
REMARK  status: ('A' for Active; 'I' for Inactive)
REMARK    1  A    between atoms: C_6  and  N_7 
REMARK       I    between atoms: N_7  and  C_8 
REMARK    2  A    between atoms: C_8  and  C_9 
REMARK    3  A    between atoms: C_9  and  C_10 
REMARK    4  A    between atoms: C_13  and  O_14 
REMARK    5  A    between atoms: C_19  and  C_20 
ROOT
HETATM    1  C   UNL     1       8.112  20.697  52.941  1.00  0.00     0.073 C 
HETATM    2  C   UNL     1       8.010  21.431  54.227  1.00  0.00     0.065 A 
HETATM    3  N   UNL     1       8.399  20.840  55.364  1.00  0.00    -0.177 NA
HETATM    4  N   UNL     1       8.188  21.778  56.304  1.00  0.00    -0.262 N 
HETATM    5  H   UNL     1       8.410  21.577  57.276  1.00  0.00     0.191 HD
HETATM    6  C   UNL     1       7.664  22.947  55.814  1.00  0.00     0.137 A 
HETATM    7  C   UNL     1       7.538  22.756  54.452  1.00  0.00     0.046 A 
ENDROOT
BRANCH   6   8
HETATM    8  N   UNL     1       7.351  24.040  56.603  1.00  0.00    -0.311 N 
HETATM    9  C   UNL     1       8.330  24.870  57.137  1.00  0.00     0.227 C 
HETATM   10  O   UNL     1       9.536  24.701  56.963  1.00  0.00    -0.273 OA
HETATM   11  H   UNL     1       6.370  24.226  56.779  1.00  0.00     0.170 HD
BRANCH   9  12
HETATM   12  C   UNL     1       7.735  26.051  57.892  1.00  0.00     0.141 C 
BRANCH  12  13
HETATM   13  C   UNL     1       7.060  27.092  57.033  1.00  0.00    -0.049 A 
HETATM   14  C   UNL     1       6.899  26.888  55.657  1.00  0.00     0.010 A 
HETATM   15  C   UNL     1       6.235  27.835  54.874  1.00  0.00     0.037 A 
HETATM   16  C   UNL     1       5.709  28.994  55.448  1.00  0.00     0.068 A 
HETATM   17  C   UNL     1       5.879  29.211  56.815  1.00  0.00     0.037 A 
HETATM   18  C   UNL     1       6.550  28.267  57.601  1.00  0.00     0.010 A 
BRANCH  16  19
HETATM   19  O   UNL     1       5.066  29.826  54.575  1.00  0.00    -0.356 OA
HETATM   20  C   UNL     1       4.386  29.210  53.488  1.00  0.00     0.210 C 
ENDBRANCH  16  19
ENDBRANCH  12  13
ENDBRANCH   9  12
ENDBRANCH   6   8
BRANCH   7  21
HETATM   21  C   UNL     1       7.022  23.737  53.518  1.00  0.00    -0.020 A 
HETATM   22  C   UNL     1       5.666  24.092  53.536  1.00  0.00     0.014 A 
HETATM   23  C   UNL     1       5.173  25.039  52.634  1.00  0.00     0.020 A 
HETATM   24  C   UNL     1       6.038  25.638  51.721  1.00  0.00     0.011 A 
HETATM   25 BR   UNL     1       5.373  26.921  50.503  1.00  0.00    -0.051 Br
HETATM   26  C   UNL     1       7.390  25.301  51.700  1.00  0.00     0.020 A 
HETATM   27  C   UNL     1       7.882  24.351  52.599  1.00  0.00     0.014 A 
ENDBRANCH   7  21
TORSDOF 5
ENDMDL
MODEL 3
REMARK VINA RESULT:      -8.6      3.501      5.236
REMARK  5 active torsions:
REMARK  status: ('A' for Active; 'I' for Inactive)
REMARK    1  A    between atoms: C_6  and  N_7 
REMARK       I    between atoms: N_7  and  C_8 
REMARK    2  A    between atoms: C_8  and  C_9 
REMARK    3  A    between atoms: C_9  and  C_10 
REMARK    4  A    between atoms: C_13  and  O_14 
REMARK    5  A    between atoms: C_19  and  C_20 
ROOT
HETATM    1  C   UNL     1       8.167  21.463  54.508  1.00  0.00     0.073 C 
HETATM    2  C   UNL     1       7.932  22.539  55.503  1.00  0.00     0.065 A 
HETATM    3  N   UNL     1       8.310  22.365  56.776  1.00  0.00    -0.177 NA
HETATM    4  N   UNL     1       7.967  23.518  57.375  1.00  0.00    -0.262 N 
HETATM    5  H   UNL     1       8.153  23.646  58.368  1.00  0.00     0.191 HD
HETATM    6  C   UNL     1       7.370  24.424  56.537  1.00  0.00     0.137 A 
HETATM    7  C   UNL     1       7.334  23.816  55.297  1.00  0.00     0.046 A 
ENDROOT
BRANCH   6   8
HETATM    8  N   UNL     1       6.921  25.669  56.943  1.00  0.00    -0.311 N 
HETATM    9  C   UNL     1       7.793  26.674  57.343  1.00  0.00     0.227 C 
HETATM   10  O   UNL     1       9.016  26.543  57.378  1.00  0.00    -0.273 OA
HETATM   11  H   UNL     1       5.921  25.832  56.933  1.00  0.00     0.170 HD
BRANCH   9  12
HETATM   12  C   UNL     1       7.067  27.976  57.657  1.00  0.00     0.141 C 
BRANCH  12  13
HETATM   13  C   UNL     1       6.087  28.437  56.605  1.00  0.00    -0.049 A 
HETATM   14  C   UNL     1       4.890  29.064  56.970  1.00  0.00     0.010 A 
HETATM   15  C   UNL     1       4.006  29.527  55.993  1.00  0.00     0.037 A 
HETATM   16  C   UNL     1       4.305  29.386  54.636  1.00  0.00     0.068 A 
HETATM   17  C   UNL     1       5.488  28.748  54.265  1.00  0.00     0.037 A 
HETATM   18  C   UNL     1       6.373  28.276  55.243  1.00  0.00     0.010 A 
BRANCH  16  19
HETATM   19  O   UNL     1       3.367  29.900  53.785  1.00  0.00    -0.356 OA
HETATM   20  C   UNL     1       3.664  31.158  53.192  1.00  0.00     0.210 C 
ENDBRANCH  16  19
ENDBRANCH  12  13
ENDBRANCH   9  12
ENDBRANCH   6   8
BRANCH   7  21
HETATM   21  C   UNL     1       6.785  24.410  54.094  1.00  0.00    -0.020 A 
HETATM   22  C   UNL     1       7.602  24.642  52.979  1.00  0.00     0.014 A 
HETATM   23  C   UNL     1       7.068  25.215  51.822  1.00  0.00     0.020 A 
HETATM   24  C   UNL     1       5.715  25.548  51.777  1.00  0.00     0.011 A 
HETATM   25 BR   UNL     1       4.992  26.319  50.211  1.00  0.00    -0.051 Br
HETATM   26  C   UNL     1       4.892  25.313  52.875  1.00  0.00     0.020 A 
HETATM   27  C   UNL     1       5.427  24.743  54.034  1.00  0.00     0.014 A 
ENDBRANCH   7  21
TORSDOF 5
ENDMDL
MODEL 4
REMARK VINA RESULT:      -8.5      5.984      8.379
REMARK  5 active torsions:
REMARK  status: ('A' for Active; 'I' for Inactive)
REMARK    1  A    between atoms: C_6  and  N_7 
REMARK       I    between atoms: N_7  and  C_8 
REMARK    2  A    between atoms: C_8  and  C_9 
REMARK    3  A    between atoms: C_9  and  C_10 
REMARK    4  A    between atoms: C_13  and  O_14 
REMARK    5  A    between atoms: C_19  and  C_20 
ROOT
HETATM    1  C   UNL     1       5.045  30.659  55.624  1.00  0.00     0.073 C 
HETATM    2  C   UNL     1       6.028  30.463  56.718  1.00  0.00     0.065 A 
HETATM    3  N   UNL     1       7.095  29.677  56.523  1.00  0.00    -0.177 NA
HETATM    4  N   UNL     1       7.761  29.743  57.690  1.00  0.00    -0.262 N 
HETATM    5  H   UNL     1       8.629  29.225  57.805  1.00  0.00     0.191 HD
HETATM    6  C   UNL     1       7.153  30.531  58.633  1.00  0.00     0.137 A 
HETATM    7  C   UNL     1       6.013  31.024  58.028  1.00  0.00     0.046 A 
ENDROOT
BRANCH   6   8
HETATM    8  N   UNL     1       7.652  30.727  59.909  1.00  0.00    -0.311 N 
HETATM    9  C   UNL     1       8.500  31.784  60.216  1.00  0.00     0.227 C 
HETATM   10  O   UNL     1       8.879  32.615  59.392  1.00  0.00    -0.273 OA
HETATM   11  H   UNL     1       7.371  30.070  60.628  1.00  0.00     0.170 HD
BRANCH   9  12
HETATM   12  C   UNL     1       8.841  31.838  61.699  1.00  0.00     0.141 C 
BRANCH  12  13
HETATM   13  C   UNL     1       7.713  32.272  62.604  1.00  0.00    -0.049 A 
HETATM   14  C   UNL     1       6.380  32.046  62.243  1.00  0.00     0.010 A 
HETATM   15  C   UNL     1       5.342  32.410  63.103  1.00  0.00     0.037 A 
HETATM   16  C   UNL     1       5.613  32.994  64.342  1.00  0.00     0.068 A 
HETATM   17  C   UNL     1       6.938  33.237  64.702  1.00  0.00     0.037 A 
HETATM   18  C   UNL     1       7.981  32.879  63.838  1.00  0.00     0.010 A 
BRANCH  16  19
HETATM   19  O   UNL     1       4.509  33.283  65.095  1.00  0.00    -0.356 OA
HETATM   20  C   UNL     1       4.726  34.028  66.286  1.00  0.00     0.210 C 
ENDBRANCH  16  19
ENDBRANCH  12  13
ENDBRANCH   9  12
ENDBRANCH   6   8
BRANCH   7  21
HETATM   21  C   UNL     1       5.055  31.911  58.656  1.00  0.00    -0.020 A 
HETATM   22  C   UNL     1       3.935  31.393  59.320  1.00  0.00     0.014 A 
HETATM   23  C   UNL     1       3.014  32.252  59.925  1.00  0.00     0.020 A 
HETATM   24  C   UNL     1       3.218  33.630  59.873  1.00  0.00     0.011 A 
HETATM   25 BR   UNL     1       1.974  34.793  60.694  1.00  0.00    -0.051 Br
HETATM   26  C   UNL     1       4.333  34.156  59.225  1.00  0.00     0.020 A 
HETATM   27  C   UNL     1       5.252  33.297  58.617  1.00  0.00     0.014 A 
ENDBRANCH   7  21
TORSDOF 5
ENDMDL
MODEL 5
REMARK VINA RESULT:      -8.4      2.749      3.815
REMARK  5 active torsions:
REMARK  status: ('A' for Active; 'I' for Inactive)
REMARK    1  A    between atoms: C_6  and  N_7 
REMARK       I    between atoms: N_7  and  C_8 
REMARK    2  A    between atoms: C_8  and  C_9 
REMARK    3  A    between atoms: C_9  and  C_10 
REMARK    4  A    between atoms: C_13  and  O_14 
REMARK    5  A    between atoms: C_19  and  C_20 
ROOT
HETATM    1  C   UNL     1       4.580  26.257  49.332  1.00  0.00     0.073 C 
HETATM    2  C   UNL     1       4.804  27.304  50.360  1.00  0.00     0.065 A 
HETATM    3  N   UNL     1       4.398  28.560  50.132  1.00  0.00    -0.177 NA
HETATM    4  N   UNL     1       4.739  29.217  51.254  1.00  0.00    -0.262 N 
HETATM    5  H   UNL     1       4.533  30.210  51.339  1.00  0.00     0.191 HD
HETATM    6  C   UNL     1       5.361  28.433  52.190  1.00  0.00     0.137 A 
HETATM    7  C   UNL     1       5.418  27.168  51.638  1.00  0.00     0.046 A 
ENDROOT
BRANCH   6   8
HETATM    8  N   UNL     1       5.814  28.904  53.411  1.00  0.00    -0.311 N 
HETATM    9  C   UNL     1       4.945  29.369  54.390  1.00  0.00     0.227 C 
HETATM   10  O   UNL     1       3.723  29.409  54.255  1.00  0.00    -0.273 OA
HETATM   11  H   UNL     1       6.814  28.893  53.576  1.00  0.00     0.170 HD
BRANCH   9  12
HETATM   12  C   UNL     1       5.672  29.748  55.674  1.00  0.00     0.141 C 
BRANCH  12  13
HETATM   13  C   UNL     1       6.424  28.624  56.345  1.00  0.00    -0.049 A 
HETATM   14  C   UNL     1       5.780  27.420  56.655  1.00  0.00     0.010 A 
HETATM   15  C   UNL     1       6.490  26.367  57.237  1.00  0.00     0.037 A 
HETATM   16  C   UNL     1       7.854  26.490  57.508  1.00  0.00     0.068 A 
HETATM   17  C   UNL     1       8.498  27.692  57.216  1.00  0.00     0.037 A 
HETATM   18  C   UNL     1       7.787  28.752  56.640  1.00  0.00     0.010 A 
BRANCH  16  19
HETATM   19  O   UNL     1       8.433  25.381  58.058  1.00  0.00    -0.356 OA
HETATM   20  C   UNL     1       8.927  24.402  57.152  1.00  0.00     0.210 C 
ENDBRANCH  16  19
ENDBRANCH  12  13
ENDBRANCH   9  12
ENDBRANCH   6   8
BRANCH   7  21
HETATM   21  C   UNL     1       5.997  26.005  52.280  1.00  0.00    -0.020 A 
HETATM   22  C   UNL     1       7.160  25.414  51.767  1.00  0.00     0.014 A 
HETATM   23  C   UNL     1       7.715  24.293  52.389  1.00  0.00     0.020 A 
HETATM   24  C   UNL     1       7.112  23.768  53.530  1.00  0.00     0.011 A 
HETATM   25 BR   UNL     1       7.864  22.253  54.375  1.00  0.00    -0.051 Br
HETATM   26  C   UNL     1       5.961  24.352  54.056  1.00  0.00     0.020 A 
HETATM   27  C   UNL     1       5.404  25.471  53.430  1.00  0.00     0.014 A 
ENDBRANCH   7  21
TORSDOF 5
ENDMDL
MODEL 6
REMARK VINA RESULT:      -8.4      4.468      6.671
REMARK  5 active torsions:
REMARK  status: ('A' for Active; 'I' for Inactive)
REMARK    1  A    between atoms: C_6  and  N_7 
REMARK       I    between atoms: N_7  and  C_8 
REMARK    2  A    between atoms: C_8  and  C_9 
REMARK    3  A    between atoms: C_9  and  C_10 
REMARK    4  A    between atoms: C_13  and  O_14 
REMARK    5  A    between atoms: C_19  and  C_20 
ROOT
HETATM    1  C   UNL     1      10.357  29.786  55.760  1.00  0.00     0.073 C 
HETATM    2  C   UNL     1       9.965  30.267  57.109  1.00  0.00     0.065 A 
HETATM    3  N   UNL     1      10.649  31.262  57.687  1.00  0.00    -0.177 NA
HETATM    4  N   UNL     1      10.022  31.445  58.862  1.00  0.00    -0.262 N 
HETATM    5  H   UNL     1      10.353  32.162  59.504  1.00  0.00     0.191 HD
HETATM    6  C   UNL     1       8.967  30.593  59.067  1.00  0.00     0.137 A 
HETATM    7  C   UNL     1       8.898  29.808  57.933  1.00  0.00     0.046 A 
ENDROOT
BRANCH   6   8
HETATM    8  N   UNL     1       8.191  30.591  60.214  1.00  0.00    -0.311 N 
HETATM    9  C   UNL     1       8.637  31.145  61.408  1.00  0.00     0.227 C 
HETATM   10  O   UNL     1       9.742  31.667  61.547  1.00  0.00    -0.273 OA
HETATM   11  H   UNL     1       7.270  30.173  60.155  1.00  0.00     0.170 HD
BRANCH   9  12
HETATM   12  C   UNL     1       7.573  31.100  62.496  1.00  0.00     0.141 C 
BRANCH  12  13
HETATM   13  C   UNL     1       7.098  32.446  62.990  1.00  0.00    -0.049 A 
HETATM   14  C   UNL     1       6.312  33.269  62.175  1.00  0.00     0.010 A 
HETATM   15  C   UNL     1       5.839  34.494  62.652  1.00  0.00     0.037 A 
HETATM   16  C   UNL     1       6.131  34.914  63.950  1.00  0.00     0.068 A 
HETATM   17  C   UNL     1       6.927  34.107  64.763  1.00  0.00     0.037 A 
HETATM   18  C   UNL     1       7.408  32.882  64.285  1.00  0.00     0.010 A 
BRANCH  16  19
HETATM   19  O   UNL     1       5.591  36.121  64.298  1.00  0.00    -0.356 OA
HETATM   20  C   UNL     1       4.173  36.184  64.388  1.00  0.00     0.210 C 
ENDBRANCH  16  19
ENDBRANCH  12  13
ENDBRANCH   9  12
ENDBRANCH   6   8
BRANCH   7  21
HETATM   21  C   UNL     1       7.924  28.759  57.706  1.00  0.00    -0.020 A 
HETATM   22  C   UNL     1       6.571  29.073  57.516  1.00  0.00     0.014 A 
HETATM   23  C   UNL     1       5.636  28.058  57.298  1.00  0.00     0.020 A 
HETATM   24  C   UNL     1       6.054  26.729  57.261  1.00  0.00     0.011 A 
HETATM   25 BR   UNL     1       4.790  25.356  56.963  1.00  0.00    -0.051 Br
HETATM   26  C   UNL     1       7.398  26.405  57.439  1.00  0.00     0.020 A 
HETATM   27  C   UNL     1       8.332  27.420  57.661  1.00  0.00     0.014 A 
ENDBRANCH   7  21
TORSDOF 5
ENDMDL
MODEL 7
REMARK VINA RESULT:      -8.2      4.015      8.528
REMARK  5 active torsions:
REMARK  status: ('A' for Active; 'I' for Inactive)
REMARK    1  A    between atoms: C_6  and  N_7 
REMARK       I    between atoms: N_7  and  C_8 
REMARK    2  A    between atoms: C_8  and  C_9 
REMARK    3  A    between atoms: C_9  and  C_10 
REMARK    4  A    between atoms: C_13  and  O_14 
REMARK    5  A    between atoms: C_19  and  C_20 
ROOT
HETATM    1  C   UNL     1       5.687  27.025  56.803  1.00  0.00     0.073 C 
HETATM    2  C   UNL     1       5.166  27.152  55.418  1.00  0.00     0.065 A 
HETATM    3  N   UNL     1       4.322  28.146  55.112  1.00  0.00    -0.177 NA
HETATM    4  N   UNL     1       4.077  27.968  53.802  1.00  0.00    -0.262 N 
HETATM    5  H   UNL     1       3.453  28.607  53.314  1.00  0.00     0.191 HD
HETATM    6  C   UNL     1       4.722  26.887  53.258  1.00  0.00     0.137 A 
HETATM    7  C   UNL     1       5.450  26.330  54.291  1.00  0.00     0.046 A 
ENDROOT
BRANCH   6   8
HETATM    8  N   UNL     1       4.600  26.506  51.932  1.00  0.00    -0.311 N 
HETATM    9  C   UNL     1       5.063  27.300  50.890  1.00  0.00     0.227 C 
HETATM   10  O   UNL     1       5.602  28.394  51.054  1.00  0.00    -0.273 OA
HETATM   11  H   UNL     1       4.163  25.612  51.741  1.00  0.00     0.170 HD
BRANCH   9  12
HETATM   12  C   UNL     1       4.896  26.627  49.534  1.00  0.00     0.141 C 
BRANCH  12  13
HETATM   13  C   UNL     1       3.571  26.870  48.852  1.00  0.00    -0.049 A 
HETATM   14  C   UNL     1       3.083  25.970  47.898  1.00  0.00     0.010 A 
HETATM   15  C   UNL     1       1.837  26.178  47.302  1.00  0.00     0.037 A 
HETATM   16  C   UNL     1       1.051  27.276  47.654  1.00  0.00     0.068 A 
HETATM   17  C   UNL     1       1.538  28.186  48.593  1.00  0.00     0.037 A 
HETATM   18  C   UNL     1       2.790  27.984  49.187  1.00  0.00     0.010 A 
BRANCH  16  19
HETATM   19  O   UNL     1      -0.153  27.350  47.013  1.00  0.00    -0.356 OA
HETATM   20  C   UNL     1      -0.239  28.250  45.915  1.00  0.00     0.210 C 
ENDBRANCH  16  19
ENDBRANCH  12  13
ENDBRANCH   9  12
ENDBRANCH   6   8
BRANCH   7  21
HETATM   21  C   UNL     1       6.294  25.157  54.175  1.00  0.00    -0.020 A 
HETATM   22  C   UNL     1       7.002  24.904  52.993  1.00  0.00     0.014 A 
HETATM   23  C   UNL     1       7.814  23.772  52.886  1.00  0.00     0.020 A 
HETATM   24  C   UNL     1       7.925  22.897  53.965  1.00  0.00     0.011 A 
HETATM   25 BR   UNL     1       9.026  21.368  53.823  1.00  0.00    -0.051 Br
HETATM   26  C   UNL     1       7.234  23.143  55.150  1.00  0.00     0.020 A 
HETATM   27  C   UNL     1       6.418  24.274  55.255  1.00  0.00     0.014 A 
ENDBRANCH   7  21
TORSDOF 5
ENDMDL
MODEL 8
REMARK VINA RESULT:      -8.2      5.772      7.896
REMARK  5 active torsions:
REMARK  status: ('A' for Active; 'I' for Inactive)
REMARK    1  A    between atoms: C_6  and  N_7 
REMARK       I    between atoms: N_7  and  C_8 
REMARK    2  A    between atoms: C_8  and  C_9 
REMARK    3  A    between atoms: C_9  and  C_10 
REMARK    4  A    between atoms: C_13  and  O_14 
REMARK    5  A    between atoms: C_19  and  C_20 
ROOT
HETATM    1  C   UNL     1       1.578  28.293  48.422  1.00  0.00     0.073 C 
HETATM    2  C   UNL     1       2.753  27.510  48.880  1.00  0.00     0.065 A 
HETATM    3  N   UNL     1       2.990  26.299  48.361  1.00  0.00    -0.177 NA
HETATM    4  N   UNL     1       4.115  25.899  48.979  1.00  0.00    -0.262 N 
HETATM    5  H   UNL     1       4.518  24.991  48.756  1.00  0.00     0.191 HD
HETATM    6  C   UNL     1       4.603  26.803  49.887  1.00  0.00     0.137 A 
HETATM    7  C   UNL     1       3.734  27.877  49.846  1.00  0.00     0.046 A 
ENDROOT
BRANCH   6   8
HETATM    8  N   UNL     1       5.738  26.592  50.650  1.00  0.00    -0.311 N 
HETATM    9  C   UNL     1       5.801  25.602  51.623  1.00  0.00     0.227 C 
HETATM   10  O   UNL     1       4.867  24.847  51.889  1.00  0.00    -0.273 OA
HETATM   11  H   UNL     1       6.539  27.187  50.472  1.00  0.00     0.170 HD
BRANCH   9  12
HETATM   12  C   UNL     1       7.181  25.509  52.262  1.00  0.00     0.141 C 
BRANCH  12  13
HETATM   13  C   UNL     1       7.371  24.356  53.219  1.00  0.00    -0.049 A 
HETATM   14  C   UNL     1       7.076  24.501  54.579  1.00  0.00     0.010 A 
HETATM   15  C   UNL     1       7.213  23.419  55.452  1.00  0.00     0.037 A 
HETATM   16  C   UNL     1       7.633  22.173  54.984  1.00  0.00     0.068 A 
HETATM   17  C   UNL     1       7.944  22.025  53.632  1.00  0.00     0.037 A 
HETATM   18  C   UNL     1       7.815  23.110  52.756  1.00  0.00     0.010 A 
BRANCH  16  19
HETATM   19  O   UNL     1       7.705  21.196  55.937  1.00  0.00    -0.356 OA
HETATM   20  C   UNL     1       8.978  20.596  56.143  1.00  0.00     0.210 C 
ENDBRANCH  16  19
ENDBRANCH  12  13
ENDBRANCH   9  12
ENDBRANCH   6   8
BRANCH   7  21
HETATM   21  C   UNL     1       3.858  29.078  50.646  1.00  0.00    -0.020 A 
HETATM   22  C   UNL     1       3.339  29.123  51.947  1.00  0.00     0.014 A 
HETATM   23  C   UNL     1       3.461  30.283  52.716  1.00  0.00     0.020 A 
HETATM   24  C   UNL     1       4.109  31.397  52.186  1.00  0.00     0.011 A 
HETATM   25 BR   UNL     1       4.278  32.967  53.225  1.00  0.00    -0.051 Br
HETATM   26  C   UNL     1       4.638  31.362  50.897  1.00  0.00     0.020 A 
HETATM   27  C   UNL     1       4.512  30.202  50.127  1.00  0.00     0.014 A 
ENDBRANCH   7  21
TORSDOF 5
ENDMDL
MODEL 9
REMARK VINA RESULT:      -8.2      2.562      3.839
REMARK  5 active torsions:
REMARK  status: ('A' for Active; 'I' for Inactive)
REMARK    1  A    between atoms: C_6  and  N_7 
REMARK       I    between atoms: N_7  and  C_8 
REMARK    2  A    between atoms: C_8  and  C_9 
REMARK    3  A    between atoms: C_9  and  C_10 
REMARK    4  A    between atoms: C_13  and  O_14 
REMARK    5  A    between atoms: C_19  and  C_20 
ROOT
HETATM    1  C   UNL     1       8.412  22.284  55.156  1.00  0.00     0.073 C 
HETATM    2  C   UNL     1       8.055  23.466  55.981  1.00  0.00     0.065 A 
HETATM    3  N   UNL     1       8.431  23.521  57.265  1.00  0.00    -0.177 NA
HETATM    4  N   UNL     1       7.963  24.709  57.687  1.00  0.00    -0.262 N 
HETATM    5  H   UNL     1       8.122  25.001  58.649  1.00  0.00     0.191 HD
HETATM    6  C   UNL     1       7.288  25.414  56.724  1.00  0.00     0.137 A 
HETATM    7  C   UNL     1       7.332  24.628  55.588  1.00  0.00     0.046 A 
ENDROOT
BRANCH   6   8
HETATM    8  N   UNL     1       6.707  26.652  56.942  1.00  0.00    -0.311 N 
HETATM    9  C   UNL     1       7.254  27.823  56.432  1.00  0.00     0.227 C 
HETATM   10  O   UNL     1       8.286  27.860  55.764  1.00  0.00    -0.273 OA
HETATM   11  H   UNL     1       5.853  26.679  57.487  1.00  0.00     0.170 HD
BRANCH   9  12
HETATM   12  C   UNL     1       6.388  29.040  56.730  1.00  0.00     0.141 C 
BRANCH  12  13
HETATM   13  C   UNL     1       6.876  29.918  57.858  1.00  0.00    -0.049 A 
HETATM   14  C   UNL     1       8.044  29.596  58.560  1.00  0.00     0.010 A 
HETATM   15  C   UNL     1       8.514  30.434  59.573  1.00  0.00     0.037 A 
HETATM   16  C   UNL     1       7.838  31.612  59.897  1.00  0.00     0.068 A 
HETATM   17  C   UNL     1       6.665  31.931  59.212  1.00  0.00     0.037 A 
HETATM   18  C   UNL     1       6.188  31.089  58.200  1.00  0.00     0.010 A 
BRANCH  16  19
HETATM   19  O   UNL     1       8.415  32.351  60.892  1.00  0.00    -0.356 OA
HETATM   20  C   UNL     1       9.594  31.818  61.481  1.00  0.00     0.210 C 
ENDBRANCH  16  19
ENDBRANCH  12  13
ENDBRANCH   9  12
ENDBRANCH   6   8
BRANCH   7  21
HETATM   21  C   UNL     1       6.741  24.978  54.312  1.00  0.00    -0.020 A 
HETATM   22  C   UNL     1       5.350  24.965  54.145  1.00  0.00     0.014 A 
HETATM   23  C   UNL     1       4.784  25.303  52.912  1.00  0.00     0.020 A 
HETATM   24  C   UNL     1       5.610  25.663  51.849  1.00  0.00     0.011 A 
HETATM   25 BR   UNL     1       4.847  26.123  50.183  1.00  0.00    -0.051 Br
HETATM   26  C   UNL     1       6.995  25.689  52.006  1.00  0.00     0.020 A 
HETATM   27  C   UNL     1       7.560  25.347  53.238  1.00  0.00     0.014 A 
ENDBRANCH   7  21
TORSDOF 5
ENDMDL
MODEL 10
REMARK VINA RESULT:      -8.0      7.916     12.042
REMARK  5 active torsions:
REMARK  status: ('A' for Active; 'I' for Inactive)
REMARK    1  A    between atoms: C_6  and  N_7 
REMARK       I    between atoms: N_7  and  C_8 
REMARK    2  A    between atoms: C_8  and  C_9 
REMARK    3  A    between atoms: C_9  and  C_10 
REMARK    4  A    between atoms: C_13  and  O_14 
REMARK    5  A    between atoms: C_19  and  C_20 
ROOT
HETATM    1  C   UNL     1       5.849  34.238  67.671  1.00  0.00     0.073 C 
HETATM    2  C   UNL     1       4.917  34.696  66.610  1.00  0.00     0.065 A 
HETATM    3  N   UNL     1       3.905  35.515  66.920  1.00  0.00    -0.177 NA
HETATM    4  N   UNL     1       3.293  35.732  65.743  1.00  0.00    -0.262 N 
HETATM    5  H   UNL     1       2.476  36.338  65.703  1.00  0.00     0.191 HD
HETATM    6  C   UNL     1       3.867  35.071  64.688  1.00  0.00     0.137 A 
HETATM    7  C   UNL     1       4.940  34.382  65.221  1.00  0.00     0.046 A 
ENDROOT
BRANCH   6   8
HETATM    8  N   UNL     1       3.392  35.135  63.389  1.00  0.00    -0.311 N 
HETATM    9  C   UNL     1       2.282  34.411  62.972  1.00  0.00     0.227 C 
HETATM   10  O   UNL     1       1.643  33.659  63.707  1.00  0.00    -0.273 OA
HETATM   11  H   UNL     1       3.883  35.741  62.741  1.00  0.00     0.170 HD
BRANCH   9  12
HETATM   12  C   UNL     1       1.904  34.716  61.529  1.00  0.00     0.141 C 
BRANCH  12  13
HETATM   13  C   UNL     1       2.910  34.277  60.492  1.00  0.00    -0.049 A 
HETATM   14  C   UNL     1       3.375  32.957  60.462  1.00  0.00     0.010 A 
HETATM   15  C   UNL     1       4.273  32.544  59.475  1.00  0.00     0.037 A 
HETATM   16  C   UNL     1       4.713  33.435  58.494  1.00  0.00     0.068 A 
HETATM   17  C   UNL     1       4.267  34.756  58.527  1.00  0.00     0.037 A 
HETATM   18  C   UNL     1       3.372  35.174  59.520  1.00  0.00     0.010 A 
BRANCH  16  19
HETATM   19  O   UNL     1       5.572  32.899  57.576  1.00  0.00    -0.356 OA
HETATM   20  C   UNL     1       6.108  31.616  57.875  1.00  0.00     0.210 C 
ENDBRANCH  16  19
ENDBRANCH  12  13
ENDBRANCH   9  12
ENDBRANCH   6   8
BRANCH   7  21
HETATM   21  C   UNL     1       5.845  33.539  64.465  1.00  0.00    -0.020 A 
HETATM   22  C   UNL     1       5.347  32.522  63.639  1.00  0.00     0.014 A 
HETATM   23  C   UNL     1       6.223  31.712  62.913  1.00  0.00     0.020 A 
HETATM   24  C   UNL     1       7.597  31.924  63.005  1.00  0.00     0.011 A 
HETATM   25 BR   UNL     1       8.782  30.830  62.020  1.00  0.00    -0.051 Br
HETATM   26  C   UNL     1       8.104  32.937  63.815  1.00  0.00     0.020 A 
HETATM   27  C   UNL     1       7.227  33.745  64.545  1.00  0.00     0.014 A 
ENDBRANCH   7  21
TORSDOF 5
ENDMDL
