MODEL 1
REMARK VINA RESULT:     -10.8      0.000      0.000
REMARK  5 active torsions:
REMARK  status: ('A' for Active; 'I' for Inactive)
REMARK    1  A    between atoms: C_5  and  N_6 
REMARK       I    between atoms: N_6  and  C_7 
REMARK       I    between atoms: C_7  and  N_8 
REMARK    2  A    between atoms: N_8  and  C_9 
REMARK    3  A    between atoms: C_11  and  C_12 
REMARK       I    between atoms: C_12  and  N_13 
REMARK    4  A    between atoms: N_13  and  C_14 
REMARK    5  A    between atoms: C_14  and  C_15 
ROOT
HETATM    1  C   UNL     1       7.372  29.261  56.369  1.00  0.00     0.175 A 
HETATM    2  S   UNL     1       7.002  30.180  57.748  1.00  0.00    -0.044 SA
HETATM    3  C   UNL     1       8.685  30.402  58.036  1.00  0.00     0.100 A 
HETATM    4  C   UNL     1       9.408  29.720  57.065  1.00  0.00     0.056 A 
HETATM    5  C   UNL     1      10.890  29.633  56.948  1.00  0.00     0.072 C 
HETATM    6  N   UNL     1       8.639  29.069  56.107  1.00  0.00    -0.228 NA
ENDROOT
BRANCH   1   7
HETATM    7  N   UNL     1       6.297  28.821  55.657  1.00  0.00    -0.287 N 
HETATM    8  C   UNL     1       6.169  27.597  55.060  1.00  0.00     0.326 C 
HETATM    9  N   UNL     1       7.207  26.719  55.226  1.00  0.00    -0.309 N 
HETATM   10  O   UNL     1       5.142  27.390  54.416  1.00  0.00    -0.247 OA
HETATM   11  H   UNL     1       7.945  27.041  55.847  1.00  0.00     0.170 HD
HETATM   12  H   UNL     1       5.531  29.458  55.498  1.00  0.00     0.172 HD
BRANCH   9  13
HETATM   13  C   UNL     1       7.383  25.446  54.653  1.00  0.00     0.036 A 
HETATM   14  C   UNL     1       7.760  25.231  53.328  1.00  0.00     0.030 A 
HETATM   15  C   UNL     1       7.943  23.930  52.845  1.00  0.00     0.009 A 
HETATM   16  C   UNL     1       7.756  22.824  53.680  1.00  0.00    -0.062 A 
HETATM   17  C   UNL     1       7.938  21.436  53.145  1.00  0.00     0.048 C 
HETATM   18  C   UNL     1       7.361  23.038  55.003  1.00  0.00     0.009 A 
HETATM   19  C   UNL     1       7.183  24.339  55.486  1.00  0.00     0.030 A 
ENDBRANCH   9  13
ENDBRANCH   1   7
BRANCH   3  20
HETATM   20  C   UNL     1       9.195  31.195  59.141  1.00  0.00     0.260 C 
HETATM   21  N   UNL     1       8.999  30.678  60.403  1.00  0.00    -0.352 N 
HETATM   22  H   UNL     1       8.432  29.847  60.508  1.00  0.00     0.163 HD
HETATM   23  O   UNL     1       9.760  32.276  58.981  1.00  0.00    -0.267 OA
BRANCH  21  24
HETATM   24  C   UNL     1       9.345  31.435  61.582  1.00  0.00     0.161 C 
BRANCH  24  25
HETATM   25  C   UNL     1       8.114  31.984  62.252  1.00  0.00    -0.040 A 
HETATM   26  C   UNL     1       8.231  32.712  63.448  1.00  0.00     0.010 A 
HETATM   27  C   UNL     1       7.096  33.227  64.079  1.00  0.00     0.024 A 
HETATM   28  C   UNL     1       5.838  33.015  63.518  1.00  0.00     0.034 A 
HETATM   29 CL   UNL     1       4.440  33.653  64.292  1.00  0.00    -0.084 Cl
HETATM   30  C   UNL     1       5.706  32.290  62.336  1.00  0.00     0.024 A 
HETATM   31  C   UNL     1       6.840  31.773  61.706  1.00  0.00     0.010 A 
ENDBRANCH  24  25
ENDBRANCH  21  24
ENDBRANCH   3  20
TORSDOF 5
ENDMDL
MODEL 2
REMARK VINA RESULT:     -10.0      3.506     10.336
REMARK  5 active torsions:
REMARK  status: ('A' for Active; 'I' for Inactive)
REMARK    1  A    between atoms: C_5  and  N_6 
REMARK       I    between atoms: N_6  and  C_7 
REMARK       I    between atoms: C_7  and  N_8 
REMARK    2  A    between atoms: N_8  and  C_9 
REMARK    3  A    between atoms: C_11  and  C_12 
REMARK       I    between atoms: C_12  and  N_13 
REMARK    4  A    between atoms: N_13  and  C_14 
REMARK    5  A    between atoms: C_14  and  C_15 
ROOT
HETATM    1  C   UNL     1       8.614  29.948  57.419  1.00  0.00     0.175 A 
HETATM    2  S   UNL     1       9.022  29.272  55.915  1.00  0.00    -0.044 SA
HETATM    3  C   UNL     1       7.457  28.561  55.824  1.00  0.00     0.100 A 
HETATM    4  C   UNL     1       6.746  28.870  56.979  1.00  0.00     0.056 A 
HETATM    5  C   UNL     1       5.361  28.444  57.318  1.00  0.00     0.072 C 
HETATM    6  N   UNL     1       7.424  29.673  57.888  1.00  0.00    -0.228 NA
ENDROOT
BRANCH   1   7
HETATM    7  N   UNL     1       9.575  30.729  57.986  1.00  0.00    -0.287 N 
HETATM    8  C   UNL     1       9.471  31.406  59.170  1.00  0.00     0.326 C 
HETATM    9  N   UNL     1       8.303  31.253  59.868  1.00  0.00    -0.309 N 
HETATM   10  O   UNL     1      10.428  32.103  59.505  1.00  0.00    -0.247 OA
HETATM   11  H   UNL     1       7.650  30.583  59.467  1.00  0.00     0.170 HD
HETATM   12  H   UNL     1      10.434  30.878  57.480  1.00  0.00     0.172 HD
BRANCH   9  13
HETATM   13  C   UNL     1       7.893  31.896  61.049  1.00  0.00     0.036 A 
HETATM   14  C   UNL     1       8.518  31.733  62.285  1.00  0.00     0.030 A 
HETATM   15  C   UNL     1       8.064  32.435  63.408  1.00  0.00     0.009 A 
HETATM   16  C   UNL     1       6.980  33.315  63.312  1.00  0.00    -0.062 A 
HETATM   17  C   UNL     1       6.494  34.047  64.526  1.00  0.00     0.048 C 
HETATM   18  C   UNL     1       6.343  33.466  62.078  1.00  0.00     0.009 A 
HETATM   19  C   UNL     1       6.800  32.766  60.955  1.00  0.00     0.030 A 
ENDBRANCH   9  13
ENDBRANCH   1   7
BRANCH   3  20
HETATM   20  C   UNL     1       7.015  27.776  54.684  1.00  0.00     0.260 C 
HETATM   21  N   UNL     1       7.192  26.413  54.778  1.00  0.00    -0.352 N 
HETATM   22  H   UNL     1       7.704  26.040  55.567  1.00  0.00     0.163 HD
HETATM   23  O   UNL     1       6.521  28.281  53.678  1.00  0.00    -0.267 OA
BRANCH  21  24
HETATM   24  C   UNL     1       6.913  25.545  53.660  1.00  0.00     0.161 C 
BRANCH  24  25
HETATM   25  C   UNL     1       7.328  24.129  53.958  1.00  0.00    -0.040 A 
HETATM   26  C   UNL     1       7.781  23.296  52.922  1.00  0.00     0.010 A 
HETATM   27  C   UNL     1       8.169  21.981  53.186  1.00  0.00     0.024 A 
HETATM   28  C   UNL     1       8.103  21.490  54.488  1.00  0.00     0.034 A 
HETATM   29 CL   UNL     1       8.585  19.871  54.817  1.00  0.00    -0.084 Cl
HETATM   30  C   UNL     1       7.650  22.302  55.527  1.00  0.00     0.024 A 
HETATM   31  C   UNL     1       7.260  23.617  55.262  1.00  0.00     0.010 A 
ENDBRANCH  24  25
ENDBRANCH  21  24
ENDBRANCH   3  20
TORSDOF 5
ENDMDL
MODEL 3
REMARK VINA RESULT:      -9.9      3.574     10.381
REMARK  5 active torsions:
REMARK  status: ('A' for Active; 'I' for Inactive)
REMARK    1  A    between atoms: C_5  and  N_6 
REMARK       I    between atoms: N_6  and  C_7 
REMARK       I    between atoms: C_7  and  N_8 
REMARK    2  A    between atoms: N_8  and  C_9 
REMARK    3  A    between atoms: C_11  and  C_12 
REMARK       I    between atoms: C_12  and  N_13 
REMARK    4  A    between atoms: N_13  and  C_14 
REMARK    5  A    between atoms: C_14  and  C_15 
ROOT
HETATM    1  C   UNL     1       7.593  30.106  57.731  1.00  0.00     0.175 A 
HETATM    2  S   UNL     1       7.860  28.469  57.369  1.00  0.00    -0.044 SA
HETATM    3  C   UNL     1       6.215  28.321  56.883  1.00  0.00     0.100 A 
HETATM    4  C   UNL     1       5.572  29.539  57.070  1.00  0.00     0.056 A 
HETATM    5  C   UNL     1       4.142  29.848  56.793  1.00  0.00     0.072 C 
HETATM    6  N   UNL     1       6.379  30.561  57.556  1.00  0.00    -0.228 NA
ENDROOT
BRANCH   1   7
HETATM    7  N   UNL     1       8.687  30.794  58.161  1.00  0.00    -0.287 N 
HETATM    8  C   UNL     1       8.805  31.467  59.346  1.00  0.00     0.326 C 
HETATM    9  N   UNL     1       7.732  31.412  60.195  1.00  0.00    -0.309 N 
HETATM   10  O   UNL     1       9.856  32.073  59.546  1.00  0.00    -0.247 OA
HETATM   11  H   UNL     1       6.975  30.806  59.889  1.00  0.00     0.170 HD
HETATM   12  H   UNL     1       9.481  30.871  57.543  1.00  0.00     0.172 HD
BRANCH   9  13
HETATM   13  C   UNL     1       7.544  32.079  61.419  1.00  0.00     0.036 A 
HETATM   14  C   UNL     1       8.263  31.798  62.581  1.00  0.00     0.030 A 
HETATM   15  C   UNL     1       8.034  32.531  63.751  1.00  0.00     0.009 A 
HETATM   16  C   UNL     1       7.085  33.558  63.778  1.00  0.00    -0.062 A 
HETATM   17  C   UNL     1       6.837  34.323  65.043  1.00  0.00     0.048 C 
HETATM   18  C   UNL     1       6.352  33.828  62.620  1.00  0.00     0.009 A 
HETATM   19  C   UNL     1       6.585  33.098  61.449  1.00  0.00     0.030 A 
ENDBRANCH   9  13
ENDBRANCH   1   7
BRANCH   3  20
HETATM   20  C   UNL     1       5.657  27.084  56.365  1.00  0.00     0.260 C 
HETATM   21  N   UNL     1       5.940  26.794  55.047  1.00  0.00    -0.352 N 
HETATM   22  H   UNL     1       6.419  27.487  54.487  1.00  0.00     0.163 HD
HETATM   23  O   UNL     1       4.958  26.331  57.041  1.00  0.00    -0.267 OA
BRANCH  21  24
HETATM   24  C   UNL     1       5.335  25.664  54.385  1.00  0.00     0.161 C 
BRANCH  24  25
HETATM   25  C   UNL     1       6.334  24.555  54.187  1.00  0.00    -0.040 A 
HETATM   26  C   UNL     1       6.790  23.815  55.290  1.00  0.00     0.010 A 
HETATM   27  C   UNL     1       7.717  22.784  55.119  1.00  0.00     0.024 A 
HETATM   28  C   UNL     1       8.194  22.489  53.844  1.00  0.00     0.034 A 
HETATM   29 CL   UNL     1       9.331  21.215  53.630  1.00  0.00    -0.084 Cl
HETATM   30  C   UNL     1       7.755  23.218  52.740  1.00  0.00     0.024 A 
HETATM   31  C   UNL     1       6.830  24.251  52.911  1.00  0.00     0.010 A 
ENDBRANCH  24  25
ENDBRANCH  21  24
ENDBRANCH   3  20
TORSDOF 5
ENDMDL
MODEL 4
REMARK VINA RESULT:      -9.6      3.688     10.018
REMARK  5 active torsions:
REMARK  status: ('A' for Active; 'I' for Inactive)
REMARK    1  A    between atoms: C_5  and  N_6 
REMARK       I    between atoms: N_6  and  C_7 
REMARK       I    between atoms: C_7  and  N_8 
REMARK    2  A    between atoms: N_8  and  C_9 
REMARK    3  A    between atoms: C_11  and  C_12 
REMARK       I    between atoms: C_12  and  N_13 
REMARK    4  A    between atoms: N_13  and  C_14 
REMARK    5  A    between atoms: C_14  and  C_15 
ROOT
HETATM    1  C   UNL     1       5.952  30.194  57.432  1.00  0.00     0.175 A 
HETATM    2  S   UNL     1       5.658  29.624  55.859  1.00  0.00    -0.044 SA
HETATM    3  C   UNL     1       7.259  28.995  55.802  1.00  0.00     0.100 A 
HETATM    4  C   UNL     1       7.914  29.302  56.989  1.00  0.00     0.056 A 
HETATM    5  C   UNL     1       9.317  28.961  57.351  1.00  0.00     0.072 C 
HETATM    6  N   UNL     1       7.148  29.991  57.921  1.00  0.00    -0.228 NA
ENDROOT
BRANCH   1   7
HETATM    7  N   UNL     1       4.895  30.803  58.038  1.00  0.00    -0.287 N 
HETATM    8  C   UNL     1       4.932  31.516  59.204  1.00  0.00     0.326 C 
HETATM    9  N   UNL     1       6.157  31.662  59.798  1.00  0.00    -0.309 N 
HETATM   10  O   UNL     1       3.865  31.957  59.628  1.00  0.00    -0.247 OA
HETATM   11  H   UNL     1       6.938  31.284  59.267  1.00  0.00     0.170 HD
HETATM   12  H   UNL     1       3.978  30.689  57.633  1.00  0.00     0.172 HD
BRANCH   9  13
HETATM   13  C   UNL     1       6.471  32.255  61.035  1.00  0.00     0.036 A 
HETATM   14  C   UNL     1       5.876  33.422  61.514  1.00  0.00     0.030 A 
HETATM   15  C   UNL     1       6.224  33.930  62.771  1.00  0.00     0.009 A 
HETATM   16  C   UNL     1       7.169  33.278  63.570  1.00  0.00    -0.062 A 
HETATM   17  C   UNL     1       7.546  33.843  64.906  1.00  0.00     0.048 C 
HETATM   18  C   UNL     1       7.779  32.119  63.082  1.00  0.00     0.009 A 
HETATM   19  C   UNL     1       7.427  31.610  61.828  1.00  0.00     0.030 A 
ENDBRANCH   9  13
ENDBRANCH   1   7
BRANCH   3  20
HETATM   20  C   UNL     1       7.776  28.262  54.658  1.00  0.00     0.260 C 
HETATM   21  N   UNL     1       7.115  27.097  54.333  1.00  0.00    -0.352 N 
HETATM   22  H   UNL     1       6.389  26.759  54.951  1.00  0.00     0.163 HD
HETATM   23  O   UNL     1       8.753  28.636  54.012  1.00  0.00    -0.267 OA
BRANCH  21  24
HETATM   24  C   UNL     1       7.613  26.219  53.302  1.00  0.00     0.161 C 
BRANCH  24  25
HETATM   25  C   UNL     1       7.649  24.792  53.778  1.00  0.00    -0.040 A 
HETATM   26  C   UNL     1       7.834  23.748  52.856  1.00  0.00     0.010 A 
HETATM   27  C   UNL     1       7.869  22.420  53.286  1.00  0.00     0.024 A 
HETATM   28  C   UNL     1       7.717  22.128  54.640  1.00  0.00     0.034 A 
HETATM   29 CL   UNL     1       7.766  20.492  55.171  1.00  0.00    -0.084 Cl
HETATM   30  C   UNL     1       7.527  23.151  55.566  1.00  0.00     0.024 A 
HETATM   31  C   UNL     1       7.490  24.480  55.136  1.00  0.00     0.010 A 
ENDBRANCH  24  25
ENDBRANCH  21  24
ENDBRANCH   3  20
TORSDOF 5
ENDMDL
MODEL 5
REMARK VINA RESULT:      -9.2      1.513      2.118
REMARK  5 active torsions:
REMARK  status: ('A' for Active; 'I' for Inactive)
REMARK    1  A    between atoms: C_5  and  N_6 
REMARK       I    between atoms: N_6  and  C_7 
REMARK       I    between atoms: C_7  and  N_8 
REMARK    2  A    between atoms: N_8  and  C_9 
REMARK    3  A    between atoms: C_11  and  C_12 
REMARK       I    between atoms: C_12  and  N_13 
REMARK    4  A    between atoms: N_13  and  C_14 
REMARK    5  A    between atoms: C_14  and  C_15 
ROOT
HETATM    1  C   UNL     1       7.573  28.978  55.423  1.00  0.00     0.175 A 
HETATM    2  S   UNL     1       9.112  29.282  56.075  1.00  0.00    -0.044 SA
HETATM    3  C   UNL     1       8.374  30.055  57.424  1.00  0.00     0.100 A 
HETATM    4  C   UNL     1       6.994  30.052  57.254  1.00  0.00     0.056 A 
HETATM    5  C   UNL     1       5.977  30.630  58.175  1.00  0.00     0.072 C 
HETATM    6  N   UNL     1       6.546  29.425  56.097  1.00  0.00    -0.228 NA
ENDROOT
BRANCH   1   7
HETATM    7  N   UNL     1       7.564  28.280  54.253  1.00  0.00    -0.287 N 
HETATM    8  C   UNL     1       7.568  26.918  54.124  1.00  0.00     0.326 C 
HETATM    9  N   UNL     1       7.543  26.190  55.283  1.00  0.00    -0.309 N 
HETATM   10  O   UNL     1       7.606  26.462  52.983  1.00  0.00    -0.247 OA
HETATM   11  H   UNL     1       7.446  26.740  56.133  1.00  0.00     0.170 HD
HETATM   12  H   UNL     1       7.608  28.794  53.386  1.00  0.00     0.172 HD
BRANCH   9  13
HETATM   13  C   UNL     1       7.635  24.796  55.448  1.00  0.00     0.036 A 
HETATM   14  C   UNL     1       7.246  23.867  54.483  1.00  0.00     0.030 A 
HETATM   15  C   UNL     1       7.400  22.495  54.716  1.00  0.00     0.009 A 
HETATM   16  C   UNL     1       7.949  22.031  55.916  1.00  0.00    -0.062 A 
HETATM   17  C   UNL     1       8.092  20.559  56.159  1.00  0.00     0.048 C 
HETATM   18  C   UNL     1       8.323  22.960  56.890  1.00  0.00     0.009 A 
HETATM   19  C   UNL     1       8.172  24.331  56.654  1.00  0.00     0.030 A 
ENDBRANCH   9  13
ENDBRANCH   1   7
BRANCH   3  20
HETATM   20  C   UNL     1       9.138  30.598  58.533  1.00  0.00     0.260 C 
HETATM   21  N   UNL     1       8.653  30.330  59.795  1.00  0.00    -0.352 N 
HETATM   22  H   UNL     1       7.757  29.871  59.886  1.00  0.00     0.163 HD
HETATM   23  O   UNL     1      10.154  31.274  58.377  1.00  0.00    -0.267 OA
BRANCH  21  24
HETATM   24  C   UNL     1       9.251  30.923  60.967  1.00  0.00     0.161 C 
BRANCH  24  25
HETATM   25  C   UNL     1       8.273  31.819  61.679  1.00  0.00    -0.040 A 
HETATM   26  C   UNL     1       7.309  32.529  60.945  1.00  0.00     0.010 A 
HETATM   27  C   UNL     1       6.396  33.363  61.595  1.00  0.00     0.024 A 
HETATM   28  C   UNL     1       6.443  33.493  62.981  1.00  0.00     0.034 A 
HETATM   29 CL   UNL     1       5.315  34.515  63.783  1.00  0.00    -0.084 Cl
HETATM   30  C   UNL     1       7.398  32.799  63.722  1.00  0.00     0.024 A 
HETATM   31  C   UNL     1       8.313  31.967  63.073  1.00  0.00     0.010 A 
ENDBRANCH  24  25
ENDBRANCH  21  24
ENDBRANCH   3  20
TORSDOF 5
ENDMDL
MODEL 6
REMARK VINA RESULT:      -9.1      3.756     10.234
REMARK  5 active torsions:
REMARK  status: ('A' for Active; 'I' for Inactive)
REMARK    1  A    between atoms: C_5  and  N_6 
REMARK       I    between atoms: N_6  and  C_7 
REMARK       I    between atoms: C_7  and  N_8 
REMARK    2  A    between atoms: N_8  and  C_9 
REMARK    3  A    between atoms: C_11  and  C_12 
REMARK       I    between atoms: C_12  and  N_13 
REMARK    4  A    between atoms: N_13  and  C_14 
REMARK    5  A    between atoms: C_14  and  C_15 
ROOT
HETATM    1  C   UNL     1       5.959  30.639  57.311  1.00  0.00     0.175 A 
HETATM    2  S   UNL     1       4.730  29.678  56.639  1.00  0.00    -0.044 SA
HETATM    3  C   UNL     1       5.784  28.317  56.690  1.00  0.00     0.100 A 
HETATM    4  C   UNL     1       7.019  28.714  57.191  1.00  0.00     0.056 A 
HETATM    5  C   UNL     1       8.221  27.859  57.388  1.00  0.00     0.072 C 
HETATM    6  N   UNL     1       7.105  30.055  57.548  1.00  0.00    -0.228 NA
ENDROOT
BRANCH   1   7
HETATM    7  N   UNL     1       5.618  31.936  57.550  1.00  0.00    -0.287 N 
HETATM    8  C   UNL     1       5.750  32.601  58.738  1.00  0.00     0.326 C 
HETATM    9  N   UNL     1       6.313  31.905  59.774  1.00  0.00    -0.309 N 
HETATM   10  O   UNL     1       5.344  33.761  58.781  1.00  0.00    -0.247 OA
HETATM   11  H   UNL     1       6.649  30.976  59.533  1.00  0.00     0.170 HD
HETATM   12  H   UNL     1       5.178  32.462  56.810  1.00  0.00     0.172 HD
BRANCH   9  13
HETATM   13  C   UNL     1       6.480  32.303  61.113  1.00  0.00     0.036 A 
HETATM   14  C   UNL     1       5.444  32.756  61.929  1.00  0.00     0.030 A 
HETATM   15  C   UNL     1       5.692  33.104  63.262  1.00  0.00     0.009 A 
HETATM   16  C   UNL     1       6.978  33.002  63.801  1.00  0.00    -0.062 A 
HETATM   17  C   UNL     1       7.232  33.395  65.225  1.00  0.00     0.048 C 
HETATM   18  C   UNL     1       8.020  32.565  62.979  1.00  0.00     0.009 A 
HETATM   19  C   UNL     1       7.771  32.213  61.648  1.00  0.00     0.030 A 
ENDBRANCH   9  13
ENDBRANCH   1   7
BRANCH   3  20
HETATM   20  C   UNL     1       5.375  26.990  56.264  1.00  0.00     0.260 C 
HETATM   21  N   UNL     1       5.660  26.655  54.958  1.00  0.00    -0.352 N 
HETATM   22  H   UNL     1       6.034  27.366  54.343  1.00  0.00     0.163 HD
HETATM   23  O   UNL     1       4.795  26.200  57.007  1.00  0.00    -0.267 OA
BRANCH  21  24
HETATM   24  C   UNL     1       5.189  25.418  54.384  1.00  0.00     0.161 C 
BRANCH  24  25
HETATM   25  C   UNL     1       6.312  24.426  54.239  1.00  0.00    -0.040 A 
HETATM   26  C   UNL     1       6.818  24.120  52.966  1.00  0.00     0.010 A 
HETATM   27  C   UNL     1       7.860  23.201  52.819  1.00  0.00     0.024 A 
HETATM   28  C   UNL     1       8.400  22.583  53.945  1.00  0.00     0.034 A 
HETATM   29 CL   UNL     1       9.687  21.456  53.765  1.00  0.00    -0.084 Cl
HETATM   30  C   UNL     1       7.905  22.872  55.214  1.00  0.00     0.024 A 
HETATM   31  C   UNL     1       6.861  23.790  55.362  1.00  0.00     0.010 A 
ENDBRANCH  24  25
ENDBRANCH  21  24
ENDBRANCH   3  20
TORSDOF 5
ENDMDL
MODEL 7
REMARK VINA RESULT:      -8.9      4.109      9.649
REMARK  5 active torsions:
REMARK  status: ('A' for Active; 'I' for Inactive)
REMARK    1  A    between atoms: C_5  and  N_6 
REMARK       I    between atoms: N_6  and  C_7 
REMARK       I    between atoms: C_7  and  N_8 
REMARK    2  A    between atoms: N_8  and  C_9 
REMARK    3  A    between atoms: C_11  and  C_12 
REMARK       I    between atoms: C_12  and  N_13 
REMARK    4  A    between atoms: N_13  and  C_14 
REMARK    5  A    between atoms: C_14  and  C_15 
ROOT
HETATM    1  C   UNL     1       4.079  29.178  55.284  1.00  0.00     0.175 A 
HETATM    2  S   UNL     1       4.591  27.559  55.317  1.00  0.00    -0.044 SA
HETATM    3  C   UNL     1       5.135  27.711  53.691  1.00  0.00     0.100 A 
HETATM    4  C   UNL     1       4.850  28.992  53.231  1.00  0.00     0.056 A 
HETATM    5  C   UNL     1       5.136  29.541  51.878  1.00  0.00     0.072 C 
HETATM    6  N   UNL     1       4.244  29.828  54.161  1.00  0.00    -0.228 NA
ENDROOT
BRANCH   1   7
HETATM    7  N   UNL     1       3.552  29.646  56.450  1.00  0.00    -0.287 N 
HETATM    8  C   UNL     1       4.250  30.203  57.486  1.00  0.00     0.326 C 
HETATM    9  N   UNL     1       5.602  30.335  57.318  1.00  0.00    -0.309 N 
HETATM   10  O   UNL     1       3.610  30.529  58.484  1.00  0.00    -0.247 OA
HETATM   11  H   UNL     1       5.947  30.072  56.398  1.00  0.00     0.170 HD
HETATM   12  H   UNL     1       2.562  29.537  56.608  1.00  0.00     0.172 HD
BRANCH   9  13
HETATM   13  C   UNL     1       6.565  30.780  58.242  1.00  0.00     0.036 A 
HETATM   14  C   UNL     1       6.476  31.981  58.946  1.00  0.00     0.030 A 
HETATM   15  C   UNL     1       7.465  32.334  59.872  1.00  0.00     0.009 A 
HETATM   16  C   UNL     1       8.555  31.492  60.112  1.00  0.00    -0.062 A 
HETATM   17  C   UNL     1       9.615  31.891  61.093  1.00  0.00     0.048 C 
HETATM   18  C   UNL     1       8.653  30.297  59.394  1.00  0.00     0.009 A 
HETATM   19  C   UNL     1       7.663  29.942  58.472  1.00  0.00     0.030 A 
ENDBRANCH   9  13
ENDBRANCH   1   7
BRANCH   3  20
HETATM   20  C   UNL     1       5.787  26.628  52.976  1.00  0.00     0.260 C 
HETATM   21  N   UNL     1       7.040  26.269  53.425  1.00  0.00    -0.352 N 
HETATM   22  H   UNL     1       7.480  26.830  54.143  1.00  0.00     0.163 HD
HETATM   23  O   UNL     1       5.275  26.060  52.013  1.00  0.00    -0.267 OA
BRANCH  21  24
HETATM   24  C   UNL     1       7.838  25.298  52.716  1.00  0.00     0.161 C 
BRANCH  24  25
HETATM   25  C   UNL     1       7.938  24.011  53.490  1.00  0.00    -0.040 A 
HETATM   26  C   UNL     1       7.788  22.781  52.830  1.00  0.00     0.010 A 
HETATM   27  C   UNL     1       7.879  21.580  53.538  1.00  0.00     0.024 A 
HETATM   28  C   UNL     1       8.119  21.604  54.910  1.00  0.00     0.034 A 
HETATM   29 CL   UNL     1       8.237  20.125  55.782  1.00  0.00    -0.084 Cl
HETATM   30  C   UNL     1       8.264  22.816  55.580  1.00  0.00     0.024 A 
HETATM   31  C   UNL     1       8.171  24.018  54.873  1.00  0.00     0.010 A 
ENDBRANCH  24  25
ENDBRANCH  21  24
ENDBRANCH   3  20
TORSDOF 5
ENDMDL
MODEL 8
REMARK VINA RESULT:      -8.8      2.363      4.109
REMARK  5 active torsions:
REMARK  status: ('A' for Active; 'I' for Inactive)
REMARK    1  A    between atoms: C_5  and  N_6 
REMARK       I    between atoms: N_6  and  C_7 
REMARK       I    between atoms: C_7  and  N_8 
REMARK    2  A    between atoms: N_8  and  C_9 
REMARK    3  A    between atoms: C_11  and  C_12 
REMARK       I    between atoms: C_12  and  N_13 
REMARK    4  A    between atoms: N_13  and  C_14 
REMARK    5  A    between atoms: C_14  and  C_15 
ROOT
HETATM    1  C   UNL     1       9.034  30.851  59.201  1.00  0.00     0.175 A 
HETATM    2  S   UNL     1       7.651  31.777  58.864  1.00  0.00    -0.044 SA
HETATM    3  C   UNL     1       7.270  31.796  60.542  1.00  0.00     0.100 A 
HETATM    4  C   UNL     1       8.222  31.056  61.236  1.00  0.00     0.056 A 
HETATM    5  C   UNL     1       8.263  30.802  62.702  1.00  0.00     0.072 C 
HETATM    6  N   UNL     1       9.235  30.519  60.451  1.00  0.00    -0.228 NA
ENDROOT
BRANCH   1   7
HETATM    7  N   UNL     1       9.813  30.552  58.124  1.00  0.00    -0.287 N 
HETATM    8  C   UNL     1       9.628  29.511  57.256  1.00  0.00     0.326 C 
HETATM    9  N   UNL     1       8.535  28.716  57.472  1.00  0.00    -0.309 N 
HETATM   10  O   UNL     1      10.463  29.369  56.364  1.00  0.00    -0.247 OA
HETATM   11  H   UNL     1       7.920  29.028  58.219  1.00  0.00     0.170 HD
HETATM   12  H   UNL     1      10.639  31.108  57.959  1.00  0.00     0.172 HD
BRANCH   9  13
HETATM   13  C   UNL     1       8.158  27.537  56.803  1.00  0.00     0.036 A 
HETATM   14  C   UNL     1       8.332  26.255  57.323  1.00  0.00     0.030 A 
HETATM   15  C   UNL     1       7.901  25.134  56.603  1.00  0.00     0.009 A 
HETATM   16  C   UNL     1       7.286  25.277  55.356  1.00  0.00    -0.062 A 
HETATM   17  C   UNL     1       6.845  24.067  54.588  1.00  0.00     0.048 C 
HETATM   18  C   UNL     1       7.127  26.561  54.827  1.00  0.00     0.009 A 
HETATM   19  C   UNL     1       7.555  27.681  55.548  1.00  0.00     0.030 A 
ENDBRANCH   9  13
ENDBRANCH   1   7
BRANCH   3  20
HETATM   20  C   UNL     1       6.120  32.502  61.079  1.00  0.00     0.260 C 
HETATM   21  N   UNL     1       6.390  33.630  61.823  1.00  0.00    -0.352 N 
HETATM   22  H   UNL     1       7.352  33.849  62.045  1.00  0.00     0.163 HD
HETATM   23  O   UNL     1       4.963  32.124  60.903  1.00  0.00    -0.267 OA
BRANCH  21  24
HETATM   24  C   UNL     1       5.340  34.338  62.515  1.00  0.00     0.161 C 
BRANCH  24  25
HETATM   25  C   UNL     1       5.564  34.319  64.003  1.00  0.00    -0.040 A 
HETATM   26  C   UNL     1       6.799  33.901  64.522  1.00  0.00     0.010 A 
HETATM   27  C   UNL     1       7.018  33.879  65.902  1.00  0.00     0.024 A 
HETATM   28  C   UNL     1       6.002  34.274  66.769  1.00  0.00     0.034 A 
HETATM   29 CL   UNL     1       6.273  34.253  68.468  1.00  0.00    -0.084 Cl
HETATM   30  C   UNL     1       4.768  34.686  66.269  1.00  0.00     0.024 A 
HETATM   31  C   UNL     1       4.548  34.705  64.890  1.00  0.00     0.010 A 
ENDBRANCH  24  25
ENDBRANCH  21  24
ENDBRANCH   3  20
TORSDOF 5
ENDMDL
MODEL 9
REMARK VINA RESULT:      -8.7      3.865     10.413
REMARK  5 active torsions:
REMARK  status: ('A' for Active; 'I' for Inactive)
REMARK    1  A    between atoms: C_5  and  N_6 
REMARK       I    between atoms: N_6  and  C_7 
REMARK       I    between atoms: C_7  and  N_8 
REMARK    2  A    between atoms: N_8  and  C_9 
REMARK    3  A    between atoms: C_11  and  C_12 
REMARK       I    between atoms: C_12  and  N_13 
REMARK    4  A    between atoms: N_13  and  C_14 
REMARK    5  A    between atoms: C_14  and  C_15 
ROOT
HETATM    1  C   UNL     1       8.317  30.047  57.844  1.00  0.00     0.175 A 
HETATM    2  S   UNL     1       8.895  28.643  57.082  1.00  0.00    -0.044 SA
HETATM    3  C   UNL     1       7.279  28.222  56.662  1.00  0.00     0.100 A 
HETATM    4  C   UNL     1       6.410  29.180  57.171  1.00  0.00     0.056 A 
HETATM    5  C   UNL     1       4.926  29.195  57.053  1.00  0.00     0.072 C 
HETATM    6  N   UNL     1       7.022  30.228  57.848  1.00  0.00    -0.228 NA
ENDROOT
BRANCH   1   7
HETATM    7  N   UNL     1       9.275  30.860  58.371  1.00  0.00    -0.287 N 
HETATM    8  C   UNL     1       9.172  31.588  59.524  1.00  0.00     0.326 C 
HETATM    9  N   UNL     1       8.009  31.458  60.234  1.00  0.00    -0.309 N 
HETATM   10  O   UNL     1      10.125  32.307  59.822  1.00  0.00    -0.247 OA
HETATM   11  H   UNL     1       7.360  30.766  59.868  1.00  0.00     0.170 HD
HETATM   12  H   UNL     1      10.131  30.993  57.854  1.00  0.00     0.172 HD
BRANCH   9  13
HETATM   13  C   UNL     1       7.600  32.150  61.388  1.00  0.00     0.036 A 
HETATM   14  C   UNL     1       6.442  32.923  61.466  1.00  0.00     0.030 A 
HETATM   15  C   UNL     1       6.091  33.556  62.664  1.00  0.00     0.009 A 
HETATM   16  C   UNL     1       6.890  33.423  63.805  1.00  0.00    -0.062 A 
HETATM   17  C   UNL     1       6.512  34.121  65.076  1.00  0.00     0.048 C 
HETATM   18  C   UNL     1       8.060  32.664  63.722  1.00  0.00     0.009 A 
HETATM   19  C   UNL     1       8.407  32.028  62.525  1.00  0.00     0.030 A 
ENDBRANCH   9  13
ENDBRANCH   1   7
BRANCH   3  20
HETATM   20  C   UNL     1       6.952  27.037  55.888  1.00  0.00     0.260 C 
HETATM   21  N   UNL     1       6.843  27.211  54.525  1.00  0.00    -0.352 N 
HETATM   22  H   UNL     1       6.890  28.148  54.147  1.00  0.00     0.163 HD
HETATM   23  O   UNL     1       6.765  25.935  56.402  1.00  0.00    -0.267 OA
BRANCH  21  24
HETATM   24  C   UNL     1       6.396  26.139  53.669  1.00  0.00     0.161 C 
BRANCH  24  25
HETATM   25  C   UNL     1       5.853  26.674  52.371  1.00  0.00    -0.040 A 
HETATM   26  C   UNL     1       5.416  25.788  51.374  1.00  0.00     0.010 A 
HETATM   27  C   UNL     1       4.910  26.273  50.165  1.00  0.00     0.024 A 
HETATM   28  C   UNL     1       4.840  27.647  49.948  1.00  0.00     0.034 A 
HETATM   29 CL   UNL     1       4.212  28.246  48.462  1.00  0.00    -0.084 Cl
HETATM   30  C   UNL     1       5.276  28.539  50.925  1.00  0.00     0.024 A 
HETATM   31  C   UNL     1       5.784  28.054  52.133  1.00  0.00     0.010 A 
ENDBRANCH  24  25
ENDBRANCH  21  24
ENDBRANCH   3  20
TORSDOF 5
ENDMDL
MODEL 10
REMARK VINA RESULT:      -8.5      5.027     10.298
REMARK  5 active torsions:
REMARK  status: ('A' for Active; 'I' for Inactive)
REMARK    1  A    between atoms: C_5  and  N_6 
REMARK       I    between atoms: N_6  and  C_7 
REMARK       I    between atoms: C_7  and  N_8 
REMARK    2  A    between atoms: N_8  and  C_9 
REMARK    3  A    between atoms: C_11  and  C_12 
REMARK       I    between atoms: C_12  and  N_13 
REMARK    4  A    between atoms: N_13  and  C_14 
REMARK    5  A    between atoms: C_14  and  C_15 
ROOT
HETATM    1  C   UNL     1       5.243  29.423  57.242  1.00  0.00     0.175 A 
HETATM    2  S   UNL     1       4.590  28.489  55.982  1.00  0.00    -0.044 SA
HETATM    3  C   UNL     1       6.163  28.327  55.303  1.00  0.00     0.100 A 
HETATM    4  C   UNL     1       7.072  29.035  56.081  1.00  0.00     0.056 A 
HETATM    5  C   UNL     1       8.536  29.173  55.845  1.00  0.00     0.072 C 
HETATM    6  N   UNL     1       6.529  29.659  57.198  1.00  0.00    -0.228 NA
ENDROOT
BRANCH   1   7
HETATM    7  N   UNL     1       4.353  29.826  58.191  1.00  0.00    -0.287 N 
HETATM    8  C   UNL     1       3.784  31.066  58.290  1.00  0.00     0.326 C 
HETATM    9  N   UNL     1       4.114  31.975  57.321  1.00  0.00    -0.309 N 
HETATM   10  O   UNL     1       3.034  31.265  59.244  1.00  0.00    -0.247 OA
HETATM   11  H   UNL     1       4.698  31.610  56.573  1.00  0.00     0.170 HD
HETATM   12  H   UNL     1       4.114  29.183  58.930  1.00  0.00     0.172 HD
BRANCH   9  13
HETATM   13  C   UNL     1       3.758  33.333  57.230  1.00  0.00     0.036 A 
HETATM   14  C   UNL     1       2.732  33.818  56.419  1.00  0.00     0.030 A 
HETATM   15  C   UNL     1       2.421  35.183  56.410  1.00  0.00     0.009 A 
HETATM   16  C   UNL     1       3.128  36.084  57.214  1.00  0.00    -0.062 A 
HETATM   17  C   UNL     1       2.796  37.545  57.181  1.00  0.00     0.048 C 
HETATM   18  C   UNL     1       4.166  35.600  58.014  1.00  0.00     0.009 A 
HETATM   19  C   UNL     1       4.474  34.235  58.025  1.00  0.00     0.030 A 
ENDBRANCH   9  13
ENDBRANCH   1   7
BRANCH   3  20
HETATM   20  C   UNL     1       6.425  27.550  54.104  1.00  0.00     0.260 C 
HETATM   21  N   UNL     1       6.388  26.180  54.246  1.00  0.00    -0.352 N 
HETATM   22  H   UNL     1       6.288  25.788  55.173  1.00  0.00     0.163 HD
HETATM   23  O   UNL     1       6.681  28.066  53.017  1.00  0.00    -0.267 OA
BRANCH  21  24
HETATM   24  C   UNL     1       6.759  25.306  53.159  1.00  0.00     0.161 C 
BRANCH  24  25
HETATM   25  C   UNL     1       7.217  23.968  53.674  1.00  0.00    -0.040 A 
HETATM   26  C   UNL     1       7.144  23.680  55.046  1.00  0.00     0.010 A 
HETATM   27  C   UNL     1       7.567  22.442  55.535  1.00  0.00     0.024 A 
HETATM   28  C   UNL     1       8.066  21.485  54.654  1.00  0.00     0.034 A 
HETATM   29 CL   UNL     1       8.582  19.957  55.255  1.00  0.00    -0.084 Cl
HETATM   30  C   UNL     1       8.151  21.758  53.291  1.00  0.00     0.024 A 
HETATM   31  C   UNL     1       7.731  22.997  52.801  1.00  0.00     0.010 A 
ENDBRANCH  24  25
ENDBRANCH  21  24
ENDBRANCH   3  20
TORSDOF 5
ENDMDL
