MODEL 1
REMARK VINA RESULT:      -9.4      0.000      0.000
REMARK  4 active torsions:
REMARK  status: ('A' for Active; 'I' for Inactive)
REMARK    1  A    between atoms: C_6  and  N_7 
REMARK       I    between atoms: N_7  and  C_8 
REMARK    2  A    between atoms: C_8  and  C_9 
REMARK    3  A    between atoms: C_10  and  C_11 
REMARK    4  A    between atoms: C_12  and  O_13 
ROOT
HETATM    1  C   UNL     1       5.719  27.141  56.495  1.00  0.00     0.063 C 
HETATM    2  C   UNL     1       4.570  27.937  55.886  1.00  0.00     0.205 C 
HETATM    3  N   UNL     1       4.430  29.235  56.563  1.00  0.00    -0.084 N 
HETATM    4  C   UNL     1       5.345  29.742  57.448  1.00  0.00     0.725 A 
HETATM    5  N   UNL     1       6.435  29.014  57.764  1.00  0.00    -0.192 N 
HETATM    6  N   UNL     1       3.354  30.046  56.458  1.00  0.00    -0.149 NA
HETATM    7  C   UNL     1       3.731  31.058  57.247  1.00  0.00     0.275 A 
HETATM    8  N   UNL     1       4.940  30.910  57.876  1.00  0.00    -0.054 NA
HETATM    9  C   UNL     1       6.606  27.695  57.358  1.00  0.00     0.037 C 
HETATM   10  C   UNL     1       7.802  26.978  57.931  1.00  0.00     0.070 C 
HETATM   11  H   UNL     1       7.083  29.387  58.451  1.00  0.00     0.184 HD
ENDROOT
BRANCH   1  12
HETATM   12  C   UNL     1       5.762  25.704  56.127  1.00  0.00     0.256 C 
HETATM   13  N   UNL     1       6.787  25.436  55.240  1.00  0.00    -0.323 N 
HETATM   14  H   UNL     1       7.334  26.228  54.933  1.00  0.00     0.169 HD
HETATM   15  O   UNL     1       4.948  24.926  56.599  1.00  0.00    -0.267 OA
BRANCH  13  16
HETATM   16  C   UNL     1       7.161  24.181  54.703  1.00  0.00     0.041 A 
HETATM   17  C   UNL     1       7.346  24.065  53.307  1.00  0.00    -0.035 A 
HETATM   18  C   UNL     1       7.745  22.830  52.762  1.00  0.00     0.015 A 
HETATM   19  C   UNL     1       7.131  25.220  52.366  1.00  0.00     0.050 C 
HETATM   20  C   UNL     1       7.947  21.709  53.573  1.00  0.00    -0.061 A 
HETATM   21  C   UNL     1       8.412  20.411  52.983  1.00  0.00     0.048 C 
HETATM   22  C   UNL     1       7.769  21.836  54.950  1.00  0.00     0.009 A 
HETATM   23  C   UNL     1       7.374  23.057  55.507  1.00  0.00     0.030 A 
ENDBRANCH  13  16
ENDBRANCH   1  12
BRANCH   2  24
HETATM   24  C   UNL     1       4.714  28.162  54.383  1.00  0.00     0.005 A 
HETATM   25  C   UNL     1       5.961  28.500  53.819  1.00  0.00     0.076 A 
HETATM   26  C   UNL     1       6.065  28.703  52.438  1.00  0.00     0.037 A 
HETATM   27  C   UNL     1       4.946  28.563  51.613  1.00  0.00     0.003 A 
HETATM   28  C   UNL     1       3.715  28.221  52.158  1.00  0.00     0.001 A 
HETATM   29  C   UNL     1       3.597  28.021  53.531  1.00  0.00     0.012 A 
BRANCH  25  30
HETATM   30  O   UNL     1       7.006  28.623  54.697  1.00  0.00    -0.355 OA
HETATM   31  C   UNL     1       8.311  28.362  54.197  1.00  0.00     0.210 C 
ENDBRANCH  25  30
ENDBRANCH   2  24
TORSDOF 4
ENDMDL
MODEL 2
REMARK VINA RESULT:      -9.3      2.592      4.370
REMARK  4 active torsions:
REMARK  status: ('A' for Active; 'I' for Inactive)
REMARK    1  A    between atoms: C_6  and  N_7 
REMARK       I    between atoms: N_7  and  C_8 
REMARK    2  A    between atoms: C_8  and  C_9 
REMARK    3  A    between atoms: C_10  and  C_11 
REMARK    4  A    between atoms: C_12  and  O_13 
ROOT
HETATM    1  C   UNL     1       6.023  26.554  52.212  1.00  0.00     0.063 C 
HETATM    2  C   UNL     1       6.264  27.990  52.668  1.00  0.00     0.205 C 
HETATM    3  N   UNL     1       5.406  28.918  51.917  1.00  0.00    -0.084 N 
HETATM    4  C   UNL     1       4.379  28.523  51.099  1.00  0.00     0.725 A 
HETATM    5  N   UNL     1       4.139  27.208  50.926  1.00  0.00    -0.192 N 
HETATM    6  N   UNL     1       5.570  30.258  51.877  1.00  0.00    -0.149 NA
HETATM    7  C   UNL     1       4.556  30.608  51.078  1.00  0.00     0.275 A 
HETATM    8  N   UNL     1       3.806  29.576  50.577  1.00  0.00    -0.054 NA
HETATM    9  C   UNL     1       4.983  26.215  51.412  1.00  0.00     0.037 C 
HETATM   10  C   UNL     1       4.653  24.805  50.993  1.00  0.00     0.070 C 
HETATM   11  H   UNL     1       3.400  26.931  50.287  1.00  0.00     0.184 HD
ENDROOT
BRANCH   1  12
HETATM   12  C   UNL     1       7.040  25.568  52.654  1.00  0.00     0.256 C 
HETATM   13  N   UNL     1       6.542  24.726  53.630  1.00  0.00    -0.323 N 
HETATM   14  H   UNL     1       5.597  24.906  53.938  1.00  0.00     0.169 HD
HETATM   15  O   UNL     1       8.156  25.576  52.160  1.00  0.00    -0.267 OA
BRANCH  13  16
HETATM   16  C   UNL     1       7.201  23.641  54.256  1.00  0.00     0.041 A 
HETATM   17  C   UNL     1       7.435  23.699  55.648  1.00  0.00    -0.035 A 
HETATM   18  C   UNL     1       8.065  22.615  56.289  1.00  0.00     0.015 A 
HETATM   19  C   UNL     1       7.035  24.884  56.486  1.00  0.00     0.050 C 
HETATM   20  C   UNL     1       8.479  21.488  55.573  1.00  0.00    -0.061 A 
HETATM   21  C   UNL     1       9.111  20.324  56.275  1.00  0.00     0.048 C 
HETATM   22  C   UNL     1       8.237  21.439  54.201  1.00  0.00     0.009 A 
HETATM   23  C   UNL     1       7.611  22.507  53.550  1.00  0.00     0.030 A 
ENDBRANCH  13  16
ENDBRANCH   1  12
BRANCH   2  24
HETATM   24  C   UNL     1       6.049  28.199  54.165  1.00  0.00     0.005 A 
HETATM   25  C   UNL     1       7.132  28.500  55.015  1.00  0.00     0.076 A 
HETATM   26  C   UNL     1       6.908  28.684  56.384  1.00  0.00     0.037 A 
HETATM   27  C   UNL     1       5.619  28.584  56.913  1.00  0.00     0.003 A 
HETATM   28  C   UNL     1       4.543  28.297  56.082  1.00  0.00     0.001 A 
HETATM   29  C   UNL     1       4.754  28.106  54.718  1.00  0.00     0.012 A 
BRANCH  25  30
HETATM   30  O   UNL     1       8.364  28.575  54.418  1.00  0.00    -0.355 OA
HETATM   31  C   UNL     1       9.404  29.212  55.150  1.00  0.00     0.210 C 
ENDBRANCH  25  30
ENDBRANCH   2  24
TORSDOF 4
ENDMDL
MODEL 3
REMARK VINA RESULT:      -9.1      3.645      8.540
REMARK  4 active torsions:
REMARK  status: ('A' for Active; 'I' for Inactive)
REMARK    1  A    between atoms: C_6  and  N_7 
REMARK       I    between atoms: N_7  and  C_8 
REMARK    2  A    between atoms: C_8  and  C_9 
REMARK    3  A    between atoms: C_10  and  C_11 
REMARK    4  A    between atoms: C_12  and  O_13 
ROOT
HETATM    1  C   UNL     1       5.633  30.149  57.285  1.00  0.00     0.063 C 
HETATM    2  C   UNL     1       6.634  29.091  57.736  1.00  0.00     0.205 C 
HETATM    3  N   UNL     1       6.241  27.766  57.235  1.00  0.00    -0.084 N 
HETATM    4  C   UNL     1       5.252  27.558  56.307  1.00  0.00     0.725 A 
HETATM    5  N   UNL     1       4.557  28.611  55.833  1.00  0.00    -0.192 N 
HETATM    6  N   UNL     1       6.744  26.593  57.678  1.00  0.00    -0.149 NA
HETATM    7  C   UNL     1       6.067  25.729  56.914  1.00  0.00     0.275 A 
HETATM    8  N   UNL     1       5.141  26.278  56.066  1.00  0.00    -0.054 NA
HETATM    9  C   UNL     1       4.681  29.895  56.354  1.00  0.00     0.037 C 
HETATM   10  C   UNL     1       3.716  30.921  55.817  1.00  0.00     0.070 C 
HETATM   11  H   UNL     1       3.802  28.437  55.177  1.00  0.00     0.184 HD
ENDROOT
BRANCH   1  12
HETATM   12  C   UNL     1       5.734  31.456  57.981  1.00  0.00     0.256 C 
HETATM   13  N   UNL     1       5.538  31.325  59.342  1.00  0.00    -0.323 N 
HETATM   14  H   UNL     1       5.319  30.398  59.677  1.00  0.00     0.169 HD
HETATM   15  O   UNL     1       5.963  32.473  57.344  1.00  0.00    -0.267 OA
BRANCH  13  16
HETATM   16  C   UNL     1       5.603  32.339  60.328  1.00  0.00     0.041 A 
HETATM   17  C   UNL     1       4.424  33.045  60.657  1.00  0.00    -0.035 A 
HETATM   18  C   UNL     1       4.468  34.037  61.655  1.00  0.00     0.015 A 
HETATM   19  C   UNL     1       3.107  32.778  59.978  1.00  0.00     0.050 C 
HETATM   20  C   UNL     1       5.659  34.351  62.316  1.00  0.00    -0.061 A 
HETATM   21  C   UNL     1       5.682  35.380  63.406  1.00  0.00     0.048 C 
HETATM   22  C   UNL     1       6.815  33.643  61.989  1.00  0.00     0.009 A 
HETATM   23  C   UNL     1       6.787  32.654  61.001  1.00  0.00     0.030 A 
ENDBRANCH  13  16
ENDBRANCH   1  12
BRANCH   2  24
HETATM   24  C   UNL     1       8.070  29.389  57.309  1.00  0.00     0.005 A 
HETATM   25  C   UNL     1       9.022  29.838  58.246  1.00  0.00     0.076 A 
HETATM   26  C   UNL     1      10.331  30.106  57.828  1.00  0.00     0.037 A 
HETATM   27  C   UNL     1      10.704  29.922  56.494  1.00  0.00     0.003 A 
HETATM   28  C   UNL     1       9.774  29.470  55.566  1.00  0.00     0.001 A 
HETATM   29  C   UNL     1       8.467  29.204  55.968  1.00  0.00     0.012 A 
BRANCH  25  30
HETATM   30  O   UNL     1       8.575  29.998  59.531  1.00  0.00    -0.355 OA
HETATM   31  C   UNL     1       9.418  30.707  60.431  1.00  0.00     0.210 C 
ENDBRANCH  25  30
ENDBRANCH   2  24
TORSDOF 4
ENDMDL
MODEL 4
REMARK VINA RESULT:      -9.0      1.527      2.405
REMARK  4 active torsions:
REMARK  status: ('A' for Active; 'I' for Inactive)
REMARK    1  A    between atoms: C_6  and  N_7 
REMARK       I    between atoms: N_7  and  C_8 
REMARK    2  A    between atoms: C_8  and  C_9 
REMARK    3  A    between atoms: C_10  and  C_11 
REMARK    4  A    between atoms: C_12  and  O_13 
ROOT
HETATM    1  C   UNL     1       6.811  28.312  55.272  1.00  0.00     0.063 C 
HETATM    2  C   UNL     1       5.290  28.405  55.205  1.00  0.00     0.205 C 
HETATM    3  N   UNL     1       4.786  29.316  56.243  1.00  0.00    -0.084 N 
HETATM    4  C   UNL     1       5.583  30.135  56.999  1.00  0.00     0.725 A 
HETATM    5  N   UNL     1       6.920  30.100  56.828  1.00  0.00    -0.192 N 
HETATM    6  N   UNL     1       3.495  29.401  56.631  1.00  0.00    -0.149 NA
HETATM    7  C   UNL     1       3.582  30.350  57.570  1.00  0.00     0.275 A 
HETATM    8  N   UNL     1       4.843  30.822  57.830  1.00  0.00    -0.054 NA
HETATM    9  C   UNL     1       7.555  29.156  56.028  1.00  0.00     0.037 C 
HETATM   10  C   UNL     1       9.061  29.159  56.073  1.00  0.00     0.070 C 
HETATM   11  H   UNL     1       7.499  30.685  57.423  1.00  0.00     0.184 HD
ENDROOT
BRANCH   1  12
HETATM   12  C   UNL     1       7.414  27.196  54.502  1.00  0.00     0.256 C 
HETATM   13  N   UNL     1       7.216  25.980  55.127  1.00  0.00    -0.323 N 
HETATM   14  H   UNL     1       6.739  26.005  56.017  1.00  0.00     0.169 HD
HETATM   15  O   UNL     1       7.997  27.420  53.452  1.00  0.00    -0.267 OA
BRANCH  13  16
HETATM   16  C   UNL     1       7.607  24.698  54.672  1.00  0.00     0.041 A 
HETATM   17  C   UNL     1       8.345  23.863  55.540  1.00  0.00    -0.035 A 
HETATM   18  C   UNL     1       8.718  22.576  55.111  1.00  0.00     0.015 A 
HETATM   19  C   UNL     1       8.757  24.298  56.922  1.00  0.00     0.050 C 
HETATM   20  C   UNL     1       8.386  22.111  53.834  1.00  0.00    -0.061 A 
HETATM   21  C   UNL     1       8.754  20.721  53.406  1.00  0.00     0.048 C 
HETATM   22  C   UNL     1       7.651  22.940  52.988  1.00  0.00     0.009 A 
HETATM   23  C   UNL     1       7.272  24.222  53.401  1.00  0.00     0.030 A 
ENDBRANCH  13  16
ENDBRANCH   1  12
BRANCH   2  24
HETATM   24  C   UNL     1       4.766  28.850  53.841  1.00  0.00     0.005 A 
HETATM   25  C   UNL     1       4.420  27.902  52.857  1.00  0.00     0.076 A 
HETATM   26  C   UNL     1       3.944  28.337  51.614  1.00  0.00     0.037 A 
HETATM   27  C   UNL     1       3.799  29.700  51.346  1.00  0.00     0.003 A 
HETATM   28  C   UNL     1       4.128  30.641  52.313  1.00  0.00     0.001 A 
HETATM   29  C   UNL     1       4.608  30.222  53.552  1.00  0.00     0.012 A 
BRANCH  25  30
HETATM   30  O   UNL     1       4.598  26.587  53.198  1.00  0.00    -0.355 OA
HETATM   31  C   UNL     1       4.679  25.644  52.136  1.00  0.00     0.210 C 
ENDBRANCH  25  30
ENDBRANCH   2  24
TORSDOF 4
ENDMDL
MODEL 5
REMARK VINA RESULT:      -9.0      2.298      5.240
REMARK  4 active torsions:
REMARK  status: ('A' for Active; 'I' for Inactive)
REMARK    1  A    between atoms: C_6  and  N_7 
REMARK       I    between atoms: N_7  and  C_8 
REMARK    2  A    between atoms: C_8  and  C_9 
REMARK    3  A    between atoms: C_10  and  C_11 
REMARK    4  A    between atoms: C_12  and  O_13 
ROOT
HETATM    1  C   UNL     1       5.708  28.868  54.986  1.00  0.00     0.063 C 
HETATM    2  C   UNL     1       7.084  28.229  55.139  1.00  0.00     0.205 C 
HETATM    3  N   UNL     1       7.878  28.951  56.144  1.00  0.00    -0.084 N 
HETATM    4  C   UNL     1       7.366  29.908  56.982  1.00  0.00     0.725 A 
HETATM    5  N   UNL     1       6.068  30.255  56.878  1.00  0.00    -0.192 N 
HETATM    6  N   UNL     1       9.211  28.820  56.313  1.00  0.00    -0.149 NA
HETATM    7  C   UNL     1       9.417  29.672  57.324  1.00  0.00     0.275 A 
HETATM    8  N   UNL     1       8.315  30.362  57.759  1.00  0.00    -0.054 NA
HETATM    9  C   UNL     1       5.245  29.803  55.852  1.00  0.00     0.037 C 
HETATM   10  C   UNL     1       3.868  30.412  55.794  1.00  0.00     0.070 C 
HETATM   11  H   UNL     1       5.714  30.993  57.479  1.00  0.00     0.184 HD
ENDROOT
BRANCH   1  12
HETATM   12  C   UNL     1       4.938  28.441  53.792  1.00  0.00     0.256 C 
HETATM   13  N   UNL     1       5.716  28.462  52.650  1.00  0.00    -0.323 N 
HETATM   14  H   UNL     1       6.664  28.791  52.759  1.00  0.00     0.169 HD
HETATM   15  O   UNL     1       3.763  28.128  53.901  1.00  0.00    -0.267 OA
BRANCH  13  16
HETATM   16  C   UNL     1       5.340  28.081  51.340  1.00  0.00     0.041 A 
HETATM   17  C   UNL     1       5.264  29.074  50.337  1.00  0.00    -0.035 A 
HETATM   18  C   UNL     1       4.918  28.705  49.024  1.00  0.00     0.015 A 
HETATM   19  C   UNL     1       5.539  30.527  50.618  1.00  0.00     0.050 C 
HETATM   20  C   UNL     1       4.632  27.377  48.693  1.00  0.00    -0.061 A 
HETATM   21  C   UNL     1       4.307  26.993  47.280  1.00  0.00     0.048 C 
HETATM   22  C   UNL     1       4.717  26.404  49.688  1.00  0.00     0.009 A 
HETATM   23  C   UNL     1       5.061  26.754  50.998  1.00  0.00     0.030 A 
ENDBRANCH  13  16
ENDBRANCH   1  12
BRANCH   2  24
HETATM   24  C   UNL     1       7.031  26.747  55.504  1.00  0.00     0.005 A 
HETATM   25  C   UNL     1       7.392  25.759  54.566  1.00  0.00     0.076 A 
HETATM   26  C   UNL     1       7.332  24.408  54.926  1.00  0.00     0.037 A 
HETATM   27  C   UNL     1       6.928  24.030  56.209  1.00  0.00     0.003 A 
HETATM   28  C   UNL     1       6.579  24.998  57.143  1.00  0.00     0.001 A 
HETATM   29  C   UNL     1       6.630  26.346  56.796  1.00  0.00     0.012 A 
BRANCH  25  30
HETATM   30  O   UNL     1       7.771  26.212  53.330  1.00  0.00    -0.355 OA
HETATM   31  C   UNL     1       8.052  25.234  52.336  1.00  0.00     0.210 C 
ENDBRANCH  25  30
ENDBRANCH   2  24
TORSDOF 4
ENDMDL
MODEL 6
REMARK VINA RESULT:      -8.7      7.328     11.130
REMARK  4 active torsions:
REMARK  status: ('A' for Active; 'I' for Inactive)
REMARK    1  A    between atoms: C_6  and  N_7 
REMARK       I    between atoms: N_7  and  C_8 
REMARK    2  A    between atoms: C_8  and  C_9 
REMARK    3  A    between atoms: C_10  and  C_11 
REMARK    4  A    between atoms: C_12  and  O_13 
ROOT
HETATM    1  C   UNL     1       5.579  33.258  63.687  1.00  0.00     0.063 C 
HETATM    2  C   UNL     1       4.627  34.207  64.407  1.00  0.00     0.205 C 
HETATM    3  N   UNL     1       5.086  34.449  65.783  1.00  0.00    -0.084 N 
HETATM    4  C   UNL     1       6.311  34.064  66.262  1.00  0.00     0.725 A 
HETATM    5  N   UNL     1       7.155  33.389  65.457  1.00  0.00    -0.192 N 
HETATM    6  N   UNL     1       4.336  35.006  66.758  1.00  0.00    -0.149 NA
HETATM    7  C   UNL     1       5.205  34.995  67.775  1.00  0.00     0.275 A 
HETATM    8  N   UNL     1       6.423  34.423  67.515  1.00  0.00    -0.054 NA
HETATM    9  C   UNL     1       6.787  32.918  64.201  1.00  0.00     0.037 C 
HETATM   10  C   UNL     1       7.798  32.047  63.500  1.00  0.00     0.070 C 
HETATM   11  H   UNL     1       8.043  33.077  65.839  1.00  0.00     0.184 HD
ENDROOT
BRANCH   1  12
HETATM   12  C   UNL     1       5.067  32.684  62.418  1.00  0.00     0.256 C 
HETATM   13  N   UNL     1       5.571  33.350  61.318  1.00  0.00    -0.323 N 
HETATM   14  H   UNL     1       6.171  34.140  61.508  1.00  0.00     0.169 HD
HETATM   15  O   UNL     1       4.295  31.738  62.442  1.00  0.00    -0.267 OA
BRANCH  13  16
HETATM   16  C   UNL     1       5.342  33.061  59.951  1.00  0.00     0.041 A 
HETATM   17  C   UNL     1       6.237  32.201  59.278  1.00  0.00    -0.035 A 
HETATM   18  C   UNL     1       6.007  31.884  57.926  1.00  0.00     0.015 A 
HETATM   19  C   UNL     1       7.443  31.602  59.952  1.00  0.00     0.050 C 
HETATM   20  C   UNL     1       4.917  32.417  57.230  1.00  0.00    -0.061 A 
HETATM   21  C   UNL     1       4.661  32.037  55.802  1.00  0.00     0.048 C 
HETATM   22  C   UNL     1       4.036  33.259  57.906  1.00  0.00     0.009 A 
HETATM   23  C   UNL     1       4.251  33.583  59.250  1.00  0.00     0.030 A 
ENDBRANCH  13  16
ENDBRANCH   1  12
BRANCH   2  24
HETATM   24  C   UNL     1       4.441  35.543  63.691  1.00  0.00     0.005 A 
HETATM   25  C   UNL     1       3.294  35.791  62.912  1.00  0.00     0.076 A 
HETATM   26  C   UNL     1       3.150  37.023  62.264  1.00  0.00     0.037 A 
HETATM   27  C   UNL     1       4.127  38.013  62.393  1.00  0.00     0.003 A 
HETATM   28  C   UNL     1       5.257  37.782  63.167  1.00  0.00     0.001 A 
HETATM   29  C   UNL     1       5.415  36.557  63.813  1.00  0.00     0.012 A 
BRANCH  25  30
HETATM   30  O   UNL     1       2.387  34.767  62.832  1.00  0.00    -0.355 OA
HETATM   31  C   UNL     1       1.578  34.702  61.663  1.00  0.00     0.210 C 
ENDBRANCH  25  30
ENDBRANCH   2  24
TORSDOF 4
ENDMDL
MODEL 7
REMARK VINA RESULT:      -8.7      2.337      5.833
REMARK  4 active torsions:
REMARK  status: ('A' for Active; 'I' for Inactive)
REMARK    1  A    between atoms: C_6  and  N_7 
REMARK       I    between atoms: N_7  and  C_8 
REMARK    2  A    between atoms: C_8  and  C_9 
REMARK    3  A    between atoms: C_10  and  C_11 
REMARK    4  A    between atoms: C_12  and  O_13 
ROOT
HETATM    1  C   UNL     1       6.284  29.242  56.263  1.00  0.00     0.063 C 
HETATM    2  C   UNL     1       7.654  28.648  55.951  1.00  0.00     0.205 C 
HETATM    3  N   UNL     1       8.697  29.322  56.738  1.00  0.00    -0.084 N 
HETATM    4  C   UNL     1       8.440  30.190  57.768  1.00  0.00     0.725 A 
HETATM    5  N   UNL     1       7.163  30.492  58.078  1.00  0.00    -0.192 N 
HETATM    6  N   UNL     1      10.023  29.232  56.498  1.00  0.00    -0.149 NA
HETATM    7  C   UNL     1      10.504  30.010  57.474  1.00  0.00     0.275 A 
HETATM    8  N   UNL     1       9.569  30.620  58.269  1.00  0.00    -0.054 NA
HETATM    9  C   UNL     1       6.082  30.088  57.303  1.00  0.00     0.037 C 
HETATM   10  C   UNL     1       4.739  30.644  57.703  1.00  0.00     0.070 C 
HETATM   11  H   UNL     1       6.992  31.166  58.818  1.00  0.00     0.184 HD
ENDROOT
BRANCH   1  12
HETATM   12  C   UNL     1       5.202  28.878  55.314  1.00  0.00     0.256 C 
HETATM   13  N   UNL     1       5.407  29.440  54.069  1.00  0.00    -0.323 N 
HETATM   14  H   UNL     1       6.215  30.039  53.974  1.00  0.00     0.169 HD
HETATM   15  O   UNL     1       4.282  28.164  55.679  1.00  0.00    -0.267 OA
BRANCH  13  16
HETATM   16  C   UNL     1       4.615  29.282  52.906  1.00  0.00     0.041 A 
HETATM   17  C   UNL     1       3.578  30.209  52.657  1.00  0.00    -0.035 A 
HETATM   18  C   UNL     1       2.800  30.079  51.491  1.00  0.00     0.015 A 
HETATM   19  C   UNL     1       3.266  31.342  53.598  1.00  0.00     0.050 C 
HETATM   20  C   UNL     1       3.022  29.041  50.581  1.00  0.00    -0.061 A 
HETATM   21  C   UNL     1       2.213  28.940  49.323  1.00  0.00     0.048 C 
HETATM   22  C   UNL     1       4.052  28.136  50.833  1.00  0.00     0.009 A 
HETATM   23  C   UNL     1       4.835  28.252  51.986  1.00  0.00     0.030 A 
ENDBRANCH  13  16
ENDBRANCH   1  12
BRANCH   2  24
HETATM   24  C   UNL     1       7.733  27.142  56.187  1.00  0.00     0.005 A 
HETATM   25  C   UNL     1       7.650  26.237  55.111  1.00  0.00     0.076 A 
HETATM   26  C   UNL     1       7.724  24.861  55.355  1.00  0.00     0.037 A 
HETATM   27  C   UNL     1       7.890  24.377  56.655  1.00  0.00     0.003 A 
HETATM   28  C   UNL     1       7.982  25.262  57.722  1.00  0.00     0.001 A 
HETATM   29  C   UNL     1       7.905  26.634  57.493  1.00  0.00     0.012 A 
BRANCH  25  30
HETATM   30  O   UNL     1       7.483  26.792  53.869  1.00  0.00    -0.355 OA
HETATM   31  C   UNL     1       7.560  25.918  52.749  1.00  0.00     0.210 C 
ENDBRANCH  25  30
ENDBRANCH   2  24
TORSDOF 4
ENDMDL
MODEL 8
REMARK VINA RESULT:      -8.7      2.044      3.214
REMARK  4 active torsions:
REMARK  status: ('A' for Active; 'I' for Inactive)
REMARK    1  A    between atoms: C_6  and  N_7 
REMARK       I    between atoms: N_7  and  C_8 
REMARK    2  A    between atoms: C_8  and  C_9 
REMARK    3  A    between atoms: C_10  and  C_11 
REMARK    4  A    between atoms: C_12  and  O_13 
ROOT
HETATM    1  C   UNL     1       6.511  29.659  56.848  1.00  0.00     0.063 C 
HETATM    2  C   UNL     1       5.024  29.972  56.722  1.00  0.00     0.205 C 
HETATM    3  N   UNL     1       4.557  30.728  57.893  1.00  0.00    -0.084 N 
HETATM    4  C   UNL     1       5.389  31.270  58.838  1.00  0.00     0.725 A 
HETATM    5  N   UNL     1       6.721  31.085  58.733  1.00  0.00    -0.192 N 
HETATM    6  N   UNL     1       3.261  30.915  58.223  1.00  0.00    -0.149 NA
HETATM    7  C   UNL     1       3.392  31.646  59.336  1.00  0.00     0.275 A 
HETATM    8  N   UNL     1       4.678  31.881  59.750  1.00  0.00    -0.054 NA
HETATM    9  C   UNL     1       7.293  30.233  57.795  1.00  0.00     0.037 C 
HETATM   10  C   UNL     1       8.780  30.020  57.918  1.00  0.00     0.070 C 
HETATM   11  H   UNL     1       7.320  31.459  59.462  1.00  0.00     0.184 HD
ENDROOT
BRANCH   1  12
HETATM   12  C   UNL     1       7.028  28.638  55.903  1.00  0.00     0.256 C 
HETATM   13  N   UNL     1       6.590  27.371  56.232  1.00  0.00    -0.323 N 
HETATM   14  H   UNL     1       6.027  27.293  57.067  1.00  0.00     0.169 HD
HETATM   15  O   UNL     1       7.749  28.972  54.975  1.00  0.00    -0.267 OA
BRANCH  13  16
HETATM   16  C   UNL     1       6.841  26.161  55.542  1.00  0.00     0.041 A 
HETATM   17  C   UNL     1       7.699  25.206  56.130  1.00  0.00    -0.035 A 
HETATM   18  C   UNL     1       7.936  23.987  55.467  1.00  0.00     0.015 A 
HETATM   19  C   UNL     1       8.382  25.440  57.451  1.00  0.00     0.050 C 
HETATM   20  C   UNL     1       7.351  23.707  54.228  1.00  0.00    -0.061 A 
HETATM   21  C   UNL     1       7.579  22.388  53.554  1.00  0.00     0.048 C 
HETATM   22  C   UNL     1       6.499  24.653  53.660  1.00  0.00     0.009 A 
HETATM   23  C   UNL     1       6.252  25.869  54.307  1.00  0.00     0.030 A 
ENDBRANCH  13  16
ENDBRANCH   1  12
BRANCH   2  24
HETATM   24  C   UNL     1       4.667  30.737  55.449  1.00  0.00     0.005 A 
HETATM   25  C   UNL     1       4.146  30.065  54.325  1.00  0.00     0.076 A 
HETATM   26  C   UNL     1       3.830  30.789  53.170  1.00  0.00     0.037 A 
HETATM   27  C   UNL     1       4.015  32.173  53.126  1.00  0.00     0.003 A 
HETATM   28  C   UNL     1       4.519  32.846  54.232  1.00  0.00     0.001 A 
HETATM   29  C   UNL     1       4.843  32.135  55.386  1.00  0.00     0.012 A 
BRANCH  25  30
HETATM   30  O   UNL     1       4.001  28.708  54.449  1.00  0.00    -0.355 OA
HETATM   31  C   UNL     1       3.688  27.977  53.269  1.00  0.00     0.210 C 
ENDBRANCH  25  30
ENDBRANCH   2  24
TORSDOF 4
ENDMDL
MODEL 9
REMARK VINA RESULT:      -8.6      8.453     13.341
REMARK  4 active torsions:
REMARK  status: ('A' for Active; 'I' for Inactive)
REMARK    1  A    between atoms: C_6  and  N_7 
REMARK       I    between atoms: N_7  and  C_8 
REMARK    2  A    between atoms: C_8  and  C_9 
REMARK    3  A    between atoms: C_10  and  C_11 
REMARK    4  A    between atoms: C_12  and  O_13 
ROOT
HETATM    1  C   UNL     1       4.149  35.316  61.222  1.00  0.00     0.063 C 
HETATM    2  C   UNL     1       4.126  33.930  61.859  1.00  0.00     0.205 C 
HETATM    3  N   UNL     1       3.747  32.914  60.867  1.00  0.00    -0.084 N 
HETATM    4  C   UNL     1       3.658  33.153  59.519  1.00  0.00     0.725 A 
HETATM    5  N   UNL     1       3.894  34.395  59.050  1.00  0.00    -0.192 N 
HETATM    6  N   UNL     1       3.366  31.653  61.162  1.00  0.00    -0.149 NA
HETATM    7  C   UNL     1       3.140  31.169  59.936  1.00  0.00     0.275 A 
HETATM    8  N   UNL     1       3.302  32.056  58.903  1.00  0.00    -0.054 NA
HETATM    9  C   UNL     1       4.070  35.496  59.880  1.00  0.00     0.037 C 
HETATM   10  C   UNL     1       4.164  36.833  59.192  1.00  0.00     0.070 C 
HETATM   11  H   UNL     1       3.786  34.564  58.054  1.00  0.00     0.184 HD
ENDROOT
BRANCH   1  12
HETATM   12  C   UNL     1       4.200  36.453  62.174  1.00  0.00     0.256 C 
HETATM   13  N   UNL     1       5.468  36.996  62.250  1.00  0.00    -0.323 N 
HETATM   14  H   UNL     1       6.184  36.544  61.700  1.00  0.00     0.169 HD
HETATM   15  O   UNL     1       3.193  36.795  62.774  1.00  0.00    -0.267 OA
BRANCH  13  16
HETATM   16  C   UNL     1       5.887  38.112  63.014  1.00  0.00     0.041 A 
HETATM   17  C   UNL     1       6.644  39.124  62.383  1.00  0.00    -0.035 A 
HETATM   18  C   UNL     1       7.045  40.252  63.124  1.00  0.00     0.015 A 
HETATM   19  C   UNL     1       7.047  39.046  60.934  1.00  0.00     0.050 C 
HETATM   20  C   UNL     1       6.723  40.384  64.478  1.00  0.00    -0.061 A 
HETATM   21  C   UNL     1       7.121  41.610  65.244  1.00  0.00     0.048 C 
HETATM   22  C   UNL     1       5.969  39.383  65.089  1.00  0.00     0.009 A 
HETATM   23  C   UNL     1       5.562  38.256  64.366  1.00  0.00     0.030 A 
ENDBRANCH  13  16
ENDBRANCH   1  12
BRANCH   2  24
HETATM   24  C   UNL     1       5.451  33.536  62.508  1.00  0.00     0.005 A 
HETATM   25  C   UNL     1       5.565  33.427  63.908  1.00  0.00     0.076 A 
HETATM   26  C   UNL     1       6.792  33.066  64.477  1.00  0.00     0.037 A 
HETATM   27  C   UNL     1       7.900  32.802  63.669  1.00  0.00     0.003 A 
HETATM   28  C   UNL     1       7.795  32.898  62.287  1.00  0.00     0.001 A 
HETATM   29  C   UNL     1       6.581  33.261  61.709  1.00  0.00     0.012 A 
BRANCH  25  30
HETATM   30  O   UNL     1       4.433  33.707  64.628  1.00  0.00    -0.355 OA
HETATM   31  C   UNL     1       4.575  33.842  66.037  1.00  0.00     0.210 C 
ENDBRANCH  25  30
ENDBRANCH   2  24
TORSDOF 4
ENDMDL
MODEL 10
REMARK VINA RESULT:      -8.6      3.353      8.348
REMARK  4 active torsions:
REMARK  status: ('A' for Active; 'I' for Inactive)
REMARK    1  A    between atoms: C_6  and  N_7 
REMARK       I    between atoms: N_7  and  C_8 
REMARK    2  A    between atoms: C_8  and  C_9 
REMARK    3  A    between atoms: C_10  and  C_11 
REMARK    4  A    between atoms: C_12  and  O_13 
ROOT
HETATM    1  C   UNL     1       5.606  29.938  57.292  1.00  0.00     0.063 C 
HETATM    2  C   UNL     1       6.673  28.948  57.748  1.00  0.00     0.205 C 
HETATM    3  N   UNL     1       6.304  27.580  57.356  1.00  0.00    -0.084 N 
HETATM    4  C   UNL     1       5.273  27.277  56.504  1.00  0.00     0.725 A 
HETATM    5  N   UNL     1       4.510  28.272  56.007  1.00  0.00    -0.192 N 
HETATM    6  N   UNL     1       6.878  26.458  57.842  1.00  0.00    -0.149 NA
HETATM    7  C   UNL     1       6.192  25.522  57.175  1.00  0.00     0.275 A 
HETATM    8  N   UNL     1       5.198  25.980  56.351  1.00  0.00    -0.054 NA
HETATM    9  C   UNL     1       4.613  29.590  56.437  1.00  0.00     0.037 C 
HETATM   10  C   UNL     1       3.580  30.544  55.895  1.00  0.00     0.070 C 
HETATM   11  H   UNL     1       3.727  28.027  55.409  1.00  0.00     0.184 HD
ENDROOT
BRANCH   1  12
HETATM   12  C   UNL     1       5.695  31.291  57.897  1.00  0.00     0.256 C 
HETATM   13  N   UNL     1       5.426  31.262  59.251  1.00  0.00    -0.323 N 
HETATM   14  H   UNL     1       5.171  30.365  59.640  1.00  0.00     0.169 HD
HETATM   15  O   UNL     1       5.978  32.255  57.202  1.00  0.00    -0.267 OA
BRANCH  13  16
HETATM   16  C   UNL     1       5.457  32.344  60.163  1.00  0.00     0.041 A 
HETATM   17  C   UNL     1       6.558  32.464  61.040  1.00  0.00    -0.035 A 
HETATM   18  C   UNL     1       6.615  33.550  61.934  1.00  0.00     0.015 A 
HETATM   19  C   UNL     1       7.686  31.467  61.061  1.00  0.00     0.050 C 
HETATM   20  C   UNL     1       5.596  34.505  61.984  1.00  0.00    -0.061 A 
HETATM   21  C   UNL     1       5.691  35.679  62.912  1.00  0.00     0.048 C 
HETATM   22  C   UNL     1       4.517  34.382  61.109  1.00  0.00     0.009 A 
HETATM   23  C   UNL     1       4.446  33.309  60.214  1.00  0.00     0.030 A 
ENDBRANCH  13  16
ENDBRANCH   1  12
BRANCH   2  24
HETATM   24  C   UNL     1       8.068  29.268  57.219  1.00  0.00     0.005 A 
HETATM   25  C   UNL     1       8.374  29.120  55.851  1.00  0.00     0.076 A 
HETATM   26  C   UNL     1       9.662  29.418  55.393  1.00  0.00     0.037 A 
HETATM   27  C   UNL     1      10.644  29.872  56.276  1.00  0.00     0.003 A 
HETATM   28  C   UNL     1      10.350  30.031  57.625  1.00  0.00     0.001 A 
HETATM   29  C   UNL     1       9.073  29.732  58.095  1.00  0.00     0.012 A 
BRANCH  25  30
HETATM   30  O   UNL     1       7.357  28.664  55.053  1.00  0.00    -0.355 OA
HETATM   31  C   UNL     1       7.721  27.916  53.899  1.00  0.00     0.210 C 
ENDBRANCH  25  30
ENDBRANCH   2  24
TORSDOF 4
ENDMDL
