MODEL 1
REMARK VINA RESULT:      -8.5      0.000      0.000
REMARK  6 active torsions:
REMARK  status: ('A' for Active; 'I' for Inactive)
REMARK    1  A    between atoms: C_3  and  N_4 
REMARK    2  A    between atoms: N_4  and  C_5 
REMARK    3  A    between atoms: C_5  and  C_6 
REMARK    4  A    between atoms: N_8  and  C_10 
REMARK    5  A    between atoms: C_10  and  C_11 
REMARK    6  A    between atoms: C_12  and  O_13 
ROOT
HETATM    1  C   UNL     1       7.458  25.268  56.659  1.00  0.00     0.031 C 
HETATM    2  C   UNL     1       7.843  26.493  57.484  1.00  0.00     0.241 C 
HETATM    3  N   UNL     1       6.693  27.443  57.276  1.00  0.00    -0.067 N 
HETATM    4  H   UNL     1       6.460  27.888  58.185  1.00  0.00     0.280 HD
HETATM    5  C   UNL     1       5.494  26.639  56.824  1.00  0.00     0.235 C 
HETATM    6  C   UNL     1       5.955  25.190  56.915  1.00  0.00     0.035 C 
ENDROOT
BRANCH   3   7
HETATM    7  C   UNL     1       7.013  28.629  56.397  1.00  0.00     0.276 C 
BRANCH   7   8
HETATM    8  C   UNL     1       8.226  29.395  56.844  1.00  0.00     0.002 A 
HETATM    9  C   UNL     1       8.209  30.139  58.031  1.00  0.00     0.091 A 
HETATM   10  C   UNL     1       9.352  30.809  58.477  1.00  0.00     0.044 A 
HETATM   11 BR   UNL     1       9.321  31.807  60.084  1.00  0.00    -0.048 Br
HETATM   12  C   UNL     1      10.528  30.748  57.734  1.00  0.00     0.022 A 
HETATM   13  C   UNL     1      10.559  30.013  56.547  1.00  0.00     0.002 A 
HETATM   14  C   UNL     1       9.419  29.335  56.107  1.00  0.00     0.012 A 
BRANCH   9  15
HETATM   15  O   UNL     1       7.026  30.198  58.727  1.00  0.00    -0.359 OA
HETATM   16  H   UNL     1       6.532  30.966  58.362  1.00  0.00     0.218 HD
ENDBRANCH   9  15
ENDBRANCH   7   8
ENDBRANCH   3   7
BRANCH   1  17
HETATM   17  C   UNL     1       8.209  23.997  57.058  1.00  0.00     0.127 C 
BRANCH  17  18
HETATM   18  N   UNL     1       9.086  23.565  55.977  1.00  0.00    -0.376 N 
HETATM   19  H   UNL     1      10.066  23.499  56.279  1.00  0.00     0.161 HD
BRANCH  18  20
HETATM   20  C   UNL     1       8.813  22.543  55.073  1.00  0.00     0.100 A 
HETATM   21  C   UNL     1       8.213  22.865  53.846  1.00  0.00     0.048 A 
HETATM   22  C   UNL     1       7.869  21.863  52.942  1.00  0.00     0.005 A 
HETATM   23  C   UNL     1       8.119  20.538  53.268  1.00  0.00     0.017 A 
HETATM   24  C   UNL     1       8.709  20.251  54.489  1.00  0.00     0.089 A 
HETATM   25  N   UNL     1       9.024  21.243  55.341  1.00  0.00    -0.353 N 
HETATM   26  H   UNL     1       9.468  20.986  56.215  1.00  0.00     0.166 HD
ENDBRANCH  18  20
ENDBRANCH  17  18
ENDBRANCH   1  17
TORSDOF 6
ENDMDL
MODEL 2
REMARK VINA RESULT:      -8.1      4.056      8.767
REMARK  6 active torsions:
REMARK  status: ('A' for Active; 'I' for Inactive)
REMARK    1  A    between atoms: C_3  and  N_4 
REMARK    2  A    between atoms: N_4  and  C_5 
REMARK    3  A    between atoms: C_5  and  C_6 
REMARK    4  A    between atoms: N_8  and  C_10 
REMARK    5  A    between atoms: C_10  and  C_11 
REMARK    6  A    between atoms: C_12  and  O_13 
ROOT
HETATM    1  C   UNL     1       7.663  28.447  57.844  1.00  0.00     0.031 C 
HETATM    2  C   UNL     1       8.339  27.789  56.645  1.00  0.00     0.241 C 
HETATM    3  N   UNL     1       7.340  26.759  56.190  1.00  0.00    -0.067 N 
HETATM    4  H   UNL     1       7.296  26.773  55.152  1.00  0.00     0.280 HD
HETATM    5  C   UNL     1       5.981  27.153  56.724  1.00  0.00     0.235 C 
HETATM    6  C   UNL     1       6.211  28.509  57.379  1.00  0.00     0.035 C 
ENDROOT
BRANCH   3   7
HETATM    7  C   UNL     1       7.734  25.331  56.486  1.00  0.00     0.276 C 
BRANCH   7   8
HETATM    8  C   UNL     1       7.812  24.464  55.261  1.00  0.00     0.002 A 
HETATM    9  C   UNL     1       8.021  23.083  55.370  1.00  0.00     0.091 A 
HETATM   10  C   UNL     1       8.041  22.267  54.236  1.00  0.00     0.044 A 
HETATM   11 BR   UNL     1       8.317  20.401  54.394  1.00  0.00    -0.048 Br
HETATM   12  C   UNL     1       7.858  22.826  52.974  1.00  0.00     0.022 A 
HETATM   13  C   UNL     1       7.653  24.201  52.850  1.00  0.00     0.002 A 
HETATM   14  C   UNL     1       7.624  25.016  53.985  1.00  0.00     0.012 A 
BRANCH   9  15
HETATM   15  O   UNL     1       8.221  22.568  56.628  1.00  0.00    -0.359 OA
HETATM   16  H   UNL     1       8.465  23.331  57.200  1.00  0.00     0.218 HD
ENDBRANCH   9  15
ENDBRANCH   7   8
ENDBRANCH   3   7
BRANCH   1  17
HETATM   17  C   UNL     1       8.244  29.816  58.203  1.00  0.00     0.127 C 
BRANCH  17  18
HETATM   18  N   UNL     1       7.317  30.555  59.051  1.00  0.00    -0.376 N 
HETATM   19  H   UNL     1       6.406  30.085  59.126  1.00  0.00     0.161 HD
BRANCH  18  20
HETATM   20  C   UNL     1       7.631  31.148  60.270  1.00  0.00     0.100 A 
HETATM   21  C   UNL     1       8.981  31.338  60.604  1.00  0.00     0.048 A 
HETATM   22  C   UNL     1       9.336  31.870  61.841  1.00  0.00     0.005 A 
HETATM   23  C   UNL     1       8.341  32.207  62.747  1.00  0.00     0.017 A 
HETATM   24  C   UNL     1       7.017  32.003  62.390  1.00  0.00     0.089 A 
HETATM   25  N   UNL     1       6.709  31.483  61.189  1.00  0.00    -0.353 N 
HETATM   26  H   UNL     1       5.727  31.367  60.966  1.00  0.00     0.166 HD
ENDBRANCH  18  20
ENDBRANCH  17  18
ENDBRANCH   1  17
TORSDOF 6
ENDMDL
MODEL 3
REMARK VINA RESULT:      -8.0      1.704      2.203
REMARK  6 active torsions:
REMARK  status: ('A' for Active; 'I' for Inactive)
REMARK    1  A    between atoms: C_3  and  N_4 
REMARK    2  A    between atoms: N_4  and  C_5 
REMARK    3  A    between atoms: C_5  and  C_6 
REMARK    4  A    between atoms: N_8  and  C_10 
REMARK    5  A    between atoms: C_10  and  C_11 
REMARK    6  A    between atoms: C_12  and  O_13 
ROOT
HETATM    1  C   UNL     1       7.294  26.039  54.354  1.00  0.00     0.031 C 
HETATM    2  C   UNL     1       6.820  26.369  55.766  1.00  0.00     0.241 C 
HETATM    3  N   UNL     1       7.484  27.687  56.069  1.00  0.00    -0.067 N 
HETATM    4  H   UNL     1       6.798  28.302  56.548  1.00  0.00     0.280 HD
HETATM    5  C   UNL     1       7.862  28.336  54.756  1.00  0.00     0.235 C 
HETATM    6  C   UNL     1       7.272  27.415  53.696  1.00  0.00     0.035 C 
ENDROOT
BRANCH   3   7
HETATM    7  C   UNL     1       8.612  27.603  57.070  1.00  0.00     0.276 C 
BRANCH   7   8
HETATM    8  C   UNL     1       9.163  28.945  57.464  1.00  0.00     0.002 A 
HETATM    9  C   UNL     1       8.459  29.781  58.341  1.00  0.00     0.091 A 
HETATM   10  C   UNL     1       8.993  31.005  58.752  1.00  0.00     0.044 A 
HETATM   11 BR   UNL     1       8.037  32.125  59.941  1.00  0.00    -0.048 Br
HETATM   12  C   UNL     1      10.239  31.412  58.284  1.00  0.00     0.022 A 
HETATM   13  C   UNL     1      10.951  30.591  57.407  1.00  0.00     0.002 A 
HETATM   14  C   UNL     1      10.421  29.363  57.004  1.00  0.00     0.012 A 
BRANCH   9  15
HETATM   15  O   UNL     1       7.222  29.359  58.766  1.00  0.00    -0.359 OA
HETATM   16  H   UNL     1       6.949  29.985  59.474  1.00  0.00     0.218 HD
ENDBRANCH   9  15
ENDBRANCH   7   8
ENDBRANCH   3   7
BRANCH   1  17
HETATM   17  C   UNL     1       6.420  25.008  53.637  1.00  0.00     0.127 C 
BRANCH  17  18
HETATM   18  N   UNL     1       7.248  23.973  53.032  1.00  0.00    -0.376 N 
HETATM   19  H   UNL     1       8.102  24.360  52.609  1.00  0.00     0.161 HD
BRANCH  18  20
HETATM   20  C   UNL     1       7.535  22.734  53.596  1.00  0.00     0.100 A 
HETATM   21  C   UNL     1       7.486  22.596  54.992  1.00  0.00     0.048 A 
HETATM   22  C   UNL     1       7.827  21.389  55.597  1.00  0.00     0.005 A 
HETATM   23  C   UNL     1       8.225  20.321  54.806  1.00  0.00     0.017 A 
HETATM   24  C   UNL     1       8.268  20.489  53.431  1.00  0.00     0.089 A 
HETATM   25  N   UNL     1       7.936  21.670  52.880  1.00  0.00    -0.353 N 
HETATM   26  H   UNL     1       7.968  21.741  51.869  1.00  0.00     0.166 HD
ENDBRANCH  18  20
ENDBRANCH  17  18
ENDBRANCH   1  17
TORSDOF 6
ENDMDL
MODEL 4
REMARK VINA RESULT:      -7.7      3.620      4.989
REMARK  6 active torsions:
REMARK  status: ('A' for Active; 'I' for Inactive)
REMARK    1  A    between atoms: C_3  and  N_4 
REMARK    2  A    between atoms: N_4  and  C_5 
REMARK    3  A    between atoms: C_5  and  C_6 
REMARK    4  A    between atoms: N_8  and  C_10 
REMARK    5  A    between atoms: C_10  and  C_11 
REMARK    6  A    between atoms: C_12  and  O_13 
ROOT
HETATM    1  C   UNL     1       7.398  25.094  56.884  1.00  0.00     0.031 C 
HETATM    2  C   UNL     1       7.408  25.745  55.504  1.00  0.00     0.241 C 
HETATM    3  N   UNL     1       6.770  27.090  55.736  1.00  0.00    -0.067 N 
HETATM    4  H   UNL     1       7.302  27.807  55.205  1.00  0.00     0.280 HD
HETATM    5  C   UNL     1       6.881  27.416  57.209  1.00  0.00     0.235 C 
HETATM    6  C   UNL     1       7.722  26.283  57.784  1.00  0.00     0.035 C 
ENDROOT
BRANCH   3   7
HETATM    7  C   UNL     1       5.375  27.225  55.173  1.00  0.00     0.276 C 
BRANCH   7   8
HETATM    8  C   UNL     1       5.259  26.770  53.745  1.00  0.00     0.002 A 
HETATM    9  C   UNL     1       5.386  27.680  52.688  1.00  0.00     0.091 A 
HETATM   10  C   UNL     1       5.332  27.251  51.359  1.00  0.00     0.044 A 
HETATM   11 BR   UNL     1       5.511  28.488  49.938  1.00  0.00    -0.048 Br
HETATM   12  C   UNL     1       5.142  25.903  51.071  1.00  0.00     0.022 A 
HETATM   13  C   UNL     1       5.010  24.985  52.114  1.00  0.00     0.002 A 
HETATM   14  C   UNL     1       5.074  25.412  53.443  1.00  0.00     0.012 A 
BRANCH   9  15
HETATM   15  O   UNL     1       5.549  29.007  53.008  1.00  0.00    -0.359 OA
HETATM   16  H   UNL     1       4.835  29.223  53.649  1.00  0.00     0.218 HD
ENDBRANCH   9  15
ENDBRANCH   7   8
ENDBRANCH   3   7
BRANCH   1  17
HETATM   17  C   UNL     1       8.388  23.937  57.026  1.00  0.00     0.127 C 
BRANCH  17  18
HETATM   18  N   UNL     1       9.040  23.667  55.751  1.00  0.00    -0.376 N 
HETATM   19  H   UNL     1      10.051  23.853  55.788  1.00  0.00     0.161 HD
BRANCH  18  20
HETATM   20  C   UNL     1       8.805  22.562  54.939  1.00  0.00     0.100 A 
HETATM   21  C   UNL     1       8.239  22.761  53.670  1.00  0.00     0.048 A 
HETATM   22  C   UNL     1       7.932  21.675  52.854  1.00  0.00     0.005 A 
HETATM   23  C   UNL     1       8.185  20.390  53.309  1.00  0.00     0.017 A 
HETATM   24  C   UNL     1       8.740  20.225  54.569  1.00  0.00     0.089 A 
HETATM   25  N   UNL     1       9.020  21.295  55.333  1.00  0.00    -0.353 N 
HETATM   26  H   UNL     1       9.440  21.127  56.240  1.00  0.00     0.166 HD
ENDBRANCH  18  20
ENDBRANCH  17  18
ENDBRANCH   1  17
TORSDOF 6
ENDMDL
MODEL 5
REMARK VINA RESULT:      -7.6      6.225     10.850
REMARK  6 active torsions:
REMARK  status: ('A' for Active; 'I' for Inactive)
REMARK    1  A    between atoms: C_3  and  N_4 
REMARK    2  A    between atoms: N_4  and  C_5 
REMARK    3  A    between atoms: C_5  and  C_6 
REMARK    4  A    between atoms: N_8  and  C_10 
REMARK    5  A    between atoms: C_10  and  C_11 
REMARK    6  A    between atoms: C_12  and  O_13 
ROOT
HETATM    1  C   UNL     1       8.154  32.360  62.761  1.00  0.00     0.031 C 
HETATM    2  C   UNL     1       7.083  32.303  61.677  1.00  0.00     0.241 C 
HETATM    3  N   UNL     1       7.625  31.303  60.689  1.00  0.00    -0.067 N 
HETATM    4  H   UNL     1       6.848  30.688  60.378  1.00  0.00     0.280 HD
HETATM    5  C   UNL     1       8.649  30.446  61.400  1.00  0.00     0.235 C 
HETATM    6  C   UNL     1       8.573  30.896  62.853  1.00  0.00     0.035 C 
ENDROOT
BRANCH   3   7
HETATM    7  C   UNL     1       8.112  31.906  59.392  1.00  0.00     0.276 C 
BRANCH   7   8
HETATM    8  C   UNL     1       8.849  30.931  58.518  1.00  0.00     0.002 A 
HETATM    9  C   UNL     1       8.203  29.805  57.993  1.00  0.00     0.091 A 
HETATM   10  C   UNL     1       8.870  28.925  57.136  1.00  0.00     0.044 A 
HETATM   11 BR   UNL     1       7.986  27.410  56.428  1.00  0.00    -0.048 Br
HETATM   12  C   UNL     1      10.201  29.159  56.800  1.00  0.00     0.022 A 
HETATM   13  C   UNL     1      10.859  30.276  57.318  1.00  0.00     0.002 A 
HETATM   14  C   UNL     1      10.188  31.160  58.166  1.00  0.00     0.012 A 
BRANCH   9  15
HETATM   15  O   UNL     1       6.897  29.591  58.364  1.00  0.00    -0.359 OA
HETATM   16  H   UNL     1       6.808  29.957  59.274  1.00  0.00     0.218 HD
ENDBRANCH   9  15
ENDBRANCH   7   8
ENDBRANCH   3   7
BRANCH   1  17
HETATM   17  C   UNL     1       7.655  32.934  64.089  1.00  0.00     0.127 C 
BRANCH  17  18
HETATM   18  N   UNL     1       6.202  33.038  64.083  1.00  0.00    -0.376 N 
HETATM   19  H   UNL     1       5.753  32.158  63.798  1.00  0.00     0.161 HD
BRANCH  18  20
HETATM   20  C   UNL     1       5.430  33.651  65.065  1.00  0.00     0.100 A 
HETATM   21  C   UNL     1       4.209  34.239  64.700  1.00  0.00     0.048 A 
HETATM   22  C   UNL     1       3.438  34.915  65.642  1.00  0.00     0.005 A 
HETATM   23  C   UNL     1       3.892  35.009  66.950  1.00  0.00     0.017 A 
HETATM   24  C   UNL     1       5.104  34.422  67.279  1.00  0.00     0.089 A 
HETATM   25  N   UNL     1       5.825  33.780  66.343  1.00  0.00    -0.353 N 
HETATM   26  H   UNL     1       6.697  33.354  66.634  1.00  0.00     0.166 HD
ENDBRANCH  18  20
ENDBRANCH  17  18
ENDBRANCH   1  17
TORSDOF 6
ENDMDL
MODEL 6
REMARK VINA RESULT:      -7.5      1.656      2.177
REMARK  6 active torsions:
REMARK  status: ('A' for Active; 'I' for Inactive)
REMARK    1  A    between atoms: C_3  and  N_4 
REMARK    2  A    between atoms: N_4  and  C_5 
REMARK    3  A    between atoms: C_5  and  C_6 
REMARK    4  A    between atoms: N_8  and  C_10 
REMARK    5  A    between atoms: C_10  and  C_11 
REMARK    6  A    between atoms: C_12  and  O_13 
ROOT
HETATM    1  C   UNL     1       6.560  26.792  56.577  1.00  0.00     0.031 C 
HETATM    2  C   UNL     1       7.227  27.551  57.720  1.00  0.00     0.241 C 
HETATM    3  N   UNL     1       6.471  28.854  57.775  1.00  0.00    -0.067 N 
HETATM    4  H   UNL     1       6.297  29.096  58.770  1.00  0.00     0.280 HD
HETATM    5  C   UNL     1       5.134  28.651  57.098  1.00  0.00     0.235 C 
HETATM    6  C   UNL     1       5.093  27.162  56.780  1.00  0.00     0.035 C 
ENDROOT
BRANCH   3   7
HETATM    7  C   UNL     1       7.248  30.048  57.273  1.00  0.00     0.276 C 
BRANCH   7   8
HETATM    8  C   UNL     1       7.845  30.880  58.373  1.00  0.00     0.002 A 
HETATM    9  C   UNL     1       7.028  31.512  59.320  1.00  0.00     0.091 A 
HETATM   10  C   UNL     1       7.582  32.242  60.375  1.00  0.00     0.044 A 
HETATM   11 BR   UNL     1       6.470  33.088  61.652  1.00  0.00    -0.048 Br
HETATM   12  C   UNL     1       8.965  32.354  60.493  1.00  0.00     0.022 A 
HETATM   13  C   UNL     1       9.791  31.732  59.555  1.00  0.00     0.002 A 
HETATM   14  C   UNL     1       9.237  30.995  58.505  1.00  0.00     0.012 A 
BRANCH   9  15
HETATM   15  O   UNL     1       5.667  31.401  59.161  1.00  0.00    -0.359 OA
HETATM   16  H   UNL     1       5.304  32.308  59.275  1.00  0.00     0.218 HD
ENDBRANCH   9  15
ENDBRANCH   7   8
ENDBRANCH   3   7
BRANCH   1  17
HETATM   17  C   UNL     1       6.816  25.284  56.608  1.00  0.00     0.127 C 
BRANCH  17  18
HETATM   18  N   UNL     1       8.055  24.965  55.911  1.00  0.00    -0.376 N 
HETATM   19  H   UNL     1       8.878  25.075  56.517  1.00  0.00     0.161 HD
BRANCH  18  20
HETATM   20  C   UNL     1       8.251  23.879  55.063  1.00  0.00     0.100 A 
HETATM   21  C   UNL     1       7.524  23.815  53.864  1.00  0.00     0.048 A 
HETATM   22  C   UNL     1       7.647  22.713  53.021  1.00  0.00     0.005 A 
HETATM   23  C   UNL     1       8.491  21.673  53.379  1.00  0.00     0.017 A 
HETATM   24  C   UNL     1       9.192  21.763  54.571  1.00  0.00     0.089 A 
HETATM   25  N   UNL     1       9.047  22.839  55.365  1.00  0.00    -0.353 N 
HETATM   26  H   UNL     1       9.592  22.868  56.220  1.00  0.00     0.166 HD
ENDBRANCH  18  20
ENDBRANCH  17  18
ENDBRANCH   1  17
TORSDOF 6
ENDMDL
MODEL 7
REMARK VINA RESULT:      -7.5      1.826      2.421
REMARK  6 active torsions:
REMARK  status: ('A' for Active; 'I' for Inactive)
REMARK    1  A    between atoms: C_3  and  N_4 
REMARK    2  A    between atoms: N_4  and  C_5 
REMARK    3  A    between atoms: C_5  and  C_6 
REMARK    4  A    between atoms: N_8  and  C_10 
REMARK    5  A    between atoms: C_10  and  C_11 
REMARK    6  A    between atoms: C_12  and  O_13 
ROOT
HETATM    1  C   UNL     1       6.814  26.558  54.861  1.00  0.00     0.031 C 
HETATM    2  C   UNL     1       7.691  27.271  55.885  1.00  0.00     0.241 C 
HETATM    3  N   UNL     1       6.711  28.073  56.701  1.00  0.00    -0.067 N 
HETATM    4  H   UNL     1       6.973  27.999  57.703  1.00  0.00     0.280 HD
HETATM    5  C   UNL     1       5.340  27.459  56.527  1.00  0.00     0.235 C 
HETATM    6  C   UNL     1       5.591  26.204  55.701  1.00  0.00     0.035 C 
ENDROOT
BRANCH   3   7
HETATM    7  C   UNL     1       6.762  29.562  56.452  1.00  0.00     0.276 C 
BRANCH   7   8
HETATM    8  C   UNL     1       6.773  30.380  57.713  1.00  0.00     0.002 A 
HETATM    9  C   UNL     1       7.779  30.207  58.673  1.00  0.00     0.091 A 
HETATM   10  C   UNL     1       7.823  31.002  59.821  1.00  0.00     0.044 A 
HETATM   11 BR   UNL     1       9.189  30.764  61.109  1.00  0.00    -0.048 Br
HETATM   12  C   UNL     1       6.853  31.980  60.027  1.00  0.00     0.022 A 
HETATM   13  C   UNL     1       5.843  32.162  59.081  1.00  0.00     0.002 A 
HETATM   14  C   UNL     1       5.805  31.373  57.928  1.00  0.00     0.012 A 
BRANCH   9  15
HETATM   15  O   UNL     1       8.706  29.217  58.450  1.00  0.00    -0.359 OA
HETATM   16  H   UNL     1       8.290  28.591  57.815  1.00  0.00     0.218 HD
ENDBRANCH   9  15
ENDBRANCH   7   8
ENDBRANCH   3   7
BRANCH   1  17
HETATM   17  C   UNL     1       7.483  25.341  54.219  1.00  0.00     0.127 C 
BRANCH  17  18
HETATM   18  N   UNL     1       6.861  24.111  54.692  1.00  0.00    -0.376 N 
HETATM   19  H   UNL     1       5.854  24.085  54.487  1.00  0.00     0.161 HD
BRANCH  18  20
HETATM   20  C   UNL     1       7.391  22.832  54.555  1.00  0.00     0.100 A 
HETATM   21  C   UNL     1       7.724  22.369  53.273  1.00  0.00     0.048 A 
HETATM   22  C   UNL     1       8.198  21.072  53.090  1.00  0.00     0.005 A 
HETATM   23  C   UNL     1       8.333  20.236  54.188  1.00  0.00     0.017 A 
HETATM   24  C   UNL     1       7.992  20.720  55.442  1.00  0.00     0.089 A 
HETATM   25  N   UNL     1       7.533  21.977  55.582  1.00  0.00    -0.353 N 
HETATM   26  H   UNL     1       7.311  22.292  56.520  1.00  0.00     0.166 HD
ENDBRANCH  18  20
ENDBRANCH  17  18
ENDBRANCH   1  17
TORSDOF 6
ENDMDL
MODEL 8
REMARK VINA RESULT:      -7.5      6.295      8.098
REMARK  6 active torsions:
REMARK  status: ('A' for Active; 'I' for Inactive)
REMARK    1  A    between atoms: C_3  and  N_4 
REMARK    2  A    between atoms: N_4  and  C_5 
REMARK    3  A    between atoms: C_5  and  C_6 
REMARK    4  A    between atoms: N_8  and  C_10 
REMARK    5  A    between atoms: C_10  and  C_11 
REMARK    6  A    between atoms: C_12  and  O_13 
ROOT
HETATM    1  C   UNL     1       5.770  27.779  52.241  1.00  0.00     0.031 C 
HETATM    2  C   UNL     1       6.268  26.342  52.119  1.00  0.00     0.241 C 
HETATM    3  N   UNL     1       6.242  25.831  53.536  1.00  0.00    -0.067 N 
HETATM    4  H   UNL     1       5.867  24.863  53.533  1.00  0.00     0.280 HD
HETATM    5  C   UNL     1       5.297  26.701  54.333  1.00  0.00     0.235 C 
HETATM    6  C   UNL     1       4.680  27.634  53.299  1.00  0.00     0.035 C 
ENDROOT
BRANCH   3   7
HETATM    7  C   UNL     1       7.606  25.658  54.162  1.00  0.00     0.276 C 
BRANCH   7   8
HETATM    8  C   UNL     1       7.849  24.273  54.695  1.00  0.00     0.002 A 
HETATM    9  C   UNL     1       8.011  23.187  53.825  1.00  0.00     0.091 A 
HETATM   10  C   UNL     1       8.290  21.908  54.315  1.00  0.00     0.044 A 
HETATM   11 BR   UNL     1       8.514  20.449  53.132  1.00  0.00    -0.048 Br
HETATM   12  C   UNL     1       8.403  21.699  55.687  1.00  0.00     0.022 A 
HETATM   13  C   UNL     1       8.240  22.771  56.566  1.00  0.00     0.002 A 
HETATM   14  C   UNL     1       7.971  24.052  56.075  1.00  0.00     0.012 A 
BRANCH   9  15
HETATM   15  O   UNL     1       7.870  23.424  52.479  1.00  0.00    -0.359 OA
HETATM   16  H   UNL     1       8.693  23.883  52.195  1.00  0.00     0.218 HD
ENDBRANCH   9  15
ENDBRANCH   7   8
ENDBRANCH   3   7
BRANCH   1  17
HETATM   17  C   UNL     1       5.264  28.369  50.924  1.00  0.00     0.127 C 
BRANCH  17  18
HETATM   18  N   UNL     1       5.377  27.389  49.851  1.00  0.00    -0.376 N 
HETATM   19  H   UNL     1       5.863  26.536  50.158  1.00  0.00     0.161 HD
BRANCH  18  20
HETATM   20  C   UNL     1       4.368  27.046  48.957  1.00  0.00     0.100 A 
HETATM   21  C   UNL     1       3.976  25.702  48.860  1.00  0.00     0.048 A 
HETATM   22  C   UNL     1       3.013  25.310  47.933  1.00  0.00     0.005 A 
HETATM   23  C   UNL     1       2.446  26.262  47.099  1.00  0.00     0.017 A 
HETATM   24  C   UNL     1       2.857  27.581  47.215  1.00  0.00     0.089 A 
HETATM   25  N   UNL     1       3.793  27.924  48.118  1.00  0.00    -0.353 N 
HETATM   26  H   UNL     1       4.050  28.903  48.178  1.00  0.00     0.166 HD
ENDBRANCH  18  20
ENDBRANCH  17  18
ENDBRANCH   1  17
TORSDOF 6
ENDMDL
MODEL 9
REMARK VINA RESULT:      -7.5      5.528      6.372
REMARK  6 active torsions:
REMARK  status: ('A' for Active; 'I' for Inactive)
REMARK    1  A    between atoms: C_3  and  N_4 
REMARK    2  A    between atoms: N_4  and  C_5 
REMARK    3  A    between atoms: C_5  and  C_6 
REMARK    4  A    between atoms: N_8  and  C_10 
REMARK    5  A    between atoms: C_10  and  C_11 
REMARK    6  A    between atoms: C_12  and  O_13 
ROOT
HETATM    1  C   UNL     1       6.156  26.123  55.133  1.00  0.00     0.031 C 
HETATM    2  C   UNL     1       5.792  25.926  53.665  1.00  0.00     0.241 C 
HETATM    3  N   UNL     1       6.287  27.183  53.000  1.00  0.00    -0.067 N 
HETATM    4  H   UNL     1       6.741  26.928  52.101  1.00  0.00     0.280 HD
HETATM    5  C   UNL     1       7.333  27.808  53.895  1.00  0.00     0.235 C 
HETATM    6  C   UNL     1       7.519  26.799  55.021  1.00  0.00     0.035 C 
ENDROOT
BRANCH   3   7
HETATM    7  C   UNL     1       5.195  28.132  52.564  1.00  0.00     0.276 C 
BRANCH   7   8
HETATM    8  C   UNL     1       5.185  28.394  51.084  1.00  0.00     0.002 A 
HETATM    9  C   UNL     1       4.730  27.420  50.185  1.00  0.00     0.091 A 
HETATM   10  C   UNL     1       4.669  27.680  48.813  1.00  0.00     0.044 A 
HETATM   11 BR   UNL     1       4.046  26.361  47.608  1.00  0.00    -0.048 Br
HETATM   12  C   UNL     1       5.071  28.919  48.322  1.00  0.00     0.022 A 
HETATM   13  C   UNL     1       5.530  29.897  49.205  1.00  0.00     0.002 A 
HETATM   14  C   UNL     1       5.582  29.640  50.578  1.00  0.00     0.012 A 
BRANCH   9  15
HETATM   15  O   UNL     1       4.362  26.201  50.701  1.00  0.00    -0.359 OA
HETATM   16  H   UNL     1       4.431  25.558  49.959  1.00  0.00     0.218 HD
ENDBRANCH   9  15
ENDBRANCH   7   8
ENDBRANCH   3   7
BRANCH   1  17
HETATM   17  C   UNL     1       6.187  24.823  55.939  1.00  0.00     0.127 C 
BRANCH  17  18
HETATM   18  N   UNL     1       7.472  24.156  55.778  1.00  0.00    -0.376 N 
HETATM   19  H   UNL     1       8.020  24.158  56.649  1.00  0.00     0.161 HD
BRANCH  18  20
HETATM   20  C   UNL     1       7.684  22.956  55.106  1.00  0.00     0.100 A 
HETATM   21  C   UNL     1       7.798  22.974  53.707  1.00  0.00     0.048 A 
HETATM   22  C   UNL     1       7.948  21.788  52.994  1.00  0.00     0.005 A 
HETATM   23  C   UNL     1       7.977  20.582  53.679  1.00  0.00     0.017 A 
HETATM   24  C   UNL     1       7.858  20.596  55.060  1.00  0.00     0.089 A 
HETATM   25  N   UNL     1       7.710  21.760  55.717  1.00  0.00    -0.353 N 
HETATM   26  H   UNL     1       7.642  21.722  56.728  1.00  0.00     0.166 HD
ENDBRANCH  18  20
ENDBRANCH  17  18
ENDBRANCH   1  17
TORSDOF 6
ENDMDL
MODEL 10
REMARK VINA RESULT:      -7.4      6.274      8.326
REMARK  6 active torsions:
REMARK  status: ('A' for Active; 'I' for Inactive)
REMARK    1  A    between atoms: C_3  and  N_4 
REMARK    2  A    between atoms: N_4  and  C_5 
REMARK    3  A    between atoms: C_5  and  C_6 
REMARK    4  A    between atoms: N_8  and  C_10 
REMARK    5  A    between atoms: C_10  and  C_11 
REMARK    6  A    between atoms: C_12  and  O_13 
ROOT
HETATM    1  C   UNL     1       5.712  27.272  51.958  1.00  0.00     0.031 C 
HETATM    2  C   UNL     1       5.982  25.774  51.856  1.00  0.00     0.241 C 
HETATM    3  N   UNL     1       6.172  25.344  53.288  1.00  0.00    -0.067 N 
HETATM    4  H   UNL     1       5.680  24.442  53.433  1.00  0.00     0.280 HD
HETATM    5  C   UNL     1       5.527  26.382  54.179  1.00  0.00     0.235 C 
HETATM    6  C   UNL     1       4.845  27.340  53.212  1.00  0.00     0.035 C 
ENDROOT
BRANCH   3   7
HETATM    7  C   UNL     1       7.599  25.008  53.655  1.00  0.00     0.276 C 
BRANCH   7   8
HETATM    8  C   UNL     1       7.830  23.540  53.877  1.00  0.00     0.002 A 
HETATM    9  C   UNL     1       8.018  23.029  55.168  1.00  0.00     0.091 A 
HETATM   10  C   UNL     1       8.180  21.657  55.382  1.00  0.00     0.044 A 
HETATM   11 BR   UNL     1       8.427  20.976  57.130  1.00  0.00    -0.048 Br
HETATM   12  C   UNL     1       8.162  20.778  54.303  1.00  0.00     0.022 A 
HETATM   13  C   UNL     1       7.979  21.273  53.011  1.00  0.00     0.002 A 
HETATM   14  C   UNL     1       7.808  22.644  52.797  1.00  0.00     0.012 A 
BRANCH   9  15
HETATM   15  O   UNL     1       8.053  23.927  56.208  1.00  0.00    -0.359 OA
HETATM   16  H   UNL     1       8.276  23.405  57.012  1.00  0.00     0.218 HD
ENDBRANCH   9  15
ENDBRANCH   7   8
ENDBRANCH   3   7
BRANCH   1  17
HETATM   17  C   UNL     1       5.036  27.861  50.718  1.00  0.00     0.127 C 
BRANCH  17  18
HETATM   18  N   UNL     1       4.735  26.809  49.756  1.00  0.00    -0.376 N 
HETATM   19  H   UNL     1       4.779  25.873  50.181  1.00  0.00     0.161 HD
BRANCH  18  20
HETATM   20  C   UNL     1       3.709  26.840  48.816  1.00  0.00     0.100 A 
HETATM   21  C   UNL     1       2.694  27.799  48.953  1.00  0.00     0.048 A 
HETATM   22  C   UNL     1       1.618  27.822  48.069  1.00  0.00     0.005 A 
HETATM   23  C   UNL     1       1.554  26.880  47.052  1.00  0.00     0.017 A 
HETATM   24  C   UNL     1       2.569  25.942  46.946  1.00  0.00     0.089 A 
HETATM   25  N   UNL     1       3.591  25.946  47.820  1.00  0.00    -0.353 N 
HETATM   26  H   UNL     1       4.318  25.251  47.693  1.00  0.00     0.166 HD
ENDBRANCH  18  20
ENDBRANCH  17  18
ENDBRANCH   1  17
TORSDOF 6
ENDMDL
