MODEL 1
REMARK VINA RESULT:      -8.8      0.000      0.000
REMARK  5 active torsions:
REMARK  status: ('A' for Active; 'I' for Inactive)
REMARK    1  A    between atoms: C_3  and  N_4 
REMARK       I    between atoms: N_4  and  C_5 
REMARK       I    between atoms: C_5  and  N_6 
REMARK    2  A    between atoms: N_6  and  C_7 
REMARK    3  A    between atoms: C_7  and  C_8 
REMARK    4  A    between atoms: C_8  and  C_9 
REMARK    5  A    between atoms: N_16  and  C_17 
ROOT
HETATM    1  C   UNL     1       5.396  25.282  56.944  1.00  0.00     0.054 C 
HETATM    2  C   UNL     1       6.359  26.346  56.562  1.00  0.00     0.003 A 
HETATM    3  C   UNL     1       6.743  26.805  55.277  1.00  0.00     0.159 A 
HETATM    4  N   UNL     1       7.683  27.749  55.356  1.00  0.00    -0.149 NA
HETATM    5  N   UNL     1       7.844  27.996  56.692  1.00  0.00    -0.241 N 
HETATM    6  C   UNL     1       7.118  27.095  57.432  1.00  0.00     0.129 A 
ENDROOT
BRANCH   3   7
HETATM    7  N   UNL     1       6.222  26.303  54.107  1.00  0.00    -0.291 N 
HETATM    8  C   UNL     1       6.626  25.282  53.316  1.00  0.00     0.321 C 
HETATM    9  N   UNL     1       7.747  24.593  53.653  1.00  0.00    -0.342 N 
HETATM   10  O   UNL     1       5.950  25.010  52.323  1.00  0.00    -0.247 OA
HETATM   11  H   UNL     1       8.127  24.775  54.578  1.00  0.00     0.164 HD
HETATM   12  H   UNL     1       5.378  26.731  53.761  1.00  0.00     0.172 HD
BRANCH   9  13
HETATM   13  C   UNL     1       8.066  23.380  52.938  1.00  0.00     0.134 C 
BRANCH  13  14
HETATM   14  C   UNL     1       8.105  22.156  53.837  1.00  0.00    -0.021 A 
HETATM   15  C   UNL     1       7.681  20.852  53.167  1.00  0.00     0.012 A 
HETATM   16  C   UNL     1       9.125  21.082  53.488  1.00  0.00     0.012 A 
BRANCH  14  17
HETATM   17  C   UNL     1       7.666  22.426  55.299  1.00  0.00    -0.004 A 
HETATM   18  C   UNL     1       8.202  21.672  56.496  1.00  0.00     0.006 A 
HETATM   19  C   UNL     1       8.555  23.113  56.307  1.00  0.00     0.006 A 
ENDBRANCH  14  17
ENDBRANCH  13  14
ENDBRANCH   9  13
ENDBRANCH   3   7
BRANCH   5  20
HETATM   20  C   UNL     1       8.727  29.032  57.131  1.00  0.00     0.079 A 
HETATM   21  C   UNL     1       8.351  30.139  57.909  1.00  0.00     0.062 A 
HETATM   22 CL   UNL     1       6.735  30.574  58.340  1.00  0.00    -0.082 Cl
HETATM   23  C   UNL     1       9.326  31.066  58.322  1.00  0.00     0.026 A 
HETATM   24  C   UNL     1      10.662  30.920  57.955  1.00  0.00     0.002 A 
HETATM   25  C   UNL     1      11.037  29.850  57.156  1.00  0.00     0.002 A 
HETATM   26  C   UNL     1      10.079  28.920  56.746  1.00  0.00     0.033 A 
ENDBRANCH   5  20
TORSDOF 5
ENDMDL
MODEL 2
REMARK VINA RESULT:      -8.4      2.827      7.305
REMARK  5 active torsions:
REMARK  status: ('A' for Active; 'I' for Inactive)
REMARK    1  A    between atoms: C_3  and  N_4 
REMARK       I    between atoms: N_4  and  C_5 
REMARK       I    between atoms: C_5  and  N_6 
REMARK    2  A    between atoms: N_6  and  C_7 
REMARK    3  A    between atoms: C_7  and  C_8 
REMARK    4  A    between atoms: C_8  and  C_9 
REMARK    5  A    between atoms: N_16  and  C_17 
ROOT
HETATM    1  C   UNL     1       6.281  25.650  51.460  1.00  0.00     0.054 C 
HETATM    2  C   UNL     1       6.490  24.912  52.731  1.00  0.00     0.003 A 
HETATM    3  C   UNL     1       5.986  25.178  54.030  1.00  0.00     0.159 A 
HETATM    4  N   UNL     1       6.452  24.303  54.924  1.00  0.00    -0.149 NA
HETATM    5  N   UNL     1       7.175  23.392  54.203  1.00  0.00    -0.241 N 
HETATM    6  C   UNL     1       7.280  23.797  52.894  1.00  0.00     0.129 A 
ENDROOT
BRANCH   3   7
HETATM    7  N   UNL     1       5.148  26.231  54.315  1.00  0.00    -0.291 N 
HETATM    8  C   UNL     1       5.389  27.431  54.893  1.00  0.00     0.321 C 
HETATM    9  N   UNL     1       6.648  27.718  55.313  1.00  0.00    -0.342 N 
HETATM   10  O   UNL     1       4.452  28.223  55.005  1.00  0.00    -0.247 OA
HETATM   11  H   UNL     1       7.379  27.078  55.015  1.00  0.00     0.164 HD
HETATM   12  H   UNL     1       4.183  26.136  54.039  1.00  0.00     0.172 HD
BRANCH   9  13
HETATM   13  C   UNL     1       6.956  29.063  55.736  1.00  0.00     0.134 C 
BRANCH  13  14
HETATM   14  C   UNL     1       8.044  29.116  56.795  1.00  0.00    -0.021 A 
HETATM   15  C   UNL     1       7.564  29.494  58.194  1.00  0.00     0.012 A 
HETATM   16  C   UNL     1       7.968  28.081  57.908  1.00  0.00     0.012 A 
BRANCH  14  17
HETATM   17  C   UNL     1       9.397  29.679  56.289  1.00  0.00    -0.004 A 
HETATM   18  C   UNL     1      10.355  30.477  57.146  1.00  0.00     0.006 A 
HETATM   19  C   UNL     1      10.730  29.099  56.699  1.00  0.00     0.006 A 
ENDBRANCH  14  17
ENDBRANCH  13  14
ENDBRANCH   9  13
ENDBRANCH   3   7
BRANCH   5  20
HETATM   20  C   UNL     1       7.748  22.253  54.851  1.00  0.00     0.079 A 
HETATM   21  C   UNL     1       8.180  21.085  54.201  1.00  0.00     0.062 A 
HETATM   22 CL   UNL     1       7.947  20.708  52.531  1.00  0.00    -0.082 Cl
HETATM   23  C   UNL     1       8.777  20.051  54.947  1.00  0.00     0.026 A 
HETATM   24  C   UNL     1       8.929  20.153  56.328  1.00  0.00     0.002 A 
HETATM   25  C   UNL     1       8.472  21.287  56.984  1.00  0.00     0.002 A 
HETATM   26  C   UNL     1       7.884  22.322  56.253  1.00  0.00     0.033 A 
ENDBRANCH   5  20
TORSDOF 5
ENDMDL
MODEL 3
REMARK VINA RESULT:      -8.4      1.384      1.778
REMARK  5 active torsions:
REMARK  status: ('A' for Active; 'I' for Inactive)
REMARK    1  A    between atoms: C_3  and  N_4 
REMARK       I    between atoms: N_4  and  C_5 
REMARK       I    between atoms: C_5  and  N_6 
REMARK    2  A    between atoms: N_6  and  C_7 
REMARK    3  A    between atoms: C_7  and  C_8 
REMARK    4  A    between atoms: C_8  and  C_9 
REMARK    5  A    between atoms: N_16  and  C_17 
ROOT
HETATM    1  C   UNL     1       5.419  25.961  56.533  1.00  0.00     0.054 C 
HETATM    2  C   UNL     1       6.318  27.140  56.462  1.00  0.00     0.003 A 
HETATM    3  C   UNL     1       6.816  27.836  55.331  1.00  0.00     0.159 A 
HETATM    4  N   UNL     1       7.647  28.818  55.688  1.00  0.00    -0.149 NA
HETATM    5  N   UNL     1       7.615  28.847  57.056  1.00  0.00    -0.241 N 
HETATM    6  C   UNL     1       6.889  27.784  57.536  1.00  0.00     0.129 A 
ENDROOT
BRANCH   3   7
HETATM    7  N   UNL     1       6.495  27.503  54.036  1.00  0.00    -0.291 N 
HETATM    8  C   UNL     1       6.885  26.466  53.259  1.00  0.00     0.321 C 
HETATM    9  N   UNL     1       7.764  25.561  53.762  1.00  0.00    -0.342 N 
HETATM   10  O   UNL     1       6.416  26.380  52.123  1.00  0.00    -0.247 OA
HETATM   11  H   UNL     1       7.949  25.620  54.759  1.00  0.00     0.164 HD
HETATM   12  H   UNL     1       5.838  28.101  53.559  1.00  0.00     0.172 HD
BRANCH   9  13
HETATM   13  C   UNL     1       8.022  24.349  53.022  1.00  0.00     0.134 C 
BRANCH  13  14
HETATM   14  C   UNL     1       8.106  23.120  53.911  1.00  0.00    -0.021 A 
HETATM   15  C   UNL     1       7.656  21.818  53.254  1.00  0.00     0.012 A 
HETATM   16  C   UNL     1       9.113  22.051  53.510  1.00  0.00     0.012 A 
BRANCH  14  17
HETATM   17  C   UNL     1       7.732  23.380  55.393  1.00  0.00    -0.004 A 
HETATM   18  C   UNL     1       8.194  22.516  56.546  1.00  0.00     0.006 A 
HETATM   19  C   UNL     1       8.719  23.909  56.405  1.00  0.00     0.006 A 
ENDBRANCH  14  17
ENDBRANCH  13  14
ENDBRANCH   9  13
ENDBRANCH   3   7
BRANCH   5  20
HETATM   20  C   UNL     1       8.334  29.854  57.772  1.00  0.00     0.079 A 
HETATM   21  C   UNL     1       9.697  30.150  57.601  1.00  0.00     0.062 A 
HETATM   22 CL   UNL     1      10.817  29.253  56.638  1.00  0.00    -0.082 Cl
HETATM   23  C   UNL     1      10.279  31.204  58.330  1.00  0.00     0.026 A 
HETATM   24  C   UNL     1       9.534  31.950  59.240  1.00  0.00     0.002 A 
HETATM   25  C   UNL     1       8.197  31.641  59.443  1.00  0.00     0.002 A 
HETATM   26  C   UNL     1       7.606  30.602  58.720  1.00  0.00     0.033 A 
ENDBRANCH   5  20
TORSDOF 5
ENDMDL
MODEL 4
REMARK VINA RESULT:      -8.2      2.042      3.163
REMARK  5 active torsions:
REMARK  status: ('A' for Active; 'I' for Inactive)
REMARK    1  A    between atoms: C_3  and  N_4 
REMARK       I    between atoms: N_4  and  C_5 
REMARK       I    between atoms: C_5  and  N_6 
REMARK    2  A    between atoms: N_6  and  C_7 
REMARK    3  A    between atoms: C_7  and  C_8 
REMARK    4  A    between atoms: C_8  and  C_9 
REMARK    5  A    between atoms: N_16  and  C_17 
ROOT
HETATM    1  C   UNL     1       5.412  26.753  56.481  1.00  0.00     0.054 C 
HETATM    2  C   UNL     1       6.253  27.967  56.624  1.00  0.00     0.003 A 
HETATM    3  C   UNL     1       6.677  28.900  55.643  1.00  0.00     0.159 A 
HETATM    4  N   UNL     1       7.476  29.832  56.167  1.00  0.00    -0.149 NA
HETATM    5  N   UNL     1       7.493  29.585  57.513  1.00  0.00    -0.241 N 
HETATM    6  C   UNL     1       6.834  28.412  57.790  1.00  0.00     0.129 A 
ENDROOT
BRANCH   3   7
HETATM    7  N   UNL     1       6.323  28.816  54.316  1.00  0.00    -0.291 N 
HETATM    8  C   UNL     1       6.678  27.934  53.353  1.00  0.00     0.321 C 
HETATM    9  N   UNL     1       7.549  26.939  53.660  1.00  0.00    -0.342 N 
HETATM   10  O   UNL     1       6.184  28.065  52.232  1.00  0.00    -0.247 OA
HETATM   11  H   UNL     1       7.756  26.810  54.647  1.00  0.00     0.164 HD
HETATM   12  H   UNL     1       5.669  29.501  53.973  1.00  0.00     0.172 HD
BRANCH   9  13
HETATM   13  C   UNL     1       7.769  25.879  52.704  1.00  0.00     0.134 C 
BRANCH  13  14
HETATM   14  C   UNL     1       7.263  24.531  53.189  1.00  0.00    -0.021 A 
HETATM   15  C   UNL     1       8.306  23.416  53.192  1.00  0.00     0.012 A 
HETATM   16  C   UNL     1       7.852  24.007  54.491  1.00  0.00     0.012 A 
BRANCH  14  17
HETATM   17  C   UNL     1       5.813  24.202  52.753  1.00  0.00    -0.004 A 
HETATM   18  C   UNL     1       4.595  24.971  53.215  1.00  0.00     0.006 A 
HETATM   19  C   UNL     1       5.033  25.062  51.788  1.00  0.00     0.006 A 
ENDBRANCH  14  17
ENDBRANCH  13  14
ENDBRANCH   9  13
ENDBRANCH   3   7
BRANCH   5  20
HETATM   20  C   UNL     1       8.193  30.465  58.397  1.00  0.00     0.079 A 
HETATM   21  C   UNL     1       9.564  30.763  58.324  1.00  0.00     0.062 A 
HETATM   22 CL   UNL     1      10.713  30.001  57.281  1.00  0.00    -0.082 Cl
HETATM   23  C   UNL     1      10.126  31.689  59.222  1.00  0.00     0.026 A 
HETATM   24  C   UNL     1       9.353  32.303  60.203  1.00  0.00     0.002 A 
HETATM   25  C   UNL     1       8.006  31.988  60.308  1.00  0.00     0.002 A 
HETATM   26  C   UNL     1       7.435  31.076  59.417  1.00  0.00     0.033 A 
ENDBRANCH   5  20
TORSDOF 5
ENDMDL
MODEL 5
REMARK VINA RESULT:      -8.2      4.938      7.525
REMARK  5 active torsions:
REMARK  status: ('A' for Active; 'I' for Inactive)
REMARK    1  A    between atoms: C_3  and  N_4 
REMARK       I    between atoms: N_4  and  C_5 
REMARK       I    between atoms: C_5  and  N_6 
REMARK    2  A    between atoms: N_6  and  C_7 
REMARK    3  A    between atoms: C_7  and  C_8 
REMARK    4  A    between atoms: C_8  and  C_9 
REMARK    5  A    between atoms: N_16  and  C_17 
ROOT
HETATM    1  C   UNL     1       3.960  30.107  54.773  1.00  0.00     0.054 C 
HETATM    2  C   UNL     1       4.324  28.806  54.159  1.00  0.00     0.003 A 
HETATM    3  C   UNL     1       3.763  28.141  53.039  1.00  0.00     0.159 A 
HETATM    4  N   UNL     1       4.340  26.955  52.836  1.00  0.00    -0.149 NA
HETATM    5  N   UNL     1       5.357  26.879  53.749  1.00  0.00    -0.241 N 
HETATM    6  C   UNL     1       5.302  27.948  54.610  1.00  0.00     0.129 A 
ENDROOT
BRANCH   3   7
HETATM    7  N   UNL     1       2.732  28.658  52.290  1.00  0.00    -0.291 N 
HETATM    8  C   UNL     1       2.651  28.962  50.974  1.00  0.00     0.321 C 
HETATM    9  N   UNL     1       3.741  28.774  50.187  1.00  0.00    -0.342 N 
HETATM   10  O   UNL     1       1.580  29.390  50.540  1.00  0.00    -0.247 OA
HETATM   11  H   UNL     1       4.510  28.252  50.599  1.00  0.00     0.164 HD
HETATM   12  H   UNL     1       1.862  28.832  52.769  1.00  0.00     0.172 HD
BRANCH   9  13
HETATM   13  C   UNL     1       3.601  28.896  48.755  1.00  0.00     0.134 C 
BRANCH  13  14
HETATM   14  C   UNL     1       3.572  27.552  48.047  1.00  0.00    -0.021 A 
HETATM   15  C   UNL     1       4.926  27.062  47.541  1.00  0.00     0.012 A 
HETATM   16  C   UNL     1       4.299  26.402  48.730  1.00  0.00     0.012 A 
BRANCH  14  17
HETATM   17  C   UNL     1       2.315  27.323  47.169  1.00  0.00    -0.004 A 
HETATM   18  C   UNL     1       0.915  27.171  47.721  1.00  0.00     0.006 A 
HETATM   19  C   UNL     1       1.275  28.391  46.935  1.00  0.00     0.006 A 
ENDBRANCH  14  17
ENDBRANCH  13  14
ENDBRANCH   9  13
ENDBRANCH   3   7
BRANCH   5  20
HETATM   20  C   UNL     1       6.245  25.759  53.745  1.00  0.00     0.079 A 
HETATM   21  C   UNL     1       6.388  24.836  54.795  1.00  0.00     0.062 A 
HETATM   22 CL   UNL     1       5.667  24.961  56.360  1.00  0.00    -0.082 Cl
HETATM   23  C   UNL     1       7.261  23.742  54.649  1.00  0.00     0.026 A 
HETATM   24  C   UNL     1       8.008  23.565  53.487  1.00  0.00     0.002 A 
HETATM   25  C   UNL     1       7.902  24.491  52.459  1.00  0.00     0.002 A 
HETATM   26  C   UNL     1       7.034  25.577  52.590  1.00  0.00     0.033 A 
ENDBRANCH   5  20
TORSDOF 5
ENDMDL
MODEL 6
REMARK VINA RESULT:      -8.1      4.153      7.029
REMARK  5 active torsions:
REMARK  status: ('A' for Active; 'I' for Inactive)
REMARK    1  A    between atoms: C_3  and  N_4 
REMARK       I    between atoms: N_4  and  C_5 
REMARK       I    between atoms: C_5  and  N_6 
REMARK    2  A    between atoms: N_6  and  C_7 
REMARK    3  A    between atoms: C_7  and  C_8 
REMARK    4  A    between atoms: C_8  and  C_9 
REMARK    5  A    between atoms: N_16  and  C_17 
ROOT
HETATM    1  C   UNL     1       4.303  28.502  55.185  1.00  0.00     0.054 C 
HETATM    2  C   UNL     1       5.279  27.604  54.517  1.00  0.00     0.003 A 
HETATM    3  C   UNL     1       6.026  27.799  53.327  1.00  0.00     0.159 A 
HETATM    4  N   UNL     1       6.760  26.724  53.030  1.00  0.00    -0.149 NA
HETATM    5  N   UNL     1       6.587  25.860  54.077  1.00  0.00    -0.241 N 
HETATM    6  C   UNL     1       5.628  26.340  54.936  1.00  0.00     0.129 A 
ENDROOT
BRANCH   3   7
HETATM    7  N   UNL     1       5.962  28.947  52.573  1.00  0.00    -0.291 N 
HETATM    8  C   UNL     1       5.723  29.135  51.254  1.00  0.00     0.321 C 
HETATM    9  N   UNL     1       5.521  28.052  50.461  1.00  0.00    -0.342 N 
HETATM   10  O   UNL     1       5.687  30.290  50.827  1.00  0.00    -0.247 OA
HETATM   11  H   UNL     1       5.392  27.163  50.936  1.00  0.00     0.164 HD
HETATM   12  H   UNL     1       6.088  29.821  53.059  1.00  0.00     0.172 HD
BRANCH   9  13
HETATM   13  C   UNL     1       5.062  28.250  49.107  1.00  0.00     0.134 C 
BRANCH  13  14
HETATM   14  C   UNL     1       3.799  27.467  48.790  1.00  0.00    -0.021 A 
HETATM   15  C   UNL     1       3.924  26.488  47.625  1.00  0.00     0.012 A 
HETATM   16  C   UNL     1       3.848  25.964  49.025  1.00  0.00     0.012 A 
BRANCH  14  17
HETATM   17  C   UNL     1       2.489  28.281  48.949  1.00  0.00    -0.004 A 
HETATM   18  C   UNL     1       2.018  28.878  50.257  1.00  0.00     0.006 A 
HETATM   19  C   UNL     1       2.474  29.777  49.152  1.00  0.00     0.006 A 
ENDBRANCH  14  17
ENDBRANCH  13  14
ENDBRANCH   9  13
ENDBRANCH   3   7
BRANCH   5  20
HETATM   20  C   UNL     1       7.313  24.629  54.122  1.00  0.00     0.079 A 
HETATM   21  C   UNL     1       8.022  24.147  55.235  1.00  0.00     0.062 A 
HETATM   22 CL   UNL     1       8.315  25.012  56.703  1.00  0.00    -0.082 Cl
HETATM   23  C   UNL     1       8.655  22.892  55.170  1.00  0.00     0.026 A 
HETATM   24  C   UNL     1       8.612  22.121  54.011  1.00  0.00     0.002 A 
HETATM   25  C   UNL     1       7.945  22.604  52.894  1.00  0.00     0.002 A 
HETATM   26  C   UNL     1       7.308  23.846  52.949  1.00  0.00     0.033 A 
ENDBRANCH   5  20
TORSDOF 5
ENDMDL
MODEL 7
REMARK VINA RESULT:      -8.0      2.839      4.618
REMARK  5 active torsions:
REMARK  status: ('A' for Active; 'I' for Inactive)
REMARK    1  A    between atoms: C_3  and  N_4 
REMARK       I    between atoms: N_4  and  C_5 
REMARK       I    between atoms: C_5  and  N_6 
REMARK    2  A    between atoms: N_6  and  C_7 
REMARK    3  A    between atoms: C_7  and  C_8 
REMARK    4  A    between atoms: C_8  and  C_9 
REMARK    5  A    between atoms: N_16  and  C_17 
ROOT
HETATM    1  C   UNL     1      10.314  29.296  56.726  1.00  0.00     0.054 C 
HETATM    2  C   UNL     1       9.249  29.836  57.607  1.00  0.00     0.003 A 
HETATM    3  C   UNL     1       7.839  29.788  57.463  1.00  0.00     0.159 A 
HETATM    4  N   UNL     1       7.224  30.443  58.451  1.00  0.00    -0.149 NA
HETATM    5  N   UNL     1       8.218  30.829  59.309  1.00  0.00    -0.241 N 
HETATM    6  C   UNL     1       9.448  30.548  58.768  1.00  0.00     0.129 A 
ENDROOT
BRANCH   3   7
HETATM    7  N   UNL     1       7.206  29.167  56.411  1.00  0.00    -0.291 N 
HETATM    8  C   UNL     1       6.911  27.864  56.192  1.00  0.00     0.321 C 
HETATM    9  N   UNL     1       7.289  26.940  57.113  1.00  0.00    -0.342 N 
HETATM   10  O   UNL     1       6.297  27.570  55.165  1.00  0.00    -0.247 OA
HETATM   11  H   UNL     1       7.625  27.301  58.001  1.00  0.00     0.164 HD
HETATM   12  H   UNL     1       6.870  29.757  55.667  1.00  0.00     0.172 HD
BRANCH   9  13
HETATM   13  C   UNL     1       6.798  25.588  56.990  1.00  0.00     0.134 C 
BRANCH  13  14
HETATM   14  C   UNL     1       7.829  24.635  56.409  1.00  0.00    -0.021 A 
HETATM   15  C   UNL     1       9.184  24.647  57.111  1.00  0.00     0.012 A 
HETATM   16  C   UNL     1       8.268  23.478  57.295  1.00  0.00     0.012 A 
BRANCH  14  17
HETATM   17  C   UNL     1       7.785  24.515  54.864  1.00  0.00    -0.004 A 
HETATM   18  C   UNL     1       7.545  23.217  54.124  1.00  0.00     0.006 A 
HETATM   19  C   UNL     1       6.504  24.290  54.097  1.00  0.00     0.006 A 
ENDBRANCH  14  17
ENDBRANCH  13  14
ENDBRANCH   9  13
ENDBRANCH   3   7
BRANCH   5  20
HETATM   20  C   UNL     1       7.892  31.486  60.536  1.00  0.00     0.079 A 
HETATM   21  C   UNL     1       8.510  31.241  61.774  1.00  0.00     0.062 A 
HETATM   22 CL   UNL     1       9.649  29.984  62.108  1.00  0.00    -0.082 Cl
HETATM   23  C   UNL     1       8.135  31.993  62.903  1.00  0.00     0.026 A 
HETATM   24  C   UNL     1       7.143  32.967  62.824  1.00  0.00     0.002 A 
HETATM   25  C   UNL     1       6.501  33.191  61.615  1.00  0.00     0.002 A 
HETATM   26  C   UNL     1       6.869  32.456  60.486  1.00  0.00     0.033 A 
ENDBRANCH   5  20
TORSDOF 5
ENDMDL
MODEL 8
REMARK VINA RESULT:      -8.0      3.925      7.550
REMARK  5 active torsions:
REMARK  status: ('A' for Active; 'I' for Inactive)
REMARK    1  A    between atoms: C_3  and  N_4 
REMARK       I    between atoms: N_4  and  C_5 
REMARK       I    between atoms: C_5  and  N_6 
REMARK    2  A    between atoms: N_6  and  C_7 
REMARK    3  A    between atoms: C_7  and  C_8 
REMARK    4  A    between atoms: C_8  and  C_9 
REMARK    5  A    between atoms: N_16  and  C_17 
ROOT
HETATM    1  C   UNL     1       7.549  28.161  53.800  1.00  0.00     0.054 C 
HETATM    2  C   UNL     1       7.101  26.755  53.957  1.00  0.00     0.003 A 
HETATM    3  C   UNL     1       5.789  26.223  54.045  1.00  0.00     0.159 A 
HETATM    4  N   UNL     1       5.809  24.902  54.238  1.00  0.00    -0.149 NA
HETATM    5  N   UNL     1       7.127  24.541  54.167  1.00  0.00    -0.241 N 
HETATM    6  C   UNL     1       7.922  25.658  54.088  1.00  0.00     0.129 A 
ENDROOT
BRANCH   3   7
HETATM    7  N   UNL     1       4.653  26.995  53.971  1.00  0.00    -0.291 N 
HETATM    8  C   UNL     1       4.024  27.556  52.912  1.00  0.00     0.321 C 
HETATM    9  N   UNL     1       4.554  27.396  51.672  1.00  0.00    -0.342 N 
HETATM   10  O   UNL     1       2.985  28.185  53.118  1.00  0.00    -0.247 OA
HETATM   11  H   UNL     1       5.304  26.717  51.587  1.00  0.00     0.164 HD
HETATM   12  H   UNL     1       4.165  27.174  54.834  1.00  0.00     0.172 HD
BRANCH   9  13
HETATM   13  C   UNL     1       3.784  27.810  50.523  1.00  0.00     0.134 C 
BRANCH  13  14
HETATM   14  C   UNL     1       4.509  28.830  49.661  1.00  0.00    -0.021 A 
HETATM   15  C   UNL     1       4.372  30.278  50.126  1.00  0.00     0.012 A 
HETATM   16  C   UNL     1       5.676  29.564  50.306  1.00  0.00     0.012 A 
BRANCH  14  17
HETATM   17  C   UNL     1       4.470  28.523  48.143  1.00  0.00    -0.004 A 
HETATM   18  C   UNL     1       5.595  27.850  47.387  1.00  0.00     0.006 A 
HETATM   19  C   UNL     1       4.302  27.126  47.594  1.00  0.00     0.006 A 
ENDBRANCH  14  17
ENDBRANCH  13  14
ENDBRANCH   9  13
ENDBRANCH   3   7
BRANCH   5  20
HETATM   20  C   UNL     1       7.500  23.163  54.243  1.00  0.00     0.079 A 
HETATM   21  C   UNL     1       7.808  22.472  55.428  1.00  0.00     0.062 A 
HETATM   22 CL   UNL     1       7.977  23.176  56.997  1.00  0.00    -0.082 Cl
HETATM   23  C   UNL     1       8.111  21.099  55.377  1.00  0.00     0.026 A 
HETATM   24  C   UNL     1       8.134  20.409  54.167  1.00  0.00     0.002 A 
HETATM   25  C   UNL     1       7.867  21.090  52.988  1.00  0.00     0.002 A 
HETATM   26  C   UNL     1       7.559  22.452  53.027  1.00  0.00     0.033 A 
ENDBRANCH   5  20
TORSDOF 5
ENDMDL
MODEL 9
REMARK VINA RESULT:      -8.0      2.303      7.123
REMARK  5 active torsions:
REMARK  status: ('A' for Active; 'I' for Inactive)
REMARK    1  A    between atoms: C_3  and  N_4 
REMARK       I    between atoms: N_4  and  C_5 
REMARK       I    between atoms: C_5  and  N_6 
REMARK    2  A    between atoms: N_6  and  C_7 
REMARK    3  A    between atoms: C_7  and  C_8 
REMARK    4  A    between atoms: C_8  and  C_9 
REMARK    5  A    between atoms: N_16  and  C_17 
ROOT
HETATM    1  C   UNL     1       5.305  25.939  51.488  1.00  0.00     0.054 C 
HETATM    2  C   UNL     1       5.809  25.215  52.681  1.00  0.00     0.003 A 
HETATM    3  C   UNL     1       5.596  25.476  54.059  1.00  0.00     0.159 A 
HETATM    4  N   UNL     1       6.272  24.620  54.829  1.00  0.00    -0.149 NA
HETATM    5  N   UNL     1       6.844  23.723  53.967  1.00  0.00    -0.241 N 
HETATM    6  C   UNL     1       6.646  24.122  52.667  1.00  0.00     0.129 A 
ENDROOT
BRANCH   3   7
HETATM    7  N   UNL     1       4.813  26.508  54.522  1.00  0.00    -0.291 N 
HETATM    8  C   UNL     1       5.139  27.664  55.146  1.00  0.00     0.321 C 
HETATM    9  N   UNL     1       6.444  27.918  55.420  1.00  0.00    -0.342 N 
HETATM   10  O   UNL     1       4.233  28.448  55.431  1.00  0.00    -0.247 OA
HETATM   11  H   UNL     1       7.125  27.299  54.987  1.00  0.00     0.164 HD
HETATM   12  H   UNL     1       3.821  26.434  54.365  1.00  0.00     0.172 HD
BRANCH   9  13
HETATM   13  C   UNL     1       6.819  29.230  55.892  1.00  0.00     0.134 C 
BRANCH  13  14
HETATM   14  C   UNL     1       7.835  29.185  57.021  1.00  0.00    -0.021 A 
HETATM   15  C   UNL     1       8.604  27.872  57.142  1.00  0.00     0.012 A 
HETATM   16  C   UNL     1       9.300  29.090  56.619  1.00  0.00     0.012 A 
BRANCH  14  17
HETATM   17  C   UNL     1       7.384  29.913  58.312  1.00  0.00    -0.004 A 
HETATM   18  C   UNL     1       7.884  31.277  58.733  1.00  0.00     0.006 A 
HETATM   19  C   UNL     1       6.463  31.109  58.299  1.00  0.00     0.006 A 
ENDBRANCH  14  17
ENDBRANCH  13  14
ENDBRANCH   9  13
ENDBRANCH   3   7
BRANCH   5  20
HETATM   20  C   UNL     1       7.575  22.605  54.473  1.00  0.00     0.079 A 
HETATM   21  C   UNL     1       8.053  22.478  55.788  1.00  0.00     0.062 A 
HETATM   22 CL   UNL     1       8.016  23.707  57.003  1.00  0.00    -0.082 Cl
HETATM   23  C   UNL     1       8.716  21.300  56.180  1.00  0.00     0.026 A 
HETATM   24  C   UNL     1       8.932  20.260  55.281  1.00  0.00     0.002 A 
HETATM   25  C   UNL     1       8.497  20.390  53.969  1.00  0.00     0.002 A 
HETATM   26  C   UNL     1       7.831  21.551  53.571  1.00  0.00     0.033 A 
ENDBRANCH   5  20
TORSDOF 5
ENDMDL
MODEL 10
REMARK VINA RESULT:      -7.9      3.724      8.564
REMARK  5 active torsions:
REMARK  status: ('A' for Active; 'I' for Inactive)
REMARK    1  A    between atoms: C_3  and  N_4 
REMARK       I    between atoms: N_4  and  C_5 
REMARK       I    between atoms: C_5  and  N_6 
REMARK    2  A    between atoms: N_6  and  C_7 
REMARK    3  A    between atoms: C_7  and  C_8 
REMARK    4  A    between atoms: C_8  and  C_9 
REMARK    5  A    between atoms: N_16  and  C_17 
ROOT
HETATM    1  C   UNL     1       9.874  30.527  57.661  1.00  0.00     0.054 C 
HETATM    2  C   UNL     1       8.868  29.481  57.349  1.00  0.00     0.003 A 
HETATM    3  C   UNL     1       7.456  29.578  57.252  1.00  0.00     0.159 A 
HETATM    4  N   UNL     1       6.901  28.390  57.004  1.00  0.00    -0.149 NA
HETATM    5  N   UNL     1       7.946  27.525  56.825  1.00  0.00    -0.241 N 
HETATM    6  C   UNL     1       9.134  28.150  57.119  1.00  0.00     0.129 A 
ENDROOT
BRANCH   3   7
HETATM    7  N   UNL     1       6.765  30.754  57.427  1.00  0.00    -0.291 N 
HETATM    8  C   UNL     1       6.603  31.539  58.518  1.00  0.00     0.321 C 
HETATM    9  N   UNL     1       7.173  31.161  59.691  1.00  0.00    -0.342 N 
HETATM   10  O   UNL     1       5.951  32.577  58.397  1.00  0.00    -0.247 OA
HETATM   11  H   UNL     1       7.835  30.391  59.643  1.00  0.00     0.164 HD
HETATM   12  H   UNL     1       6.305  31.140  56.618  1.00  0.00     0.172 HD
BRANCH   9  13
HETATM   13  C   UNL     1       7.182  32.089  60.797  1.00  0.00     0.134 C 
BRANCH  13  14
HETATM   14  C   UNL     1       8.239  31.758  61.838  1.00  0.00    -0.021 A 
HETATM   15  C   UNL     1       9.153  30.590  61.478  1.00  0.00     0.012 A 
HETATM   16  C   UNL     1       9.689  31.988  61.438  1.00  0.00     0.012 A 
BRANCH  14  17
HETATM   17  C   UNL     1       7.758  31.911  63.303  1.00  0.00    -0.004 A 
HETATM   18  C   UNL     1       7.889  33.186  64.108  1.00  0.00     0.006 A 
HETATM   19  C   UNL     1       6.535  32.711  63.685  1.00  0.00     0.006 A 
ENDBRANCH  14  17
ENDBRANCH  13  14
ENDBRANCH   9  13
ENDBRANCH   3   7
BRANCH   5  20
HETATM   20  C   UNL     1       7.701  26.168  56.451  1.00  0.00     0.079 A 
HETATM   21  C   UNL     1       6.954  25.758  55.334  1.00  0.00     0.062 A 
HETATM   22 CL   UNL     1       6.035  26.790  54.296  1.00  0.00    -0.082 Cl
HETATM   23  C   UNL     1       6.829  24.387  55.042  1.00  0.00     0.026 A 
HETATM   24  C   UNL     1       7.414  23.420  55.854  1.00  0.00     0.002 A 
HETATM   25  C   UNL     1       8.123  23.812  56.980  1.00  0.00     0.002 A 
HETATM   26  C   UNL     1       8.261  25.170  57.277  1.00  0.00     0.033 A 
ENDBRANCH   5  20
TORSDOF 5
ENDMDL
