MODEL 1
REMARK VINA RESULT:      -9.2      0.000      0.000
REMARK  8 active torsions:
REMARK  status: ('A' for Active; 'I' for Inactive)
REMARK       I    between atoms: C_2  and  N_3 
REMARK    1  A    between atoms: N_3  and  C_4 
REMARK    2  A    between atoms: C_6  and  C_7 
REMARK    3  A    between atoms: C_7  and  N_8 
REMARK    4  A    between atoms: C_11  and  C_12 
REMARK    5  A    between atoms: C_14  and  S_15 
REMARK    6  A    between atoms: S_15  and  C_16 
REMARK    7  A    between atoms: C_16  and  C_17 
REMARK    8  A    between atoms: C_17  and  N_18 
ROOT
HETATM    1  N   UNL     1       6.556  27.377  55.146  1.00  0.00    -0.066 N 
HETATM    2  H   UNL     1       6.715  26.508  55.675  1.00  0.00     0.280 HD
HETATM    3  C   UNL     1       7.678  28.340  55.506  1.00  0.00     0.246 C 
HETATM    4  C   UNL     1       7.633  28.676  57.003  1.00  0.00     0.064 C 
HETATM    5  C   UNL     1       6.251  29.202  57.413  1.00  0.00     0.014 C 
HETATM    6  C   UNL     1       5.157  28.218  57.016  1.00  0.00     0.028 C 
HETATM    7  C   UNL     1       5.192  27.904  55.528  1.00  0.00     0.235 C 
ENDROOT
BRANCH   4   8
HETATM    8  C   UNL     1       8.743  29.616  57.422  1.00  0.00     0.044 A 
HETATM    9  N   UNL     1       8.477  30.387  58.497  1.00  0.00    -0.227 NA
HETATM   10  C   UNL     1       9.411  31.277  58.879  1.00  0.00     0.188 A 
HETATM   11  N   UNL     1      10.592  31.450  58.272  1.00  0.00    -0.235 NA
HETATM   12  C   UNL     1      10.836  30.654  57.214  1.00  0.00     0.121 A 
HETATM   13  C   UNL     1       9.941  29.717  56.741  1.00  0.00     0.047 A 
BRANCH  10  14
HETATM   14  S   UNL     1       9.020  32.284  60.285  1.00  0.00    -0.088 SA
BRANCH  14  15
HETATM   15  C   UNL     1       7.532  31.426  60.887  1.00  0.00     0.110 C 
BRANCH  15  16
HETATM   16  C   UNL     1       6.617  32.437  61.584  1.00  0.00     0.245 C 
BRANCH  16  17
HETATM   17  N   UNL     1       6.633  32.258  63.092  1.00  0.00    -0.070 N 
HETATM   18  H   UNL     1       6.639  31.248  63.292  1.00  0.00     0.279 HD
HETATM   19  C   UNL     1       5.386  32.820  63.768  1.00  0.00     0.235 C 
HETATM   20  C   UNL     1       5.895  33.967  64.616  1.00  0.00     0.029 C 
HETATM   21  C   UNL     1       7.261  33.486  65.056  1.00  0.00     0.029 C 
HETATM   22  C   UNL     1       7.832  32.883  63.789  1.00  0.00     0.235 C 
ENDBRANCH  16  17
ENDBRANCH  15  16
ENDBRANCH  14  15
ENDBRANCH  10  14
ENDBRANCH   4   8
BRANCH   1  23
HETATM   23  C   UNL     1       6.578  26.968  53.679  1.00  0.00     0.280 C 
BRANCH  23  24
HETATM   24  C   UNL     1       7.050  25.569  53.470  1.00  0.00     0.010 A 
HETATM   25  S   UNL     1       6.783  24.381  54.680  1.00  0.00    -0.075 SA
HETATM   26  C   UNL     1       7.534  23.175  53.752  1.00  0.00     0.076 A 
HETATM   27  C   UNL     1       7.999  23.649  52.550  1.00  0.00     0.038 A 
HETATM   28  C   UNL     1       7.733  25.042  52.390  1.00  0.00     0.019 A 
BRANCH  26  29
HETATM   29  N   UNL     1       7.565  21.938  54.347  1.00  0.00    -0.322 N 
HETATM   30  C   UNL     1       8.667  21.461  55.031  1.00  0.00     0.218 C 
HETATM   31  C   UNL     1       8.431  20.098  55.631  1.00  0.00     0.117 C 
HETATM   32  O   UNL     1       9.754  22.022  55.127  1.00  0.00    -0.274 OA
HETATM   33  H   UNL     1       6.739  21.359  54.266  1.00  0.00     0.169 HD
ENDBRANCH  26  29
ENDBRANCH  23  24
ENDBRANCH   1  23
TORSDOF 8
ENDMDL
MODEL 2
REMARK VINA RESULT:      -9.1      3.059     10.710
REMARK  8 active torsions:
REMARK  status: ('A' for Active; 'I' for Inactive)
REMARK       I    between atoms: C_2  and  N_3 
REMARK    1  A    between atoms: N_3  and  C_4 
REMARK    2  A    between atoms: C_6  and  C_7 
REMARK    3  A    between atoms: C_7  and  N_8 
REMARK    4  A    between atoms: C_11  and  C_12 
REMARK    5  A    between atoms: C_14  and  S_15 
REMARK    6  A    between atoms: S_15  and  C_16 
REMARK    7  A    between atoms: C_16  and  C_17 
REMARK    8  A    between atoms: C_17  and  N_18 
ROOT
HETATM    1  N   UNL     1       9.661  30.646  58.604  1.00  0.00    -0.066 N 
HETATM    2  H   UNL     1      10.013  29.895  59.214  1.00  0.00     0.280 HD
HETATM    3  C   UNL     1       8.277  30.233  58.125  1.00  0.00     0.246 C 
HETATM    4  C   UNL     1       8.364  28.944  57.295  1.00  0.00     0.064 C 
HETATM    5  C   UNL     1       9.367  29.091  56.143  1.00  0.00     0.014 C 
HETATM    6  C   UNL     1      10.732  29.526  56.665  1.00  0.00     0.028 C 
HETATM    7  C   UNL     1      10.645  30.814  57.469  1.00  0.00     0.235 C 
ENDROOT
BRANCH   4   8
HETATM    8  C   UNL     1       7.009  28.474  56.809  1.00  0.00     0.044 A 
HETATM    9  N   UNL     1       7.000  27.279  56.183  1.00  0.00    -0.227 NA
HETATM   10  C   UNL     1       5.829  26.839  55.686  1.00  0.00     0.188 A 
HETATM   11  N   UNL     1       4.668  27.500  55.773  1.00  0.00    -0.235 NA
HETATM   12  C   UNL     1       4.706  28.680  56.420  1.00  0.00     0.121 A 
HETATM   13  C   UNL     1       5.855  29.219  56.957  1.00  0.00     0.047 A 
BRANCH  10  14
HETATM   14  S   UNL     1       5.858  25.273  54.853  1.00  0.00    -0.088 SA
BRANCH  14  15
HETATM   15  C   UNL     1       7.621  25.183  54.406  1.00  0.00     0.110 C 
BRANCH  15  16
HETATM   16  C   UNL     1       8.224  23.908  55.000  1.00  0.00     0.245 C 
BRANCH  16  17
HETATM   17  N   UNL     1       7.494  22.667  54.517  1.00  0.00    -0.070 N 
HETATM   18  H   UNL     1       6.482  22.846  54.585  1.00  0.00     0.279 HD
HETATM   19  C   UNL     1       7.769  21.442  55.386  1.00  0.00     0.235 C 
HETATM   20  C   UNL     1       8.513  20.488  54.476  1.00  0.00     0.029 C 
HETATM   21  C   UNL     1       7.896  20.757  53.120  1.00  0.00     0.029 C 
HETATM   22  C   UNL     1       7.807  22.268  53.083  1.00  0.00     0.235 C 
ENDBRANCH  16  17
ENDBRANCH  15  16
ENDBRANCH  14  15
ENDBRANCH  10  14
ENDBRANCH   4   8
BRANCH   1  23
HETATM   23  C   UNL     1       9.635  31.895  59.475  1.00  0.00     0.280 C 
BRANCH  23  24
HETATM   24  C   UNL     1       8.908  31.694  60.762  1.00  0.00     0.010 A 
HETATM   25  S   UNL     1       7.545  32.668  61.141  1.00  0.00    -0.075 SA
HETATM   26  C   UNL     1       7.311  31.874  62.622  1.00  0.00     0.076 A 
HETATM   27  C   UNL     1       8.247  30.895  62.850  1.00  0.00     0.038 A 
HETATM   28  C   UNL     1       9.185  30.799  61.778  1.00  0.00     0.019 A 
BRANCH  26  29
HETATM   29  N   UNL     1       6.242  32.335  63.351  1.00  0.00    -0.322 N 
HETATM   30  C   UNL     1       6.382  33.185  64.432  1.00  0.00     0.218 C 
HETATM   31  C   UNL     1       5.057  33.584  65.030  1.00  0.00     0.117 C 
HETATM   32  O   UNL     1       7.443  33.562  64.919  1.00  0.00    -0.274 OA
HETATM   33  H   UNL     1       5.319  32.026  63.075  1.00  0.00     0.169 HD
ENDBRANCH  26  29
ENDBRANCH  23  24
ENDBRANCH   1  23
TORSDOF 8
ENDMDL
MODEL 3
REMARK VINA RESULT:      -9.1      3.610     11.540
REMARK  8 active torsions:
REMARK  status: ('A' for Active; 'I' for Inactive)
REMARK       I    between atoms: C_2  and  N_3 
REMARK    1  A    between atoms: N_3  and  C_4 
REMARK    2  A    between atoms: C_6  and  C_7 
REMARK    3  A    between atoms: C_7  and  N_8 
REMARK    4  A    between atoms: C_11  and  C_12 
REMARK    5  A    between atoms: C_14  and  S_15 
REMARK    6  A    between atoms: S_15  and  C_16 
REMARK    7  A    between atoms: C_16  and  C_17 
REMARK    8  A    between atoms: C_17  and  N_18 
ROOT
HETATM    1  N   UNL     1       7.801  31.488  60.038  1.00  0.00    -0.066 N 
HETATM    2  H   UNL     1       8.060  30.864  60.815  1.00  0.00     0.280 HD
HETATM    3  C   UNL     1       7.369  30.608  58.874  1.00  0.00     0.246 C 
HETATM    4  C   UNL     1       8.537  29.727  58.411  1.00  0.00     0.064 C 
HETATM    5  C   UNL     1       9.776  30.572  58.083  1.00  0.00     0.014 C 
HETATM    6  C   UNL     1      10.160  31.452  59.268  1.00  0.00     0.028 C 
HETATM    7  C   UNL     1       9.006  32.338  59.710  1.00  0.00     0.235 C 
ENDROOT
BRANCH   4   8
HETATM    8  C   UNL     1       8.157  28.813  57.265  1.00  0.00     0.044 A 
HETATM    9  N   UNL     1       7.884  27.537  57.606  1.00  0.00    -0.227 NA
HETATM   10  C   UNL     1       7.591  26.671  56.618  1.00  0.00     0.188 A 
HETATM   11  N   UNL     1       7.546  26.986  55.317  1.00  0.00    -0.235 NA
HETATM   12  C   UNL     1       7.805  28.271  55.011  1.00  0.00     0.121 A 
HETATM   13  C   UNL     1       8.122  29.231  55.948  1.00  0.00     0.047 A 
BRANCH  10  14
HETATM   14  S   UNL     1       7.254  24.999  57.102  1.00  0.00    -0.088 SA
BRANCH  14  15
HETATM   15  C   UNL     1       7.953  24.108  55.676  1.00  0.00     0.110 C 
BRANCH  15  16
HETATM   16  C   UNL     1       8.441  22.731  56.136  1.00  0.00     0.245 C 
BRANCH  16  17
HETATM   17  N   UNL     1       9.122  21.975  55.009  1.00  0.00    -0.070 N 
HETATM   18  H   UNL     1      10.131  22.175  55.055  1.00  0.00     0.279 HD
HETATM   19  C   UNL     1       8.659  22.427  53.627  1.00  0.00     0.235 C 
HETATM   20  C   UNL     1       7.948  21.222  53.048  1.00  0.00     0.029 C 
HETATM   21  C   UNL     1       8.730  20.058  53.618  1.00  0.00     0.029 C 
HETATM   22  C   UNL     1       8.940  20.465  55.062  1.00  0.00     0.235 C 
ENDBRANCH  16  17
ENDBRANCH  15  16
ENDBRANCH  14  15
ENDBRANCH  10  14
ENDBRANCH   4   8
BRANCH   1  23
HETATM   23  C   UNL     1       6.668  32.353  60.574  1.00  0.00     0.280 C 
BRANCH  23  24
HETATM   24  C   UNL     1       6.882  32.786  61.986  1.00  0.00     0.010 A 
HETATM   25  S   UNL     1       5.890  34.009  62.670  1.00  0.00    -0.075 SA
HETATM   26  C   UNL     1       6.692  33.912  64.162  1.00  0.00     0.076 A 
HETATM   27  C   UNL     1       7.706  32.986  64.157  1.00  0.00     0.038 A 
HETATM   28  C   UNL     1       7.828  32.341  62.890  1.00  0.00     0.019 A 
BRANCH  26  29
HETATM   29  N   UNL     1       6.212  34.770  65.122  1.00  0.00    -0.322 N 
HETATM   30  C   UNL     1       5.180  34.438  65.978  1.00  0.00     0.218 C 
HETATM   31  C   UNL     1       4.874  35.532  66.969  1.00  0.00     0.117 C 
HETATM   32  O   UNL     1       4.522  33.403  65.946  1.00  0.00    -0.274 OA
HETATM   33  H   UNL     1       6.640  35.684  65.187  1.00  0.00     0.169 HD
ENDBRANCH  26  29
ENDBRANCH  23  24
ENDBRANCH   1  23
TORSDOF 8
ENDMDL
MODEL 4
REMARK VINA RESULT:      -8.7      3.522     10.927
REMARK  8 active torsions:
REMARK  status: ('A' for Active; 'I' for Inactive)
REMARK       I    between atoms: C_2  and  N_3 
REMARK    1  A    between atoms: N_3  and  C_4 
REMARK    2  A    between atoms: C_6  and  C_7 
REMARK    3  A    between atoms: C_7  and  N_8 
REMARK    4  A    between atoms: C_11  and  C_12 
REMARK    5  A    between atoms: C_14  and  S_15 
REMARK    6  A    between atoms: S_15  and  C_16 
REMARK    7  A    between atoms: C_16  and  C_17 
REMARK    8  A    between atoms: C_17  and  N_18 
ROOT
HETATM    1  N   UNL     1       8.072  31.158  59.378  1.00  0.00    -0.066 N 
HETATM    2  H   UNL     1       8.359  30.670  60.238  1.00  0.00     0.280 HD
HETATM    3  C   UNL     1       7.242  30.181  58.557  1.00  0.00     0.246 C 
HETATM    4  C   UNL     1       8.090  28.966  58.158  1.00  0.00     0.064 C 
HETATM    5  C   UNL     1       9.375  29.397  57.437  1.00  0.00     0.014 C 
HETATM    6  C   UNL     1      10.163  30.390  58.284  1.00  0.00     0.028 C 
HETATM    7  C   UNL     1       9.325  31.602  58.661  1.00  0.00     0.235 C 
ENDROOT
BRANCH   4   8
HETATM    8  C   UNL     1       7.307  27.948  57.356  1.00  0.00     0.044 A 
HETATM    9  N   UNL     1       6.547  28.452  56.362  1.00  0.00    -0.227 NA
HETATM   10  C   UNL     1       5.791  27.594  55.652  1.00  0.00     0.188 A 
HETATM   11  N   UNL     1       5.742  26.272  55.857  1.00  0.00    -0.235 NA
HETATM   12  C   UNL     1       6.525  25.798  56.843  1.00  0.00     0.121 A 
HETATM   13  C   UNL     1       7.329  26.594  57.631  1.00  0.00     0.047 A 
BRANCH  10  14
HETATM   14  S   UNL     1       4.793  28.295  54.364  1.00  0.00    -0.088 SA
BRANCH  14  15
HETATM   15  C   UNL     1       4.736  26.891  53.207  1.00  0.00     0.110 C 
BRANCH  15  16
HETATM   16  C   UNL     1       5.984  26.921  52.320  1.00  0.00     0.245 C 
BRANCH  16  17
HETATM   17  N   UNL     1       6.450  25.520  51.963  1.00  0.00    -0.070 N 
HETATM   18  H   UNL     1       6.248  25.362  50.965  1.00  0.00     0.279 HD
HETATM   19  C   UNL     1       5.699  24.433  52.727  1.00  0.00     0.235 C 
HETATM   20  C   UNL     1       6.750  23.787  53.605  1.00  0.00     0.029 C 
HETATM   21  C   UNL     1       8.001  23.869  52.756  1.00  0.00     0.029 C 
HETATM   22  C   UNL     1       7.933  25.272  52.189  1.00  0.00     0.235 C 
ENDBRANCH  16  17
ENDBRANCH  15  16
ENDBRANCH  14  15
ENDBRANCH  10  14
ENDBRANCH   4   8
BRANCH   1  23
HETATM   23  C   UNL     1       7.269  32.365  59.846  1.00  0.00     0.280 C 
BRANCH  23  24
HETATM   24  C   UNL     1       7.375  32.603  61.314  1.00  0.00     0.010 A 
HETATM   25  S   UNL     1       6.383  33.784  62.068  1.00  0.00    -0.075 SA
HETATM   26  C   UNL     1       7.043  33.454  63.596  1.00  0.00     0.076 A 
HETATM   27  C   UNL     1       8.009  32.479  63.554  1.00  0.00     0.038 A 
HETATM   28  C   UNL     1       8.215  31.994  62.228  1.00  0.00     0.019 A 
BRANCH  26  29
HETATM   29  N   UNL     1       6.519  34.210  64.616  1.00  0.00    -0.322 N 
HETATM   30  C   UNL     1       5.344  33.883  65.267  1.00  0.00     0.218 C 
HETATM   31  C   UNL     1       5.011  34.844  66.379  1.00  0.00     0.117 C 
HETATM   32  O   UNL     1       4.596  32.955  64.979  1.00  0.00    -0.274 OA
HETATM   33  H   UNL     1       7.025  35.043  64.888  1.00  0.00     0.169 HD
ENDBRANCH  26  29
ENDBRANCH  23  24
ENDBRANCH   1  23
TORSDOF 8
ENDMDL
MODEL 5
REMARK VINA RESULT:      -8.7      3.170     10.762
REMARK  8 active torsions:
REMARK  status: ('A' for Active; 'I' for Inactive)
REMARK       I    between atoms: C_2  and  N_3 
REMARK    1  A    between atoms: N_3  and  C_4 
REMARK    2  A    between atoms: C_6  and  C_7 
REMARK    3  A    between atoms: C_7  and  N_8 
REMARK    4  A    between atoms: C_11  and  C_12 
REMARK    5  A    between atoms: C_14  and  S_15 
REMARK    6  A    between atoms: S_15  and  C_16 
REMARK    7  A    between atoms: C_16  and  C_17 
REMARK    8  A    between atoms: C_17  and  N_18 
ROOT
HETATM    1  N   UNL     1       8.610  31.097  59.150  1.00  0.00    -0.066 N 
HETATM    2  H   UNL     1       9.027  30.685  59.996  1.00  0.00     0.280 HD
HETATM    3  C   UNL     1       7.681  30.053  58.545  1.00  0.00     0.246 C 
HETATM    4  C   UNL     1       8.478  28.809  58.130  1.00  0.00     0.064 C 
HETATM    5  C   UNL     1       9.637  29.178  57.194  1.00  0.00     0.014 C 
HETATM    6  C   UNL     1      10.528  30.240  57.829  1.00  0.00     0.028 C 
HETATM    7  C   UNL     1       9.739  31.479  58.221  1.00  0.00     0.235 C 
ENDROOT
BRANCH   4   8
HETATM    8  C   UNL     1       7.599  27.726  57.540  1.00  0.00     0.044 A 
HETATM    9  N   UNL     1       8.205  26.541  57.321  1.00  0.00    -0.227 NA
HETATM   10  C   UNL     1       7.481  25.561  56.750  1.00  0.00     0.188 A 
HETATM   11  N   UNL     1       6.197  25.674  56.388  1.00  0.00    -0.235 NA
HETATM   12  C   UNL     1       5.615  26.861  56.637  1.00  0.00     0.121 A 
HETATM   13  C   UNL     1       6.272  27.929  57.210  1.00  0.00     0.047 A 
BRANCH  10  14
HETATM   14  S   UNL     1       8.316  24.023  56.461  1.00  0.00    -0.088 SA
BRANCH  14  15
HETATM   15  C   UNL     1       7.139  23.232  55.319  1.00  0.00     0.110 C 
BRANCH  15  16
HETATM   16  C   UNL     1       7.822  23.016  53.966  1.00  0.00     0.245 C 
BRANCH  16  17
HETATM   17  N   UNL     1       7.203  23.881  52.883  1.00  0.00    -0.070 N 
HETATM   18  H   UNL     1       7.139  23.318  52.023  1.00  0.00     0.279 HD
HETATM   19  C   UNL     1       8.058  25.096  52.534  1.00  0.00     0.235 C 
HETATM   20  C   UNL     1       7.224  26.285  52.962  1.00  0.00     0.029 C 
HETATM   21  C   UNL     1       5.808  25.825  52.693  1.00  0.00     0.029 C 
HETATM   22  C   UNL     1       5.811  24.401  53.209  1.00  0.00     0.235 C 
ENDBRANCH  16  17
ENDBRANCH  15  16
ENDBRANCH  14  15
ENDBRANCH  10  14
ENDBRANCH   4   8
BRANCH   1  23
HETATM   23  C   UNL     1       7.869  32.339  59.627  1.00  0.00     0.280 C 
BRANCH  23  24
HETATM   24  C   UNL     1       7.841  32.467  61.112  1.00  0.00     0.010 A 
HETATM   25  S   UNL     1       6.720  33.529  61.863  1.00  0.00    -0.075 SA
HETATM   26  C   UNL     1       7.274  33.119  63.414  1.00  0.00     0.076 A 
HETATM   27  C   UNL     1       8.300  32.207  63.383  1.00  0.00     0.038 A 
HETATM   28  C   UNL     1       8.641  31.838  62.048  1.00  0.00     0.019 A 
BRANCH  26  29
HETATM   29  N   UNL     1       6.624  33.763  64.438  1.00  0.00    -0.322 N 
HETATM   30  C   UNL     1       5.347  33.426  64.847  1.00  0.00     0.218 C 
HETATM   31  C   UNL     1       4.878  34.249  66.020  1.00  0.00     0.117 C 
HETATM   32  O   UNL     1       4.618  32.593  64.318  1.00  0.00    -0.274 OA
HETATM   33  H   UNL     1       7.112  34.519  64.900  1.00  0.00     0.169 HD
ENDBRANCH  26  29
ENDBRANCH  23  24
ENDBRANCH   1  23
TORSDOF 8
ENDMDL
MODEL 6
REMARK VINA RESULT:      -8.4      3.001     10.438
REMARK  8 active torsions:
REMARK  status: ('A' for Active; 'I' for Inactive)
REMARK       I    between atoms: C_2  and  N_3 
REMARK    1  A    between atoms: N_3  and  C_4 
REMARK    2  A    between atoms: C_6  and  C_7 
REMARK    3  A    between atoms: C_7  and  N_8 
REMARK    4  A    between atoms: C_11  and  C_12 
REMARK    5  A    between atoms: C_14  and  S_15 
REMARK    6  A    between atoms: S_15  and  C_16 
REMARK    7  A    between atoms: C_16  and  C_17 
REMARK    8  A    between atoms: C_17  and  N_18 
ROOT
HETATM    1  N   UNL     1       7.319  29.553  57.795  1.00  0.00    -0.066 N 
HETATM    2  H   UNL     1       6.677  29.272  58.549  1.00  0.00     0.280 HD
HETATM    3  C   UNL     1       6.530  29.532  56.494  1.00  0.00     0.246 C 
HETATM    4  C   UNL     1       6.034  28.111  56.196  1.00  0.00     0.064 C 
HETATM    5  C   UNL     1       7.193  27.105  56.197  1.00  0.00     0.014 C 
HETATM    6  C   UNL     1       7.969  27.175  57.508  1.00  0.00     0.028 C 
HETATM    7  C   UNL     1       8.476  28.581  57.790  1.00  0.00     0.235 C 
ENDROOT
BRANCH   4   8
HETATM    8  C   UNL     1       5.221  28.034  54.920  1.00  0.00     0.044 A 
HETATM    9  N   UNL     1       5.539  27.021  54.089  1.00  0.00    -0.227 NA
HETATM   10  C   UNL     1       4.881  26.939  52.918  1.00  0.00     0.188 A 
HETATM   11  N   UNL     1       3.928  27.790  52.518  1.00  0.00    -0.235 NA
HETATM   12  C   UNL     1       3.620  28.779  53.377  1.00  0.00     0.121 A 
HETATM   13  C   UNL     1       4.241  28.953  54.596  1.00  0.00     0.047 A 
BRANCH  10  14
HETATM   14  S   UNL     1       5.336  25.603  51.843  1.00  0.00    -0.088 SA
BRANCH  14  15
HETATM   15  C   UNL     1       6.018  24.434  53.060  1.00  0.00     0.110 C 
BRANCH  15  16
HETATM   16  C   UNL     1       7.501  24.201  52.755  1.00  0.00     0.245 C 
BRANCH  16  17
HETATM   17  N   UNL     1       8.195  23.463  53.887  1.00  0.00    -0.070 N 
HETATM   18  H   UNL     1       9.024  24.008  54.161  1.00  0.00     0.279 HD
HETATM   19  C   UNL     1       8.708  22.087  53.470  1.00  0.00     0.235 C 
HETATM   20  C   UNL     1       7.891  21.111  54.290  1.00  0.00     0.029 C 
HETATM   21  C   UNL     1       7.673  21.854  55.590  1.00  0.00     0.029 C 
HETATM   22  C   UNL     1       7.337  23.257  55.126  1.00  0.00     0.235 C 
ENDBRANCH  16  17
ENDBRANCH  15  16
ENDBRANCH  14  15
ENDBRANCH  10  14
ENDBRANCH   4   8
BRANCH   1  23
HETATM   23  C   UNL     1       7.799  30.949  58.171  1.00  0.00     0.280 C 
BRANCH  23  24
HETATM   24  C   UNL     1       7.766  31.201  59.640  1.00  0.00     0.010 A 
HETATM   25  S   UNL     1       6.675  32.356  60.291  1.00  0.00    -0.075 SA
HETATM   26  C   UNL     1       7.206  32.059  61.875  1.00  0.00     0.076 A 
HETATM   27  C   UNL     1       8.202  31.116  61.929  1.00  0.00     0.038 A 
HETATM   28  C   UNL     1       8.540  30.627  60.632  1.00  0.00     0.019 A 
BRANCH  26  29
HETATM   29  N   UNL     1       6.570  32.806  62.837  1.00  0.00    -0.322 N 
HETATM   30  C   UNL     1       5.465  32.352  63.531  1.00  0.00     0.218 C 
HETATM   31  C   UNL     1       4.985  33.339  64.565  1.00  0.00     0.117 C 
HETATM   32  O   UNL     1       4.875  31.295  63.334  1.00  0.00    -0.274 OA
HETATM   33  H   UNL     1       6.936  33.730  63.029  1.00  0.00     0.169 HD
ENDBRANCH  26  29
ENDBRANCH  23  24
ENDBRANCH   1  23
TORSDOF 8
ENDMDL
MODEL 7
REMARK VINA RESULT:      -8.3      1.552      2.228
REMARK  8 active torsions:
REMARK  status: ('A' for Active; 'I' for Inactive)
REMARK       I    between atoms: C_2  and  N_3 
REMARK    1  A    between atoms: N_3  and  C_4 
REMARK    2  A    between atoms: C_6  and  C_7 
REMARK    3  A    between atoms: C_7  and  N_8 
REMARK    4  A    between atoms: C_11  and  C_12 
REMARK    5  A    between atoms: C_14  and  S_15 
REMARK    6  A    between atoms: S_15  and  C_16 
REMARK    7  A    between atoms: C_16  and  C_17 
REMARK    8  A    between atoms: C_17  and  N_18 
ROOT
HETATM    1  N   UNL     1       6.342  27.597  54.702  1.00  0.00    -0.066 N 
HETATM    2  H   UNL     1       6.212  26.808  55.349  1.00  0.00     0.280 HD
HETATM    3  C   UNL     1       7.575  28.362  55.159  1.00  0.00     0.246 C 
HETATM    4  C   UNL     1       7.358  28.930  56.568  1.00  0.00     0.064 C 
HETATM    5  C   UNL     1       6.081  29.778  56.636  1.00  0.00     0.014 C 
HETATM    6  C   UNL     1       4.876  28.981  56.150  1.00  0.00     0.028 C 
HETATM    7  C   UNL     1       5.087  28.438  54.745  1.00  0.00     0.235 C 
ENDROOT
BRANCH   4   8
HETATM    8  C   UNL     1       8.566  29.684  57.084  1.00  0.00     0.044 A 
HETATM    9  N   UNL     1       8.345  30.468  58.160  1.00  0.00    -0.227 NA
HETATM   10  C   UNL     1       9.374  31.199  58.626  1.00  0.00     0.188 A 
HETATM   11  N   UNL     1      10.606  31.203  58.101  1.00  0.00    -0.235 NA
HETATM   12  C   UNL     1      10.799  30.397  57.040  1.00  0.00     0.121 A 
HETATM   13  C   UNL     1       9.809  29.615  56.485  1.00  0.00     0.047 A 
BRANCH  10  14
HETATM   14  S   UNL     1       9.043  32.230  60.030  1.00  0.00    -0.088 SA
BRANCH  14  15
HETATM   15  C   UNL     1       7.434  31.555  60.549  1.00  0.00     0.110 C 
BRANCH  15  16
HETATM   16  C   UNL     1       6.617  32.664  61.216  1.00  0.00     0.245 C 
BRANCH  16  17
HETATM   17  N   UNL     1       5.478  33.132  60.327  1.00  0.00    -0.070 N 
HETATM   18  H   UNL     1       5.582  34.147  60.185  1.00  0.00     0.279 HD
HETATM   19  C   UNL     1       4.106  32.928  60.964  1.00  0.00     0.235 C 
HETATM   20  C   UNL     1       3.424  31.904  60.082  1.00  0.00     0.029 C 
HETATM   21  C   UNL     1       3.958  32.229  58.704  1.00  0.00     0.029 C 
HETATM   22  C   UNL     1       5.432  32.468  58.959  1.00  0.00     0.235 C 
ENDBRANCH  16  17
ENDBRANCH  15  16
ENDBRANCH  14  15
ENDBRANCH  10  14
ENDBRANCH   4   8
BRANCH   1  23
HETATM   23  C   UNL     1       6.514  26.968  53.326  1.00  0.00     0.280 C 
BRANCH  23  24
HETATM   24  C   UNL     1       7.076  25.588  53.381  1.00  0.00     0.010 A 
HETATM   25  S   UNL     1       7.038  24.702  54.851  1.00  0.00    -0.075 SA
HETATM   26  C   UNL     1       7.783  23.357  54.134  1.00  0.00     0.076 A 
HETATM   27  C   UNL     1       8.077  23.562  52.808  1.00  0.00     0.038 A 
HETATM   28  C   UNL     1       7.681  24.862  52.372  1.00  0.00     0.019 A 
BRANCH  26  29
HETATM   29  N   UNL     1       7.979  22.296  54.984  1.00  0.00    -0.322 N 
HETATM   30  C   UNL     1       7.955  20.980  54.561  1.00  0.00     0.218 C 
HETATM   31  C   UNL     1       8.246  20.008  55.675  1.00  0.00     0.117 C 
HETATM   32  O   UNL     1       7.683  20.593  53.429  1.00  0.00    -0.274 OA
HETATM   33  H   UNL     1       8.143  22.503  55.961  1.00  0.00     0.169 HD
ENDBRANCH  26  29
ENDBRANCH  23  24
ENDBRANCH   1  23
TORSDOF 8
ENDMDL
MODEL 8
REMARK VINA RESULT:      -8.2      1.828      2.861
REMARK  8 active torsions:
REMARK  status: ('A' for Active; 'I' for Inactive)
REMARK       I    between atoms: C_2  and  N_3 
REMARK    1  A    between atoms: N_3  and  C_4 
REMARK    2  A    between atoms: C_6  and  C_7 
REMARK    3  A    between atoms: C_7  and  N_8 
REMARK    4  A    between atoms: C_11  and  C_12 
REMARK    5  A    between atoms: C_14  and  S_15 
REMARK    6  A    between atoms: S_15  and  C_16 
REMARK    7  A    between atoms: C_16  and  C_17 
REMARK    8  A    between atoms: C_17  and  N_18 
ROOT
HETATM    1  N   UNL     1       7.015  28.051  56.012  1.00  0.00    -0.066 N 
HETATM    2  H   UNL     1       7.352  28.549  55.177  1.00  0.00     0.280 HD
HETATM    3  C   UNL     1       6.319  29.072  56.901  1.00  0.00     0.246 C 
HETATM    4  C   UNL     1       7.315  30.148  57.354  1.00  0.00     0.064 C 
HETATM    5  C   UNL     1       8.543  29.522  58.028  1.00  0.00     0.014 C 
HETATM    6  C   UNL     1       9.195  28.491  57.112  1.00  0.00     0.028 C 
HETATM    7  C   UNL     1       8.211  27.415  56.682  1.00  0.00     0.235 C 
ENDROOT
BRANCH   4   8
HETATM    8  C   UNL     1       6.670  31.206  58.226  1.00  0.00     0.044 A 
HETATM    9  N   UNL     1       7.156  31.298  59.481  1.00  0.00    -0.227 NA
HETATM   10  C   UNL     1       6.582  32.188  60.313  1.00  0.00     0.188 A 
HETATM   11  N   UNL     1       5.565  32.993  59.983  1.00  0.00    -0.235 NA
HETATM   12  C   UNL     1       5.116  32.891  58.718  1.00  0.00     0.121 A 
HETATM   13  C   UNL     1       5.631  32.007  57.794  1.00  0.00     0.047 A 
BRANCH  10  14
HETATM   14  S   UNL     1       7.235  32.270  61.960  1.00  0.00    -0.088 SA
BRANCH  14  15
HETATM   15  C   UNL     1       6.105  33.497  62.689  1.00  0.00     0.110 C 
BRANCH  15  16
HETATM   16  C   UNL     1       4.889  32.774  63.274  1.00  0.00     0.245 C 
BRANCH  16  17
HETATM   17  N   UNL     1       4.471  33.370  64.606  1.00  0.00    -0.070 N 
HETATM   18  H   UNL     1       4.079  32.614  65.185  1.00  0.00     0.279 HD
HETATM   19  C   UNL     1       3.369  34.417  64.468  1.00  0.00     0.235 C 
HETATM   20  C   UNL     1       4.018  35.714  64.902  1.00  0.00     0.029 C 
HETATM   21  C   UNL     1       4.982  35.271  65.981  1.00  0.00     0.029 C 
HETATM   22  C   UNL     1       5.602  34.022  65.388  1.00  0.00     0.235 C 
ENDBRANCH  16  17
ENDBRANCH  15  16
ENDBRANCH  14  15
ENDBRANCH  10  14
ENDBRANCH   4   8
BRANCH   1  23
HETATM   23  C   UNL     1       6.065  26.980  55.490  1.00  0.00     0.280 C 
BRANCH  23  24
HETATM   24  C   UNL     1       6.700  26.075  54.489  1.00  0.00     0.010 A 
HETATM   25  S   UNL     1       6.477  24.376  54.603  1.00  0.00    -0.075 SA
HETATM   26  C   UNL     1       7.419  24.097  53.219  1.00  0.00     0.076 A 
HETATM   27  C   UNL     1       7.915  25.256  52.675  1.00  0.00     0.038 A 
HETATM   28  C   UNL     1       7.511  26.405  53.420  1.00  0.00     0.019 A 
BRANCH  26  29
HETATM   29  N   UNL     1       7.542  22.773  52.874  1.00  0.00    -0.322 N 
HETATM   30  C   UNL     1       8.461  21.925  53.463  1.00  0.00     0.218 C 
HETATM   31  C   UNL     1       8.362  20.513  52.944  1.00  0.00     0.117 C 
HETATM   32  O   UNL     1       9.314  22.246  54.284  1.00  0.00    -0.274 OA
HETATM   33  H   UNL     1       6.930  22.420  52.151  1.00  0.00     0.169 HD
ENDBRANCH  26  29
ENDBRANCH  23  24
ENDBRANCH   1  23
TORSDOF 8
ENDMDL
MODEL 9
REMARK VINA RESULT:      -8.0      2.427      3.432
REMARK  8 active torsions:
REMARK  status: ('A' for Active; 'I' for Inactive)
REMARK       I    between atoms: C_2  and  N_3 
REMARK    1  A    between atoms: N_3  and  C_4 
REMARK    2  A    between atoms: C_6  and  C_7 
REMARK    3  A    between atoms: C_7  and  N_8 
REMARK    4  A    between atoms: C_11  and  C_12 
REMARK    5  A    between atoms: C_14  and  S_15 
REMARK    6  A    between atoms: S_15  and  C_16 
REMARK    7  A    between atoms: C_16  and  C_17 
REMARK    8  A    between atoms: C_17  and  N_18 
ROOT
HETATM    1  N   UNL     1       6.815  27.680  56.364  1.00  0.00    -0.066 N 
HETATM    2  H   UNL     1       7.200  27.931  55.443  1.00  0.00     0.280 HD
HETATM    3  C   UNL     1       5.746  28.707  56.707  1.00  0.00     0.246 C 
HETATM    4  C   UNL     1       6.368  30.106  56.814  1.00  0.00     0.064 C 
HETATM    5  C   UNL     1       7.538  30.121  57.807  1.00  0.00     0.014 C 
HETATM    6  C   UNL     1       8.573  29.064  57.438  1.00  0.00     0.028 C 
HETATM    7  C   UNL     1       7.958  27.675  57.353  1.00  0.00     0.235 C 
ENDROOT
BRANCH   4   8
HETATM    8  C   UNL     1       5.343  31.174  57.134  1.00  0.00     0.044 A 
HETATM    9  N   UNL     1       4.859  31.157  58.392  1.00  0.00    -0.227 NA
HETATM   10  C   UNL     1       3.908  32.054  58.712  1.00  0.00     0.188 A 
HETATM   11  N   UNL     1       3.409  32.968  57.872  1.00  0.00    -0.235 NA
HETATM   12  C   UNL     1       3.925  32.973  56.629  1.00  0.00     0.121 A 
HETATM   13  C   UNL     1       4.896  32.092  56.202  1.00  0.00     0.047 A 
BRANCH  10  14
HETATM   14  S   UNL     1       3.282  31.990  60.371  1.00  0.00    -0.088 SA
BRANCH  14  15
HETATM   15  C   UNL     1       4.463  33.100  61.199  1.00  0.00     0.110 C 
BRANCH  15  16
HETATM   16  C   UNL     1       5.806  33.042  60.465  1.00  0.00     0.245 C 
BRANCH  16  17
HETATM   17  N   UNL     1       6.711  31.966  61.040  1.00  0.00    -0.070 N 
HETATM   18  H   UNL     1       6.430  31.063  60.634  1.00  0.00     0.279 HD
HETATM   19  C   UNL     1       6.567  31.817  62.552  1.00  0.00     0.235 C 
HETATM   20  C   UNL     1       7.911  32.240  63.107  1.00  0.00     0.029 C 
HETATM   21  C   UNL     1       8.882  31.772  62.045  1.00  0.00     0.029 C 
HETATM   22  C   UNL     1       8.191  32.170  60.757  1.00  0.00     0.235 C 
ENDBRANCH  16  17
ENDBRANCH  15  16
ENDBRANCH  14  15
ENDBRANCH  10  14
ENDBRANCH   4   8
BRANCH   1  23
HETATM   23  C   UNL     1       6.251  26.275  56.197  1.00  0.00     0.280 C 
BRANCH  23  24
HETATM   24  C   UNL     1       6.826  25.550  55.027  1.00  0.00     0.010 A 
HETATM   25  S   UNL     1       6.797  23.834  54.979  1.00  0.00    -0.075 SA
HETATM   26  C   UNL     1       7.555  23.801  53.462  1.00  0.00     0.076 A 
HETATM   27  C   UNL     1       7.846  25.057  52.990  1.00  0.00     0.038 A 
HETATM   28  C   UNL     1       7.437  26.074  53.903  1.00  0.00     0.019 A 
BRANCH  26  29
HETATM   29  N   UNL     1       7.763  22.540  52.958  1.00  0.00    -0.322 N 
HETATM   30  C   UNL     1       8.657  21.646  53.517  1.00  0.00     0.218 C 
HETATM   31  C   UNL     1       8.663  20.315  52.809  1.00  0.00     0.117 C 
HETATM   32  O   UNL     1       9.417  21.876  54.452  1.00  0.00    -0.274 OA
HETATM   33  H   UNL     1       7.234  22.271  52.139  1.00  0.00     0.169 HD
ENDBRANCH  26  29
ENDBRANCH  23  24
ENDBRANCH   1  23
TORSDOF 8
ENDMDL
MODEL 10
REMARK VINA RESULT:      -8.0      3.897     11.183
REMARK  8 active torsions:
REMARK  status: ('A' for Active; 'I' for Inactive)
REMARK       I    between atoms: C_2  and  N_3 
REMARK    1  A    between atoms: N_3  and  C_4 
REMARK    2  A    between atoms: C_6  and  C_7 
REMARK    3  A    between atoms: C_7  and  N_8 
REMARK    4  A    between atoms: C_11  and  C_12 
REMARK    5  A    between atoms: C_14  and  S_15 
REMARK    6  A    between atoms: S_15  and  C_16 
REMARK    7  A    between atoms: C_16  and  C_17 
REMARK    8  A    between atoms: C_17  and  N_18 
ROOT
HETATM    1  N   UNL     1       5.720  31.035  58.812  1.00  0.00    -0.066 N 
HETATM    2  H   UNL     1       5.705  30.599  59.745  1.00  0.00     0.280 HD
HETATM    3  C   UNL     1       5.820  29.914  57.788  1.00  0.00     0.246 C 
HETATM    4  C   UNL     1       7.131  29.137  57.975  1.00  0.00     0.064 C 
HETATM    5  C   UNL     1       8.344  30.076  57.940  1.00  0.00     0.014 C 
HETATM    6  C   UNL     1       8.192  31.194  58.966  1.00  0.00     0.028 C 
HETATM    7  C   UNL     1       6.902  31.974  58.764  1.00  0.00     0.235 C 
ENDROOT
BRANCH   4   8
HETATM    8  C   UNL     1       7.273  27.993  56.994  1.00  0.00     0.044 A 
HETATM    9  N   UNL     1       7.799  26.857  57.497  1.00  0.00    -0.227 NA
HETATM   10  C   UNL     1       7.995  25.827  56.654  1.00  0.00     0.188 A 
HETATM   11  N   UNL     1       7.700  25.844  55.348  1.00  0.00    -0.235 NA
HETATM   12  C   UNL     1       7.159  26.984  54.880  1.00  0.00     0.121 A 
HETATM   13  C   UNL     1       6.926  28.097  55.660  1.00  0.00     0.047 A 
BRANCH  10  14
HETATM   14  S   UNL     1       8.704  24.357  57.348  1.00  0.00    -0.088 SA
BRANCH  14  15
HETATM   15  C   UNL     1       7.847  23.092  56.357  1.00  0.00     0.110 C 
BRANCH  15  16
HETATM   16  C   UNL     1       8.681  21.808  56.355  1.00  0.00     0.245 C 
BRANCH  16  17
HETATM   17  N   UNL     1       9.130  21.436  54.953  1.00  0.00    -0.070 N 
HETATM   18  H   UNL     1      10.154  21.327  54.965  1.00  0.00     0.279 HD
HETATM   19  C   UNL     1       8.830  22.524  53.926  1.00  0.00     0.235 C 
HETATM   20  C   UNL     1       7.812  21.900  52.994  1.00  0.00     0.029 C 
HETATM   21  C   UNL     1       8.225  20.445  52.963  1.00  0.00     0.029 C 
HETATM   22  C   UNL     1       8.526  20.147  54.417  1.00  0.00     0.235 C 
ENDBRANCH  16  17
ENDBRANCH  15  16
ENDBRANCH  14  15
ENDBRANCH  10  14
ENDBRANCH   4   8
BRANCH   1  23
HETATM   23  C   UNL     1       4.416  31.814  58.708  1.00  0.00     0.280 C 
BRANCH  23  24
HETATM   24  C   UNL     1       4.310  32.912  59.712  1.00  0.00     0.010 A 
HETATM   25  S   UNL     1       4.523  32.574  61.382  1.00  0.00    -0.075 SA
HETATM   26  C   UNL     1       4.284  34.200  61.806  1.00  0.00     0.076 A 
HETATM   27  C   UNL     1       4.031  34.997  60.717  1.00  0.00     0.038 A 
HETATM   28  C   UNL     1       4.030  34.249  59.501  1.00  0.00     0.019 A 
BRANCH  26  29
HETATM   29  N   UNL     1       4.371  34.454  63.152  1.00  0.00    -0.322 N 
HETATM   30  C   UNL     1       3.330  34.216  64.031  1.00  0.00     0.218 C 
HETATM   31  C   UNL     1       3.694  34.532  65.459  1.00  0.00     0.117 C 
HETATM   32  O   UNL     1       2.203  33.837  63.726  1.00  0.00    -0.274 OA
HETATM   33  H   UNL     1       5.239  34.838  63.501  1.00  0.00     0.169 HD
ENDBRANCH  26  29
ENDBRANCH  23  24
ENDBRANCH   1  23
TORSDOF 8
ENDMDL
