MODEL 1
REMARK VINA RESULT:      -8.0      0.000      0.000
REMARK  5 active torsions:
REMARK  status: ('A' for Active; 'I' for Inactive)
REMARK    1  A    between atoms: C_2  and  C_3 
REMARK    2  A    between atoms: C_3  and  N_4 
REMARK       I    between atoms: N_4  and  C_5 
REMARK    3  A    between atoms: C_5  and  C_6 
REMARK    4  A    between atoms: C_10  and  N_11 
REMARK       I    between atoms: N_11  and  C_12 
REMARK       I    between atoms: C_12  and  N_13 
REMARK    5  A    between atoms: N_13  and  C_14 
ROOT
HETATM    1  C   UNL     1       8.517  30.729  58.578  1.00  0.00     0.053 A 
HETATM    2  C   UNL     1       7.222  30.710  58.048  1.00  0.00     0.051 A 
HETATM    3 CL   UNL     1       5.877  31.500  58.797  1.00  0.00    -0.083 Cl
HETATM    4  C   UNL     1       6.959  30.015  56.858  1.00  0.00     0.054 A 
HETATM    5  C   UNL     1       7.976  29.332  56.185  1.00  0.00     0.038 A 
HETATM    6  C   UNL     1       9.249  29.284  56.759  1.00  0.00     0.030 A 
HETATM    7  C   UNL     1       9.518  29.977  57.943  1.00  0.00     0.021 A 
ENDROOT
BRANCH   5   8
HETATM    8  N   UNL     1       7.810  28.707  54.930  1.00  0.00    -0.309 N 
HETATM    9  C   UNL     1       7.071  27.561  54.666  1.00  0.00     0.325 C 
HETATM   10  N   UNL     1       7.033  27.315  53.307  1.00  0.00    -0.305 N 
HETATM   11  O   UNL     1       6.509  26.886  55.516  1.00  0.00    -0.247 OA
HETATM   12  H   UNL     1       7.802  27.662  52.757  1.00  0.00     0.171 HD
HETATM   13  H   UNL     1       8.051  29.263  54.123  1.00  0.00     0.170 HD
BRANCH  10  14
HETATM   14  C   UNL     1       6.169  26.447  52.657  1.00  0.00     0.086 A 
HETATM   15  C   UNL     1       6.027  25.026  52.652  1.00  0.00     0.079 A 
HETATM   16  C   UNL     1       6.780  23.976  53.385  1.00  0.00     0.075 C 
HETATM   17  N   UNL     1       5.003  24.641  51.875  1.00  0.00    -0.177 NA
HETATM   18  N   UNL     1       4.497  25.782  51.404  1.00  0.00    -0.280 N 
HETATM   19  H   UNL     1       3.694  25.724  50.786  1.00  0.00     0.189 HD
HETATM   20  C   UNL     1       5.140  26.901  51.853  1.00  0.00     0.052 A 
HETATM   21  C   UNL     1       4.691  28.257  51.462  1.00  0.00     0.072 C 
ENDBRANCH  10  14
ENDBRANCH   5   8
BRANCH   1  22
HETATM   22  C   UNL     1       8.954  31.537  59.749  1.00  0.00     0.253 C 
HETATM   23  N   UNL     1       8.749  30.986  60.992  1.00  0.00    -0.357 N 
HETATM   24  H   UNL     1       8.359  30.054  61.064  1.00  0.00     0.162 HD
HETATM   25  O   UNL     1       9.384  32.673  59.578  1.00  0.00    -0.268 OA
BRANCH  23  26
HETATM   26  C   UNL     1       8.907  31.746  62.215  1.00  0.00     0.122 C 
BRANCH  26  27
HETATM   27  C   UNL     1       7.580  32.328  62.704  1.00  0.00     0.015 C 
HETATM   28  C   UNL     1       7.699  33.007  64.062  1.00  0.00     0.006 C 
ENDBRANCH  26  27
ENDBRANCH  23  26
ENDBRANCH   1  22
TORSDOF 5
ENDMDL
MODEL 2
REMARK VINA RESULT:      -8.0      3.299      9.062
REMARK  5 active torsions:
REMARK  status: ('A' for Active; 'I' for Inactive)
REMARK    1  A    between atoms: C_2  and  C_3 
REMARK    2  A    between atoms: C_3  and  N_4 
REMARK       I    between atoms: N_4  and  C_5 
REMARK    3  A    between atoms: C_5  and  C_6 
REMARK    4  A    between atoms: C_10  and  N_11 
REMARK       I    between atoms: N_11  and  C_12 
REMARK       I    between atoms: C_12  and  N_13 
REMARK    5  A    between atoms: N_13  and  C_14 
ROOT
HETATM    1  C   UNL     1       7.437  24.743  54.667  1.00  0.00     0.053 A 
HETATM    2  C   UNL     1       7.891  24.929  55.978  1.00  0.00     0.051 A 
HETATM    3 CL   UNL     1       8.734  23.713  56.873  1.00  0.00    -0.083 Cl
HETATM    4  C   UNL     1       7.657  26.145  56.636  1.00  0.00     0.054 A 
HETATM    5  C   UNL     1       6.972  27.186  56.003  1.00  0.00     0.038 A 
HETATM    6  C   UNL     1       6.449  26.968  54.726  1.00  0.00     0.030 A 
HETATM    7  C   UNL     1       6.680  25.760  54.062  1.00  0.00     0.021 A 
ENDROOT
BRANCH   5   8
HETATM    8  N   UNL     1       6.798  28.471  56.560  1.00  0.00    -0.309 N 
HETATM    9  C   UNL     1       7.423  28.974  57.694  1.00  0.00     0.325 C 
HETATM   10  N   UNL     1       7.106  30.308  57.867  1.00  0.00    -0.305 N 
HETATM   11  O   UNL     1       8.172  28.333  58.418  1.00  0.00    -0.247 OA
HETATM   12  H   UNL     1       6.229  30.624  57.486  1.00  0.00     0.171 HD
HETATM   13  H   UNL     1       6.369  29.160  55.960  1.00  0.00     0.170 HD
BRANCH  10  14
HETATM   14  C   UNL     1       7.758  31.202  58.703  1.00  0.00     0.086 A 
HETATM   15  C   UNL     1       9.122  31.602  58.836  1.00  0.00     0.079 A 
HETATM   16  C   UNL     1      10.331  31.186  58.080  1.00  0.00     0.075 C 
HETATM   17  N   UNL     1       9.265  32.540  59.786  1.00  0.00    -0.177 NA
HETATM   18  N   UNL     1       8.027  32.742  60.241  1.00  0.00    -0.280 N 
HETATM   19  H   UNL     1       7.899  33.430  60.976  1.00  0.00     0.189 HD
HETATM   20  C   UNL     1       7.076  31.984  59.617  1.00  0.00     0.052 A 
HETATM   21  C   UNL     1       5.643  32.104  59.968  1.00  0.00     0.072 C 
ENDBRANCH  10  14
ENDBRANCH   5   8
BRANCH   1  22
HETATM   22  C   UNL     1       7.738  23.561  53.813  1.00  0.00     0.253 C 
HETATM   23  N   UNL     1       7.483  22.324  54.358  1.00  0.00    -0.357 N 
HETATM   24  H   UNL     1       7.067  22.264  55.279  1.00  0.00     0.162 HD
HETATM   25  O   UNL     1       8.275  23.719  52.722  1.00  0.00    -0.268 OA
BRANCH  23  26
HETATM   26  C   UNL     1       7.938  21.095  53.743  1.00  0.00     0.122 C 
BRANCH  26  27
HETATM   27  C   UNL     1       8.601  20.159  54.754  1.00  0.00     0.015 C 
HETATM   28  C   UNL     1       8.052  20.331  56.164  1.00  0.00     0.006 C 
ENDBRANCH  26  27
ENDBRANCH  23  26
ENDBRANCH   1  22
TORSDOF 5
ENDMDL
MODEL 3
REMARK VINA RESULT:      -7.9      4.753      8.648
REMARK  5 active torsions:
REMARK  status: ('A' for Active; 'I' for Inactive)
REMARK    1  A    between atoms: C_2  and  C_3 
REMARK    2  A    between atoms: C_3  and  N_4 
REMARK       I    between atoms: N_4  and  C_5 
REMARK    3  A    between atoms: C_5  and  C_6 
REMARK    4  A    between atoms: C_10  and  N_11 
REMARK       I    between atoms: N_11  and  C_12 
REMARK       I    between atoms: C_12  and  N_13 
REMARK    5  A    between atoms: N_13  and  C_14 
ROOT
HETATM    1  C   UNL     1       7.285  24.118  55.599  1.00  0.00     0.053 A 
HETATM    2  C   UNL     1       6.505  24.644  54.562  1.00  0.00     0.051 A 
HETATM    3 CL   UNL     1       6.581  24.072  52.931  1.00  0.00    -0.083 Cl
HETATM    4  C   UNL     1       5.614  25.697  54.818  1.00  0.00     0.054 A 
HETATM    5  C   UNL     1       5.490  26.238  56.101  1.00  0.00     0.038 A 
HETATM    6  C   UNL     1       6.328  25.767  57.114  1.00  0.00     0.030 A 
HETATM    7  C   UNL     1       7.216  24.716  56.868  1.00  0.00     0.021 A 
ENDROOT
BRANCH   5   8
HETATM    8  N   UNL     1       4.539  27.219  56.454  1.00  0.00    -0.309 N 
HETATM    9  C   UNL     1       4.780  28.572  56.659  1.00  0.00     0.325 C 
HETATM   10  N   UNL     1       3.592  29.247  56.868  1.00  0.00    -0.305 N 
HETATM   11  O   UNL     1       5.886  29.093  56.628  1.00  0.00    -0.247 OA
HETATM   12  H   UNL     1       2.826  28.718  57.253  1.00  0.00     0.171 HD
HETATM   13  H   UNL     1       3.570  26.968  56.319  1.00  0.00     0.170 HD
BRANCH  10  14
HETATM   14  C   UNL     1       3.413  30.621  56.819  1.00  0.00     0.086 A 
HETATM   15  C   UNL     1       3.397  31.644  57.815  1.00  0.00     0.079 A 
HETATM   16  C   UNL     1       3.591  31.565  59.285  1.00  0.00     0.075 C 
HETATM   17  N   UNL     1       3.216  32.855  57.267  1.00  0.00    -0.177 NA
HETATM   18  N   UNL     1       3.130  32.617  55.956  1.00  0.00    -0.280 N 
HETATM   19  H   UNL     1       2.994  33.411  55.339  1.00  0.00     0.189 HD
HETATM   20  C   UNL     1       3.261  31.299  55.623  1.00  0.00     0.052 A 
HETATM   21  C   UNL     1       3.227  30.854  54.211  1.00  0.00     0.072 C 
ENDBRANCH  10  14
ENDBRANCH   5   8
BRANCH   1  22
HETATM   22  C   UNL     1       8.160  22.918  55.492  1.00  0.00     0.253 C 
HETATM   23  N   UNL     1       7.530  21.702  55.370  1.00  0.00    -0.357 N 
HETATM   24  H   UNL     1       6.519  21.670  55.312  1.00  0.00     0.162 HD
HETATM   25  O   UNL     1       9.376  23.039  55.607  1.00  0.00    -0.268 OA
BRANCH  23  26
HETATM   26  C   UNL     1       8.237  20.444  55.490  1.00  0.00     0.122 C 
BRANCH  26  27
HETATM   27  C   UNL     1       8.787  19.966  54.146  1.00  0.00     0.015 C 
HETATM   28  C   UNL     1       8.025  20.539  52.959  1.00  0.00     0.006 C 
ENDBRANCH  26  27
ENDBRANCH  23  26
ENDBRANCH   1  22
TORSDOF 5
ENDMDL
MODEL 4
REMARK VINA RESULT:      -7.9      6.404      7.885
REMARK  5 active torsions:
REMARK  status: ('A' for Active; 'I' for Inactive)
REMARK    1  A    between atoms: C_2  and  C_3 
REMARK    2  A    between atoms: C_3  and  N_4 
REMARK       I    between atoms: N_4  and  C_5 
REMARK    3  A    between atoms: C_5  and  C_6 
REMARK    4  A    between atoms: C_10  and  N_11 
REMARK       I    between atoms: N_11  and  C_12 
REMARK       I    between atoms: C_12  and  N_13 
REMARK    5  A    between atoms: N_13  and  C_14 
ROOT
HETATM    1  C   UNL     1       7.426  24.395  54.273  1.00  0.00     0.053 A 
HETATM    2  C   UNL     1       6.341  25.272  54.373  1.00  0.00     0.051 A 
HETATM    3 CL   UNL     1       5.484  25.561  55.848  1.00  0.00    -0.083 Cl
HETATM    4  C   UNL     1       5.887  25.961  53.238  1.00  0.00     0.054 A 
HETATM    5  C   UNL     1       6.504  25.786  51.996  1.00  0.00     0.038 A 
HETATM    6  C   UNL     1       7.533  24.848  51.882  1.00  0.00     0.030 A 
HETATM    7  C   UNL     1       7.992  24.160  53.009  1.00  0.00     0.021 A 
ENDROOT
BRANCH   5   8
HETATM    8  N   UNL     1       6.175  26.525  50.840  1.00  0.00    -0.309 N 
HETATM    9  C   UNL     1       5.047  26.363  50.045  1.00  0.00     0.325 C 
HETATM   10  N   UNL     1       4.997  27.345  49.073  1.00  0.00    -0.305 N 
HETATM   11  O   UNL     1       4.204  25.492  50.204  1.00  0.00    -0.247 OA
HETATM   12  H   UNL     1       5.874  27.745  48.781  1.00  0.00     0.171 HD
HETATM   13  H   UNL     1       6.674  27.393  50.712  1.00  0.00     0.170 HD
BRANCH  10  14
HETATM   14  C   UNL     1       3.895  27.673  48.299  1.00  0.00     0.086 A 
HETATM   15  C   UNL     1       3.025  26.913  47.460  1.00  0.00     0.079 A 
HETATM   16  C   UNL     1       3.010  25.461  47.145  1.00  0.00     0.075 C 
HETATM   17  N   UNL     1       2.060  27.682  46.933  1.00  0.00    -0.177 NA
HETATM   18  N   UNL     1       2.298  28.898  47.429  1.00  0.00    -0.280 N 
HETATM   19  H   UNL     1       1.672  29.650  47.159  1.00  0.00     0.189 HD
HETATM   20  C   UNL     1       3.373  28.953  48.271  1.00  0.00     0.052 A 
HETATM   21  C   UNL     1       3.763  30.215  48.941  1.00  0.00     0.072 C 
ENDBRANCH  10  14
ENDBRANCH   5   8
BRANCH   1  22
HETATM   22  C   UNL     1       8.088  23.713  55.419  1.00  0.00     0.253 C 
HETATM   23  N   UNL     1       7.885  22.358  55.535  1.00  0.00    -0.357 N 
HETATM   24  H   UNL     1       7.344  21.876  54.827  1.00  0.00     0.162 HD
HETATM   25  O   UNL     1       8.697  24.377  56.252  1.00  0.00    -0.268 OA
BRANCH  23  26
HETATM   26  C   UNL     1       8.268  21.612  56.715  1.00  0.00     0.122 C 
BRANCH  26  27
HETATM   27  C   UNL     1       9.023  20.331  56.363  1.00  0.00     0.015 C 
HETATM   28  C   UNL     1       8.888  19.951  54.894  1.00  0.00     0.006 C 
ENDBRANCH  26  27
ENDBRANCH  23  26
ENDBRANCH   1  22
TORSDOF 5
ENDMDL
MODEL 5
REMARK VINA RESULT:      -7.8      3.836      8.776
REMARK  5 active torsions:
REMARK  status: ('A' for Active; 'I' for Inactive)
REMARK    1  A    between atoms: C_2  and  C_3 
REMARK    2  A    between atoms: C_3  and  N_4 
REMARK       I    between atoms: N_4  and  C_5 
REMARK    3  A    between atoms: C_5  and  C_6 
REMARK    4  A    between atoms: C_10  and  N_11 
REMARK       I    between atoms: N_11  and  C_12 
REMARK       I    between atoms: C_12  and  N_13 
REMARK    5  A    between atoms: N_13  and  C_14 
ROOT
HETATM    1  C   UNL     1       6.974  24.359  54.909  1.00  0.00     0.053 A 
HETATM    2  C   UNL     1       7.393  24.584  56.226  1.00  0.00     0.051 A 
HETATM    3 CL   UNL     1       8.636  23.661  56.998  1.00  0.00    -0.083 Cl
HETATM    4  C   UNL     1       6.788  25.590  56.994  1.00  0.00     0.054 A 
HETATM    5  C   UNL     1       5.764  26.381  56.465  1.00  0.00     0.038 A 
HETATM    6  C   UNL     1       5.292  26.100  55.180  1.00  0.00     0.030 A 
HETATM    7  C   UNL     1       5.892  25.101  54.408  1.00  0.00     0.021 A 
ENDROOT
BRANCH   5   8
HETATM    8  N   UNL     1       5.188  27.480  57.137  1.00  0.00    -0.309 N 
HETATM    9  C   UNL     1       5.691  28.773  57.195  1.00  0.00     0.325 C 
HETATM   10  N   UNL     1       4.797  29.610  57.835  1.00  0.00    -0.305 N 
HETATM   11  O   UNL     1       6.761  29.124  56.719  1.00  0.00    -0.247 OA
HETATM   12  H   UNL     1       4.173  29.188  58.503  1.00  0.00     0.171 HD
HETATM   13  H   UNL     1       4.218  27.381  57.399  1.00  0.00     0.170 HD
BRANCH  10  14
HETATM   14  C   UNL     1       4.823  30.996  57.824  1.00  0.00     0.086 A 
HETATM   15  C   UNL     1       5.663  31.966  58.451  1.00  0.00     0.079 A 
HETATM   16  C   UNL     1       6.838  31.796  59.343  1.00  0.00     0.075 C 
HETATM   17  N   UNL     1       5.309  33.214  58.106  1.00  0.00    -0.177 NA
HETATM   18  N   UNL     1       4.279  33.048  57.273  1.00  0.00    -0.280 N 
HETATM   19  H   UNL     1       3.850  33.879  56.879  1.00  0.00     0.189 HD
HETATM   20  C   UNL     1       3.954  31.740  57.048  1.00  0.00     0.052 A 
HETATM   21  C   UNL     1       2.859  31.368  56.122  1.00  0.00     0.072 C 
ENDBRANCH  10  14
ENDBRANCH   5   8
BRANCH   1  22
HETATM   22  C   UNL     1       7.622  23.423  53.949  1.00  0.00     0.253 C 
HETATM   23  N   UNL     1       7.528  22.082  54.234  1.00  0.00    -0.357 N 
HETATM   24  H   UNL     1       6.994  21.782  55.041  1.00  0.00     0.162 HD
HETATM   25  O   UNL     1       8.280  23.870  53.015  1.00  0.00    -0.268 OA
BRANCH  23  26
HETATM   26  C   UNL     1       8.298  21.080  53.527  1.00  0.00     0.122 C 
BRANCH  26  27
HETATM   27  C   UNL     1       8.720  19.930  54.442  1.00  0.00     0.015 C 
HETATM   28  C   UNL     1       8.400  20.194  55.907  1.00  0.00     0.006 C 
ENDBRANCH  26  27
ENDBRANCH  23  26
ENDBRANCH   1  22
TORSDOF 5
ENDMDL
MODEL 6
REMARK VINA RESULT:      -7.7      5.885      8.012
REMARK  5 active torsions:
REMARK  status: ('A' for Active; 'I' for Inactive)
REMARK    1  A    between atoms: C_2  and  C_3 
REMARK    2  A    between atoms: C_3  and  N_4 
REMARK       I    between atoms: N_4  and  C_5 
REMARK    3  A    between atoms: C_5  and  C_6 
REMARK    4  A    between atoms: C_10  and  N_11 
REMARK       I    between atoms: N_11  and  C_12 
REMARK       I    between atoms: C_12  and  N_13 
REMARK    5  A    between atoms: N_13  and  C_14 
ROOT
HETATM    1  C   UNL     1       6.746  24.767  54.563  1.00  0.00     0.053 A 
HETATM    2  C   UNL     1       6.579  26.109  54.924  1.00  0.00     0.051 A 
HETATM    3 CL   UNL     1       7.423  26.852  56.238  1.00  0.00    -0.083 Cl
HETATM    4  C   UNL     1       5.680  26.921  54.215  1.00  0.00     0.054 A 
HETATM    5  C   UNL     1       4.940  26.411  53.145  1.00  0.00     0.038 A 
HETATM    6  C   UNL     1       5.047  25.051  52.840  1.00  0.00     0.030 A 
HETATM    7  C   UNL     1       5.943  24.237  53.540  1.00  0.00     0.021 A 
ENDROOT
BRANCH   5   8
HETATM    8  N   UNL     1       4.104  27.193  52.320  1.00  0.00    -0.309 N 
HETATM    9  C   UNL     1       4.428  27.725  51.078  1.00  0.00     0.325 C 
HETATM   10  N   UNL     1       3.323  28.326  50.508  1.00  0.00    -0.305 N 
HETATM   11  O   UNL     1       5.530  27.643  50.553  1.00  0.00    -0.247 OA
HETATM   12  H   UNL     1       2.618  28.677  51.135  1.00  0.00     0.171 HD
HETATM   13  H   UNL     1       3.119  27.169  52.536  1.00  0.00     0.170 HD
BRANCH  10  14
HETATM   14  C   UNL     1       3.189  28.700  49.179  1.00  0.00     0.086 A 
HETATM   15  C   UNL     1       2.566  28.092  48.048  1.00  0.00     0.079 A 
HETATM   16  C   UNL     1       1.813  26.817  47.927  1.00  0.00     0.075 C 
HETATM   17  N   UNL     1       2.674  28.865  46.957  1.00  0.00    -0.177 NA
HETATM   18  N   UNL     1       3.339  29.943  47.379  1.00  0.00    -0.280 N 
HETATM   19  H   UNL     1       3.531  30.676  46.703  1.00  0.00     0.189 HD
HETATM   20  C   UNL     1       3.658  29.912  48.707  1.00  0.00     0.052 A 
HETATM   21  C   UNL     1       4.364  31.040  49.356  1.00  0.00     0.072 C 
ENDBRANCH  10  14
ENDBRANCH   5   8
BRANCH   1  22
HETATM   22  C   UNL     1       7.760  23.842  55.139  1.00  0.00     0.253 C 
HETATM   23  N   UNL     1       8.449  23.050  54.253  1.00  0.00    -0.357 N 
HETATM   24  H   UNL     1       8.280  23.154  53.259  1.00  0.00     0.162 HD
HETATM   25  O   UNL     1       7.878  23.752  56.358  1.00  0.00    -0.268 OA
BRANCH  23  26
HETATM   26  C   UNL     1       9.288  21.951  54.681  1.00  0.00     0.122 C 
BRANCH  26  27
HETATM   27  C   UNL     1       8.687  20.594  54.316  1.00  0.00     0.015 C 
HETATM   28  C   UNL     1       8.120  20.561  52.903  1.00  0.00     0.006 C 
ENDBRANCH  26  27
ENDBRANCH  23  26
ENDBRANCH   1  22
TORSDOF 5
ENDMDL
MODEL 7
REMARK VINA RESULT:      -7.7      2.512      3.251
REMARK  5 active torsions:
REMARK  status: ('A' for Active; 'I' for Inactive)
REMARK    1  A    between atoms: C_2  and  C_3 
REMARK    2  A    between atoms: C_3  and  N_4 
REMARK       I    between atoms: N_4  and  C_5 
REMARK    3  A    between atoms: C_5  and  C_6 
REMARK    4  A    between atoms: C_10  and  N_11 
REMARK       I    between atoms: N_11  and  C_12 
REMARK       I    between atoms: C_12  and  N_13 
REMARK    5  A    between atoms: N_13  and  C_14 
ROOT
HETATM    1  C   UNL     1       6.645  30.399  58.282  1.00  0.00     0.053 A 
HETATM    2  C   UNL     1       7.779  29.583  58.197  1.00  0.00     0.051 A 
HETATM    3 CL   UNL     1       9.351  30.082  58.720  1.00  0.00    -0.083 Cl
HETATM    4  C   UNL     1       7.679  28.294  57.652  1.00  0.00     0.054 A 
HETATM    5  C   UNL     1       6.455  27.803  57.189  1.00  0.00     0.038 A 
HETATM    6  C   UNL     1       5.343  28.649  57.199  1.00  0.00     0.030 A 
HETATM    7  C   UNL     1       5.435  29.933  57.743  1.00  0.00     0.021 A 
ENDROOT
BRANCH   5   8
HETATM    8  N   UNL     1       6.256  26.482  56.733  1.00  0.00    -0.309 N 
HETATM    9  C   UNL     1       6.837  25.893  55.618  1.00  0.00     0.325 C 
HETATM   10  N   UNL     1       6.509  24.552  55.554  1.00  0.00    -0.305 N 
HETATM   11  O   UNL     1       7.562  26.475  54.823  1.00  0.00    -0.247 OA
HETATM   12  H   UNL     1       5.644  24.271  55.988  1.00  0.00     0.171 HD
HETATM   13  H   UNL     1       5.845  25.841  57.397  1.00  0.00     0.170 HD
BRANCH  10  14
HETATM   14  C   UNL     1       7.126  23.596  54.763  1.00  0.00     0.086 A 
HETATM   15  C   UNL     1       7.969  22.480  55.053  1.00  0.00     0.079 A 
HETATM   16  C   UNL     1       8.462  21.951  56.350  1.00  0.00     0.075 C 
HETATM   17  N   UNL     1       8.300  21.816  53.935  1.00  0.00    -0.177 NA
HETATM   18  N   UNL     1       7.679  22.480  52.958  1.00  0.00    -0.280 N 
HETATM   19  H   UNL     1       7.790  22.139  52.009  1.00  0.00     0.189 HD
HETATM   20  C   UNL     1       6.943  23.545  53.394  1.00  0.00     0.052 A 
HETATM   21  C   UNL     1       6.158  24.376  52.452  1.00  0.00     0.072 C 
ENDBRANCH  10  14
ENDBRANCH   5   8
BRANCH   1  22
HETATM   22  C   UNL     1       6.589  31.724  58.959  1.00  0.00     0.253 C 
HETATM   23  N   UNL     1       6.696  31.723  60.330  1.00  0.00    -0.357 N 
HETATM   24  H   UNL     1       6.853  30.847  60.815  1.00  0.00     0.162 HD
HETATM   25  O   UNL     1       6.362  32.734  58.302  1.00  0.00    -0.268 OA
BRANCH  23  26
HETATM   26  C   UNL     1       6.428  32.898  61.132  1.00  0.00     0.122 C 
BRANCH  26  27
HETATM   27  C   UNL     1       7.269  32.925  62.409  1.00  0.00     0.015 C 
HETATM   28  C   UNL     1       8.526  32.071  62.305  1.00  0.00     0.006 C 
ENDBRANCH  26  27
ENDBRANCH  23  26
ENDBRANCH   1  22
TORSDOF 5
ENDMDL
MODEL 8
REMARK VINA RESULT:      -7.7      5.924      8.091
REMARK  5 active torsions:
REMARK  status: ('A' for Active; 'I' for Inactive)
REMARK    1  A    between atoms: C_2  and  C_3 
REMARK    2  A    between atoms: C_3  and  N_4 
REMARK       I    between atoms: N_4  and  C_5 
REMARK    3  A    between atoms: C_5  and  C_6 
REMARK    4  A    between atoms: C_10  and  N_11 
REMARK       I    between atoms: N_11  and  C_12 
REMARK       I    between atoms: C_12  and  N_13 
REMARK    5  A    between atoms: N_13  and  C_14 
ROOT
HETATM    1  C   UNL     1       6.855  24.608  54.607  1.00  0.00     0.053 A 
HETATM    2  C   UNL     1       6.695  25.954  54.957  1.00  0.00     0.051 A 
HETATM    3 CL   UNL     1       7.539  26.702  56.269  1.00  0.00    -0.083 Cl
HETATM    4  C   UNL     1       5.805  26.767  54.239  1.00  0.00     0.054 A 
HETATM    5  C   UNL     1       5.065  26.252  53.170  1.00  0.00     0.038 A 
HETATM    6  C   UNL     1       5.165  24.890  52.876  1.00  0.00     0.030 A 
HETATM    7  C   UNL     1       6.053  24.076  53.585  1.00  0.00     0.021 A 
ENDROOT
BRANCH   5   8
HETATM    8  N   UNL     1       4.238  27.033  52.335  1.00  0.00    -0.309 N 
HETATM    9  C   UNL     1       4.594  27.617  51.126  1.00  0.00     0.325 C 
HETATM   10  N   UNL     1       3.492  28.200  50.529  1.00  0.00    -0.305 N 
HETATM   11  O   UNL     1       5.719  27.590  50.646  1.00  0.00    -0.247 OA
HETATM   12  H   UNL     1       2.750  28.506  51.138  1.00  0.00     0.171 HD
HETATM   13  H   UNL     1       3.245  26.969  52.509  1.00  0.00     0.170 HD
BRANCH  10  14
HETATM   14  C   UNL     1       3.401  28.614  49.209  1.00  0.00     0.086 A 
HETATM   15  C   UNL     1       3.636  29.861  48.554  1.00  0.00     0.079 A 
HETATM   16  C   UNL     1       4.087  31.168  49.096  1.00  0.00     0.075 C 
HETATM   17  N   UNL     1       3.441  29.761  47.231  1.00  0.00    -0.177 NA
HETATM   18  N   UNL     1       3.103  28.484  47.041  1.00  0.00    -0.280 N 
HETATM   19  H   UNL     1       2.912  28.181  46.091  1.00  0.00     0.189 HD
HETATM   20  C   UNL     1       3.081  27.740  48.186  1.00  0.00     0.052 A 
HETATM   21  C   UNL     1       2.761  26.294  48.161  1.00  0.00     0.072 C 
ENDBRANCH  10  14
ENDBRANCH   5   8
BRANCH   1  22
HETATM   22  C   UNL     1       7.861  23.682  55.195  1.00  0.00     0.253 C 
HETATM   23  N   UNL     1       8.593  22.923  54.312  1.00  0.00    -0.357 N 
HETATM   24  H   UNL     1       8.458  23.052  53.317  1.00  0.00     0.162 HD
HETATM   25  O   UNL     1       7.937  23.559  56.413  1.00  0.00    -0.268 OA
BRANCH  23  26
HETATM   26  C   UNL     1       9.432  21.824  54.741  1.00  0.00     0.122 C 
BRANCH  26  27
HETATM   27  C   UNL     1       8.849  20.468  54.342  1.00  0.00     0.015 C 
HETATM   28  C   UNL     1       8.359  20.438  52.901  1.00  0.00     0.006 C 
ENDBRANCH  26  27
ENDBRANCH  23  26
ENDBRANCH   1  22
TORSDOF 5
ENDMDL
MODEL 9
REMARK VINA RESULT:      -7.6      6.158      7.962
REMARK  5 active torsions:
REMARK  status: ('A' for Active; 'I' for Inactive)
REMARK    1  A    between atoms: C_2  and  C_3 
REMARK    2  A    between atoms: C_3  and  N_4 
REMARK       I    between atoms: N_4  and  C_5 
REMARK    3  A    between atoms: C_5  and  C_6 
REMARK    4  A    between atoms: C_10  and  N_11 
REMARK       I    between atoms: N_11  and  C_12 
REMARK       I    between atoms: C_12  and  N_13 
REMARK    5  A    between atoms: N_13  and  C_14 
ROOT
HETATM    1  C   UNL     1       7.115  24.388  55.003  1.00  0.00     0.053 A 
HETATM    2  C   UNL     1       6.863  24.284  53.630  1.00  0.00     0.051 A 
HETATM    3 CL   UNL     1       7.710  23.195  52.587  1.00  0.00    -0.083 Cl
HETATM    4  C   UNL     1       5.889  25.098  53.031  1.00  0.00     0.054 A 
HETATM    5  C   UNL     1       5.159  26.020  53.786  1.00  0.00     0.038 A 
HETATM    6  C   UNL     1       5.470  26.179  55.139  1.00  0.00     0.030 A 
HETATM    7  C   UNL     1       6.437  25.370  55.743  1.00  0.00     0.021 A 
ENDROOT
BRANCH   5   8
HETATM    8  N   UNL     1       4.092  26.789  53.275  1.00  0.00    -0.309 N 
HETATM    9  C   UNL     1       4.194  27.932  52.492  1.00  0.00     0.325 C 
HETATM   10  N   UNL     1       2.943  28.344  52.074  1.00  0.00    -0.305 N 
HETATM   11  O   UNL     1       5.247  28.476  52.191  1.00  0.00    -0.247 OA
HETATM   12  H   UNL     1       2.161  28.095  52.657  1.00  0.00     0.171 HD
HETATM   13  H   UNL     1       3.184  26.347  53.279  1.00  0.00     0.170 HD
BRANCH  10  14
HETATM   14  C   UNL     1       2.678  29.254  51.062  1.00  0.00     0.086 A 
HETATM   15  C   UNL     1       2.245  29.116  49.708  1.00  0.00     0.079 A 
HETATM   16  C   UNL     1       1.910  27.903  48.919  1.00  0.00     0.075 C 
HETATM   17  N   UNL     1       2.094  30.313  49.120  1.00  0.00    -0.177 NA
HETATM   18  N   UNL     1       2.410  31.193  50.072  1.00  0.00    -0.280 N 
HETATM   19  H   UNL     1       2.359  32.179  49.841  1.00  0.00     0.189 HD
HETATM   20  C   UNL     1       2.749  30.620  51.266  1.00  0.00     0.052 A 
HETATM   21  C   UNL     1       3.095  31.445  52.446  1.00  0.00     0.072 C 
ENDBRANCH  10  14
ENDBRANCH   5   8
BRANCH   1  22
HETATM   22  C   UNL     1       8.016  23.493  55.781  1.00  0.00     0.253 C 
HETATM   23  N   UNL     1       7.630  22.179  55.900  1.00  0.00    -0.357 N 
HETATM   24  H   UNL     1       6.792  21.863  55.427  1.00  0.00     0.162 HD
HETATM   25  O   UNL     1       8.994  23.963  56.352  1.00  0.00    -0.268 OA
BRANCH  23  26
HETATM   26  C   UNL     1       8.277  21.258  56.810  1.00  0.00     0.122 C 
BRANCH  26  27
HETATM   27  C   UNL     1       9.188  20.272  56.078  1.00  0.00     0.015 C 
HETATM   28  C   UNL     1       8.793  20.076  54.621  1.00  0.00     0.006 C 
ENDBRANCH  26  27
ENDBRANCH  23  26
ENDBRANCH   1  22
TORSDOF 5
ENDMDL
MODEL 10
REMARK VINA RESULT:      -7.5      6.287      9.434
REMARK  5 active torsions:
REMARK  status: ('A' for Active; 'I' for Inactive)
REMARK    1  A    between atoms: C_2  and  C_3 
REMARK    2  A    between atoms: C_3  and  N_4 
REMARK       I    between atoms: N_4  and  C_5 
REMARK    3  A    between atoms: C_5  and  C_6 
REMARK    4  A    between atoms: C_10  and  N_11 
REMARK       I    between atoms: N_11  and  C_12 
REMARK       I    between atoms: C_12  and  N_13 
REMARK    5  A    between atoms: N_13  and  C_14 
ROOT
HETATM    1  C   UNL     1       4.431  28.077  50.415  1.00  0.00     0.053 A 
HETATM    2  C   UNL     1       4.661  26.728  50.119  1.00  0.00     0.051 A 
HETATM    3 CL   UNL     1       3.927  25.909  48.784  1.00  0.00    -0.083 Cl
HETATM    4  C   UNL     1       5.512  25.966  50.933  1.00  0.00     0.054 A 
HETATM    5  C   UNL     1       6.142  26.532  52.044  1.00  0.00     0.038 A 
HETATM    6  C   UNL     1       5.847  27.855  52.384  1.00  0.00     0.030 A 
HETATM    7  C   UNL     1       5.002  28.622  51.576  1.00  0.00     0.021 A 
ENDROOT
BRANCH   5   8
HETATM    8  N   UNL     1       7.095  25.860  52.840  1.00  0.00    -0.309 N 
HETATM    9  C   UNL     1       6.844  24.837  53.746  1.00  0.00     0.325 C 
HETATM   10  N   UNL     1       8.031  24.336  54.248  1.00  0.00    -0.305 N 
HETATM   11  O   UNL     1       5.731  24.419  54.032  1.00  0.00    -0.247 OA
HETATM   12  H   UNL     1       8.820  24.961  54.265  1.00  0.00     0.171 HD
HETATM   13  H   UNL     1       8.059  25.965  52.561  1.00  0.00     0.170 HD
BRANCH  10  14
HETATM   14  C   UNL     1       8.188  23.144  54.937  1.00  0.00     0.086 A 
HETATM   15  C   UNL     1       8.143  21.772  54.545  1.00  0.00     0.079 A 
HETATM   16  C   UNL     1       7.918  21.153  53.214  1.00  0.00     0.075 C 
HETATM   17  N   UNL     1       8.392  20.959  55.584  1.00  0.00    -0.177 NA
HETATM   18  N   UNL     1       8.603  21.787  56.609  1.00  0.00    -0.280 N 
HETATM   19  H   UNL     1       8.819  21.377  57.512  1.00  0.00     0.189 HD
HETATM   20  C   UNL     1       8.515  23.110  56.281  1.00  0.00     0.052 A 
HETATM   21  C   UNL     1       8.755  24.171  57.285  1.00  0.00     0.072 C 
ENDBRANCH  10  14
ENDBRANCH   5   8
BRANCH   1  22
HETATM   22  C   UNL     1       3.665  29.025  49.559  1.00  0.00     0.253 C 
HETATM   23  N   UNL     1       2.299  28.875  49.539  1.00  0.00    -0.357 N 
HETATM   24  H   UNL     1       1.869  28.172  50.129  1.00  0.00     0.162 HD
HETATM   25  O   UNL     1       4.266  29.825  48.848  1.00  0.00    -0.268 OA
BRANCH  23  26
HETATM   26  C   UNL     1       1.455  29.564  48.586  1.00  0.00     0.122 C 
BRANCH  26  27
HETATM   27  C   UNL     1       1.147  28.699  47.363  1.00  0.00     0.015 C 
HETATM   28  C   UNL     1       0.868  27.246  47.723  1.00  0.00     0.006 C 
ENDBRANCH  26  27
ENDBRANCH  23  26
ENDBRANCH   1  22
TORSDOF 5
ENDMDL
