MODEL 1
REMARK VINA RESULT:      -9.2      0.000      0.000
REMARK  5 active torsions:
REMARK  status: ('A' for Active; 'I' for Inactive)
REMARK    1  A    between atoms: C_4  and  C_5 
REMARK    2  A    between atoms: C_8  and  C_9 
REMARK    3  A    between atoms: C_9  and  N_10 
REMARK       I    between atoms: N_10  and  C_11 
REMARK    4  A    between atoms: C_11  and  C_12 
REMARK    5  A    between atoms: C_16  and  C_17 
ROOT
HETATM    1  N   UNL     1       7.567  28.484  55.044  1.00  0.00    -0.348 N 
HETATM    2  C   UNL     1       8.673  29.146  55.509  1.00  0.00     0.271 C 
HETATM    3  O   UNL     1       9.641  29.376  54.787  1.00  0.00    -0.266 OA
HETATM    4  H   UNL     1       6.735  28.430  55.618  1.00  0.00     0.163 HD
ENDROOT
BRANCH   1   5
HETATM    5  C   UNL     1       7.489  27.949  53.702  1.00  0.00     0.201 C 
BRANCH   5   6
HETATM    6  C   UNL     1       6.907  26.580  53.726  1.00  0.00     0.122 A 
HETATM    7  N   UNL     1       7.695  25.466  53.891  1.00  0.00    -0.341 N 
HETATM    8  C   UNL     1       6.887  24.355  53.909  1.00  0.00     0.061 A 
HETATM    9  H   UNL     1       8.704  25.486  53.979  1.00  0.00     0.167 HD
HETATM   10  C   UNL     1       5.615  24.875  53.757  1.00  0.00     0.149 A 
HETATM   11  N   UNL     1       5.638  26.243  53.634  1.00  0.00    -0.243 NA
BRANCH   8  12
HETATM   12  C   UNL     1       7.377  22.992  54.082  1.00  0.00    -0.008 A 
HETATM   13  C   UNL     1       7.786  22.240  52.973  1.00  0.00     0.014 A 
HETATM   14  C   UNL     1       8.247  20.930  53.131  1.00  0.00     0.001 A 
HETATM   15  C   UNL     1       8.309  20.361  54.401  1.00  0.00     0.000 A 
HETATM   16  C   UNL     1       7.911  21.100  55.513  1.00  0.00     0.001 A 
HETATM   17  C   UNL     1       7.446  22.407  55.354  1.00  0.00     0.014 A 
ENDBRANCH   8  12
ENDBRANCH   5   6
ENDBRANCH   1   5
BRANCH   2  18
HETATM   18  C   UNL     1       8.630  29.577  56.878  1.00  0.00     0.141 A 
HETATM   19  N   UNL     1       7.437  29.650  57.550  1.00  0.00    -0.271 N 
HETATM   20  H   UNL     1       6.518  29.417  57.183  1.00  0.00     0.189 HD
HETATM   21  N   UNL     1       7.536  30.084  58.815  1.00  0.00    -0.177 NA
HETATM   22  C   UNL     1       8.845  30.308  58.965  1.00  0.00     0.083 A 
HETATM   23  C   UNL     1       9.575  30.002  57.791  1.00  0.00     0.094 A 
HETATM   24 CL   UNL     1      11.255  30.157  57.581  1.00  0.00    -0.079 Cl
BRANCH  22  25
HETATM   25  C   UNL     1       9.451  30.843  60.260  1.00  0.00     0.041 A 
HETATM   26  C   UNL     1       9.307  32.323  60.567  1.00  0.00     0.011 A 
HETATM   27  C   UNL     1       8.519  31.332  61.352  1.00  0.00     0.011 A 
ENDBRANCH  22  25
ENDBRANCH   2  18
TORSDOF 5
ENDMDL
MODEL 2
REMARK VINA RESULT:      -9.1      2.026      2.211
REMARK  5 active torsions:
REMARK  status: ('A' for Active; 'I' for Inactive)
REMARK    1  A    between atoms: C_4  and  C_5 
REMARK    2  A    between atoms: C_8  and  C_9 
REMARK    3  A    between atoms: C_9  and  N_10 
REMARK       I    between atoms: N_10  and  C_11 
REMARK    4  A    between atoms: C_11  and  C_12 
REMARK    5  A    between atoms: C_16  and  C_17 
ROOT
HETATM    1  N   UNL     1       6.027  27.964  57.158  1.00  0.00    -0.348 N 
HETATM    2  C   UNL     1       6.282  29.296  56.959  1.00  0.00     0.271 C 
HETATM    3  O   UNL     1       5.790  29.915  56.017  1.00  0.00    -0.266 OA
HETATM    4  H   UNL     1       6.334  27.515  58.011  1.00  0.00     0.163 HD
ENDROOT
BRANCH   1   5
HETATM    5  C   UNL     1       5.227  27.181  56.240  1.00  0.00     0.201 C 
BRANCH   5   6
HETATM    6  C   UNL     1       6.105  26.373  55.351  1.00  0.00     0.122 A 
HETATM    7  N   UNL     1       6.228  25.014  55.503  1.00  0.00    -0.341 N 
HETATM    8  C   UNL     1       7.069  24.536  54.528  1.00  0.00     0.061 A 
HETATM    9  H   UNL     1       5.767  24.474  56.226  1.00  0.00     0.167 HD
HETATM   10  C   UNL     1       7.413  25.667  53.812  1.00  0.00     0.149 A 
HETATM   11  N   UNL     1       6.825  26.794  54.332  1.00  0.00    -0.243 NA
BRANCH   8  12
HETATM   12  C   UNL     1       7.421  23.129  54.370  1.00  0.00    -0.008 A 
HETATM   13  C   UNL     1       7.647  22.595  53.095  1.00  0.00     0.014 A 
HETATM   14  C   UNL     1       7.975  21.246  52.936  1.00  0.00     0.001 A 
HETATM   15  C   UNL     1       8.088  20.419  54.051  1.00  0.00     0.000 A 
HETATM   16  C   UNL     1       7.871  20.938  55.325  1.00  0.00     0.001 A 
HETATM   17  C   UNL     1       7.538  22.286  55.484  1.00  0.00     0.014 A 
ENDBRANCH   8  12
ENDBRANCH   5   6
ENDBRANCH   1   5
BRANCH   2  18
HETATM   18  C   UNL     1       7.134  29.933  57.922  1.00  0.00     0.141 A 
HETATM   19  N   UNL     1       8.278  29.317  58.359  1.00  0.00    -0.271 N 
HETATM   20  H   UNL     1       8.629  28.409  58.065  1.00  0.00     0.189 HD
HETATM   21  N   UNL     1       8.973  30.013  59.271  1.00  0.00    -0.177 NA
HETATM   22  C   UNL     1       8.243  31.121  59.438  1.00  0.00     0.083 A 
HETATM   23  C   UNL     1       7.091  31.127  58.616  1.00  0.00     0.094 A 
HETATM   24 CL   UNL     1       5.915  32.352  58.541  1.00  0.00    -0.079 Cl
BRANCH  22  25
HETATM   25  C   UNL     1       8.630  32.227  60.416  1.00  0.00     0.041 A 
HETATM   26  C   UNL     1       8.205  32.089  61.866  1.00  0.00     0.011 A 
HETATM   27  C   UNL     1       9.639  31.917  61.504  1.00  0.00     0.011 A 
ENDBRANCH  22  25
ENDBRANCH   2  18
TORSDOF 5
ENDMDL
MODEL 3
REMARK VINA RESULT:      -9.0      2.015      2.354
REMARK  5 active torsions:
REMARK  status: ('A' for Active; 'I' for Inactive)
REMARK    1  A    between atoms: C_4  and  C_5 
REMARK    2  A    between atoms: C_8  and  C_9 
REMARK    3  A    between atoms: C_9  and  N_10 
REMARK       I    between atoms: N_10  and  C_11 
REMARK    4  A    between atoms: C_11  and  C_12 
REMARK    5  A    between atoms: C_16  and  C_17 
ROOT
HETATM    1  N   UNL     1       5.979  28.262  57.426  1.00  0.00    -0.348 N 
HETATM    2  C   UNL     1       6.323  29.541  57.072  1.00  0.00     0.271 C 
HETATM    3  O   UNL     1       6.250  29.933  55.909  1.00  0.00    -0.266 OA
HETATM    4  H   UNL     1       5.920  28.010  58.404  1.00  0.00     0.163 HD
ENDROOT
BRANCH   1   5
HETATM    5  C   UNL     1       5.579  27.269  56.453  1.00  0.00     0.201 C 
BRANCH   5   6
HETATM    6  C   UNL     1       6.497  26.099  56.503  1.00  0.00     0.122 A 
HETATM    7  N   UNL     1       6.408  25.075  55.591  1.00  0.00    -0.341 N 
HETATM    8  C   UNL     1       7.397  24.161  55.859  1.00  0.00     0.061 A 
HETATM    9  H   UNL     1       5.716  25.023  54.854  1.00  0.00     0.167 HD
HETATM   10  C   UNL     1       8.056  24.703  56.947  1.00  0.00     0.149 A 
HETATM   11  N   UNL     1       7.489  25.889  57.343  1.00  0.00    -0.243 NA
BRANCH   8  12
HETATM   12  C   UNL     1       7.618  22.945  55.084  1.00  0.00    -0.008 A 
HETATM   13  C   UNL     1       7.738  23.007  53.689  1.00  0.00     0.014 A 
HETATM   14  C   UNL     1       7.940  21.845  52.939  1.00  0.00     0.001 A 
HETATM   15  C   UNL     1       8.031  20.610  53.577  1.00  0.00     0.000 A 
HETATM   16  C   UNL     1       7.919  20.535  54.963  1.00  0.00     0.001 A 
HETATM   17  C   UNL     1       7.712  21.696  55.713  1.00  0.00     0.014 A 
ENDBRANCH   8  12
ENDBRANCH   5   6
ENDBRANCH   1   5
BRANCH   2  18
HETATM   18  C   UNL     1       6.750  30.404  58.137  1.00  0.00     0.141 A 
HETATM   19  N   UNL     1       5.840  31.152  58.837  1.00  0.00    -0.271 N 
HETATM   20  H   UNL     1       4.833  31.172  58.696  1.00  0.00     0.189 HD
HETATM   21  N   UNL     1       6.373  31.928  59.793  1.00  0.00    -0.177 NA
HETATM   22  C   UNL     1       7.683  31.678  59.701  1.00  0.00     0.083 A 
HETATM   23  C   UNL     1       7.973  30.730  58.690  1.00  0.00     0.094 A 
HETATM   24 CL   UNL     1       9.515  30.154  58.264  1.00  0.00    -0.079 Cl
BRANCH  22  25
HETATM   25  C   UNL     1       8.720  32.359  60.589  1.00  0.00     0.041 A 
HETATM   26  C   UNL     1       8.555  32.265  62.094  1.00  0.00     0.011 A 
HETATM   27  C   UNL     1       9.641  31.495  61.428  1.00  0.00     0.011 A 
ENDBRANCH  22  25
ENDBRANCH   2  18
TORSDOF 5
ENDMDL
MODEL 4
REMARK VINA RESULT:      -9.0      2.614      3.676
REMARK  5 active torsions:
REMARK  status: ('A' for Active; 'I' for Inactive)
REMARK    1  A    between atoms: C_4  and  C_5 
REMARK    2  A    between atoms: C_8  and  C_9 
REMARK    3  A    between atoms: C_9  and  N_10 
REMARK       I    between atoms: N_10  and  C_11 
REMARK    4  A    between atoms: C_11  and  C_12 
REMARK    5  A    between atoms: C_16  and  C_17 
ROOT
HETATM    1  N   UNL     1       7.245  29.645  58.272  1.00  0.00    -0.348 N 
HETATM    2  C   UNL     1       8.244  30.405  58.822  1.00  0.00     0.271 C 
HETATM    3  O   UNL     1       9.234  30.739  58.174  1.00  0.00    -0.266 OA
HETATM    4  H   UNL     1       6.384  29.500  58.784  1.00  0.00     0.163 HD
ENDROOT
BRANCH   1   5
HETATM    5  C   UNL     1       7.318  29.124  56.924  1.00  0.00     0.201 C 
BRANCH   5   6
HETATM    6  C   UNL     1       7.505  27.649  56.950  1.00  0.00     0.122 A 
HETATM    7  N   UNL     1       7.512  26.903  55.796  1.00  0.00    -0.341 N 
HETATM    8  C   UNL     1       7.738  25.589  56.123  1.00  0.00     0.061 A 
HETATM    9  H   UNL     1       7.367  27.283  54.868  1.00  0.00     0.167 HD
HETATM   10  C   UNL     1       7.869  25.613  57.499  1.00  0.00     0.149 A 
HETATM   11  N   UNL     1       7.713  26.882  58.001  1.00  0.00    -0.243 NA
BRANCH   8  12
HETATM   12  C   UNL     1       7.826  24.508  55.147  1.00  0.00    -0.008 A 
HETATM   13  C   UNL     1       8.172  23.213  55.554  1.00  0.00     0.014 A 
HETATM   14  C   UNL     1       8.268  22.175  54.624  1.00  0.00     0.001 A 
HETATM   15  C   UNL     1       8.012  22.421  53.277  1.00  0.00     0.000 A 
HETATM   16  C   UNL     1       7.662  23.702  52.859  1.00  0.00     0.001 A 
HETATM   17  C   UNL     1       7.571  24.741  53.789  1.00  0.00     0.014 A 
ENDBRANCH   8  12
ENDBRANCH   5   6
ENDBRANCH   1   5
BRANCH   2  18
HETATM   18  C   UNL     1       8.060  30.809  60.187  1.00  0.00     0.141 A 
HETATM   19  N   UNL     1       8.842  30.283  61.183  1.00  0.00    -0.271 N 
HETATM   20  H   UNL     1       9.590  29.604  61.072  1.00  0.00     0.189 HD
HETATM   21  N   UNL     1       8.555  30.732  62.413  1.00  0.00    -0.177 NA
HETATM   22  C   UNL     1       7.539  31.576  62.207  1.00  0.00     0.083 A 
HETATM   23  C   UNL     1       7.195  31.669  60.836  1.00  0.00     0.094 A 
HETATM   24 CL   UNL     1       5.960  32.628  60.172  1.00  0.00    -0.079 Cl
BRANCH  22  25
HETATM   25  C   UNL     1       6.846  32.331  63.338  1.00  0.00     0.041 A 
HETATM   26  C   UNL     1       7.696  33.177  64.268  1.00  0.00     0.011 A 
HETATM   27  C   UNL     1       6.801  33.846  63.283  1.00  0.00     0.011 A 
ENDBRANCH  22  25
ENDBRANCH   2  18
TORSDOF 5
ENDMDL
MODEL 5
REMARK VINA RESULT:      -8.9      1.844      2.218
REMARK  5 active torsions:
REMARK  status: ('A' for Active; 'I' for Inactive)
REMARK    1  A    between atoms: C_4  and  C_5 
REMARK    2  A    between atoms: C_8  and  C_9 
REMARK    3  A    between atoms: C_9  and  N_10 
REMARK       I    between atoms: N_10  and  C_11 
REMARK    4  A    between atoms: C_11  and  C_12 
REMARK    5  A    between atoms: C_16  and  C_17 
ROOT
HETATM    1  N   UNL     1       5.986  28.181  54.986  1.00  0.00    -0.348 N 
HETATM    2  C   UNL     1       5.771  27.976  56.324  1.00  0.00     0.271 C 
HETATM    3  O   UNL     1       5.018  27.093  56.731  1.00  0.00    -0.266 OA
HETATM    4  H   UNL     1       6.711  28.820  54.685  1.00  0.00     0.163 HD
ENDROOT
BRANCH   1   5
HETATM    5  C   UNL     1       5.293  27.427  53.964  1.00  0.00     0.201 C 
BRANCH   5   6
HETATM    6  C   UNL     1       6.155  26.322  53.464  1.00  0.00     0.122 A 
HETATM    7  N   UNL     1       6.288  25.144  54.158  1.00  0.00    -0.341 N 
HETATM    8  C   UNL     1       7.110  24.305  53.445  1.00  0.00     0.061 A 
HETATM    9  H   UNL     1       5.847  24.949  55.048  1.00  0.00     0.167 HD
HETATM   10  C   UNL     1       7.431  25.042  52.321  1.00  0.00     0.149 A 
HETATM   11  N   UNL     1       6.849  26.285  52.346  1.00  0.00    -0.243 NA
BRANCH   8  12
HETATM   12  C   UNL     1       7.466  22.955  53.870  1.00  0.00    -0.008 A 
HETATM   13  C   UNL     1       7.460  22.616  55.229  1.00  0.00     0.014 A 
HETATM   14  C   UNL     1       7.809  21.327  55.643  1.00  0.00     0.001 A 
HETATM   15  C   UNL     1       8.163  20.364  54.701  1.00  0.00     0.000 A 
HETATM   16  C   UNL     1       8.168  20.686  53.346  1.00  0.00     0.001 A 
HETATM   17  C   UNL     1       7.823  21.976  52.933  1.00  0.00     0.014 A 
ENDBRANCH   8  12
ENDBRANCH   5   6
ENDBRANCH   1   5
BRANCH   2  18
HETATM   18  C   UNL     1       6.491  28.833  57.224  1.00  0.00     0.141 A 
HETATM   19  N   UNL     1       5.849  29.849  57.884  1.00  0.00    -0.271 N 
HETATM   20  H   UNL     1       4.863  30.087  57.821  1.00  0.00     0.189 HD
HETATM   21  N   UNL     1       6.641  30.583  58.680  1.00  0.00    -0.177 NA
HETATM   22  C   UNL     1       7.845  30.025  58.521  1.00  0.00     0.083 A 
HETATM   23  C   UNL     1       7.808  28.925  57.631  1.00  0.00     0.094 A 
HETATM   24 CL   UNL     1       9.128  27.960  57.168  1.00  0.00    -0.079 Cl
BRANCH  22  25
HETATM   25  C   UNL     1       9.097  30.543  59.224  1.00  0.00     0.041 A 
HETATM   26  C   UNL     1       9.983  31.530  58.486  1.00  0.00     0.011 A 
HETATM   27  C   UNL     1       9.153  32.004  59.628  1.00  0.00     0.011 A 
ENDBRANCH  22  25
ENDBRANCH   2  18
TORSDOF 5
ENDMDL
MODEL 6
REMARK VINA RESULT:      -8.8      3.079      9.732
REMARK  5 active torsions:
REMARK  status: ('A' for Active; 'I' for Inactive)
REMARK    1  A    between atoms: C_4  and  C_5 
REMARK    2  A    between atoms: C_8  and  C_9 
REMARK    3  A    between atoms: C_9  and  N_10 
REMARK       I    between atoms: N_10  and  C_11 
REMARK    4  A    between atoms: C_11  and  C_12 
REMARK    5  A    between atoms: C_16  and  C_17 
ROOT
HETATM    1  N   UNL     1       7.468  28.776  57.342  1.00  0.00    -0.348 N 
HETATM    2  C   UNL     1       6.561  27.763  57.170  1.00  0.00     0.271 C 
HETATM    3  O   UNL     1       5.349  27.963  57.229  1.00  0.00    -0.266 OA
HETATM    4  H   UNL     1       8.448  28.610  57.154  1.00  0.00     0.163 HD
ENDROOT
BRANCH   1   5
HETATM    5  C   UNL     1       7.069  30.127  57.674  1.00  0.00     0.201 C 
BRANCH   5   6
HETATM    6  C   UNL     1       7.646  30.526  58.986  1.00  0.00     0.122 A 
HETATM    7  N   UNL     1       7.022  31.443  59.797  1.00  0.00    -0.341 N 
HETATM    8  C   UNL     1       7.759  31.585  60.948  1.00  0.00     0.061 A 
HETATM    9  H   UNL     1       6.163  31.924  59.563  1.00  0.00     0.167 HD
HETATM   10  C   UNL     1       8.817  30.714  60.767  1.00  0.00     0.149 A 
HETATM   11  N   UNL     1       8.745  30.075  59.554  1.00  0.00    -0.243 NA
BRANCH   8  12
HETATM   12  C   UNL     1       7.391  32.468  62.049  1.00  0.00    -0.008 A 
HETATM   13  C   UNL     1       6.439  33.478  61.860  1.00  0.00     0.014 A 
HETATM   14  C   UNL     1       6.089  34.334  62.909  1.00  0.00     0.001 A 
HETATM   15  C   UNL     1       6.683  34.182  64.159  1.00  0.00     0.000 A 
HETATM   16  C   UNL     1       7.627  33.178  64.363  1.00  0.00     0.001 A 
HETATM   17  C   UNL     1       7.980  32.327  63.314  1.00  0.00     0.014 A 
ENDBRANCH   8  12
ENDBRANCH   5   6
ENDBRANCH   1   5
BRANCH   2  18
HETATM   18  C   UNL     1       7.102  26.462  56.895  1.00  0.00     0.141 A 
HETATM   19  N   UNL     1       8.229  26.023  57.540  1.00  0.00    -0.271 N 
HETATM   20  H   UNL     1       8.764  26.530  58.240  1.00  0.00     0.189 HD
HETATM   21  N   UNL     1       8.637  24.798  57.177  1.00  0.00    -0.177 NA
HETATM   22  C   UNL     1       7.743  24.434  56.253  1.00  0.00     0.083 A 
HETATM   23  C   UNL     1       6.759  25.430  56.043  1.00  0.00     0.094 A 
HETATM   24 CL   UNL     1       5.459  25.346  54.951  1.00  0.00    -0.079 Cl
BRANCH  22  25
HETATM   25  C   UNL     1       7.809  23.097  55.519  1.00  0.00     0.041 A 
HETATM   26  C   UNL     1       8.318  23.082  54.090  1.00  0.00     0.011 A 
HETATM   27  C   UNL     1       9.169  22.521  55.176  1.00  0.00     0.011 A 
ENDBRANCH  22  25
ENDBRANCH   2  18
TORSDOF 5
ENDMDL
MODEL 7
REMARK VINA RESULT:      -8.8      2.263      8.952
REMARK  5 active torsions:
REMARK  status: ('A' for Active; 'I' for Inactive)
REMARK    1  A    between atoms: C_4  and  C_5 
REMARK    2  A    between atoms: C_8  and  C_9 
REMARK    3  A    between atoms: C_9  and  N_10 
REMARK       I    between atoms: N_10  and  C_11 
REMARK    4  A    between atoms: C_11  and  C_12 
REMARK    5  A    between atoms: C_16  and  C_17 
ROOT
HETATM    1  N   UNL     1       6.437  27.418  55.862  1.00  0.00    -0.348 N 
HETATM    2  C   UNL     1       7.071  26.951  54.741  1.00  0.00     0.271 C 
HETATM    3  O   UNL     1       7.545  27.713  53.900  1.00  0.00    -0.266 OA
HETATM    4  H   UNL     1       6.178  26.773  56.598  1.00  0.00     0.163 HD
ENDROOT
BRANCH   1   5
HETATM    5  C   UNL     1       6.216  28.828  56.099  1.00  0.00     0.201 C 
BRANCH   5   6
HETATM    6  C   UNL     1       7.249  29.362  57.028  1.00  0.00     0.122 A 
HETATM    7  N   UNL     1       6.907  29.981  58.205  1.00  0.00    -0.341 N 
HETATM    8  C   UNL     1       8.057  30.335  58.867  1.00  0.00     0.061 A 
HETATM    9  H   UNL     1       5.955  30.143  58.512  1.00  0.00     0.167 HD
HETATM   10  C   UNL     1       9.064  29.888  58.031  1.00  0.00     0.149 A 
HETATM   11  N   UNL     1       8.558  29.301  56.898  1.00  0.00    -0.243 NA
BRANCH   8  12
HETATM   12  C   UNL     1       8.081  31.002  60.164  1.00  0.00    -0.008 A 
HETATM   13  C   UNL     1       7.241  32.094  60.415  1.00  0.00     0.014 A 
HETATM   14  C   UNL     1       7.266  32.744  61.652  1.00  0.00     0.001 A 
HETATM   15  C   UNL     1       8.128  32.303  62.653  1.00  0.00     0.000 A 
HETATM   16  C   UNL     1       8.965  31.215  62.420  1.00  0.00     0.001 A 
HETATM   17  C   UNL     1       8.943  30.569  61.181  1.00  0.00     0.014 A 
ENDBRANCH   8  12
ENDBRANCH   5   6
ENDBRANCH   1   5
BRANCH   2  18
HETATM   18  C   UNL     1       7.173  25.525  54.612  1.00  0.00     0.141 A 
HETATM   19  N   UNL     1       6.975  24.710  55.697  1.00  0.00    -0.271 N 
HETATM   20  H   UNL     1       6.743  25.003  56.642  1.00  0.00     0.189 HD
HETATM   21  N   UNL     1       7.117  23.400  55.444  1.00  0.00    -0.177 NA
HETATM   22  C   UNL     1       7.428  23.368  54.144  1.00  0.00     0.083 A 
HETATM   23  C   UNL     1       7.469  24.663  53.574  1.00  0.00     0.094 A 
HETATM   24 CL   UNL     1       7.830  25.040  51.957  1.00  0.00    -0.079 Cl
BRANCH  22  25
HETATM   25  C   UNL     1       7.711  22.069  53.393  1.00  0.00     0.041 A 
HETATM   26  C   UNL     1       9.064  21.408  53.580  1.00  0.00     0.011 A 
HETATM   27  C   UNL     1       7.855  20.785  54.187  1.00  0.00     0.011 A 
ENDBRANCH  22  25
ENDBRANCH   2  18
TORSDOF 5
ENDMDL
MODEL 8
REMARK VINA RESULT:      -8.6      4.334      6.783
REMARK  5 active torsions:
REMARK  status: ('A' for Active; 'I' for Inactive)
REMARK    1  A    between atoms: C_4  and  C_5 
REMARK    2  A    between atoms: C_8  and  C_9 
REMARK    3  A    between atoms: C_9  and  N_10 
REMARK       I    between atoms: N_10  and  C_11 
REMARK    4  A    between atoms: C_11  and  C_12 
REMARK    5  A    between atoms: C_16  and  C_17 
ROOT
HETATM    1  N   UNL     1       5.168  27.160  54.402  1.00  0.00    -0.348 N 
HETATM    2  C   UNL     1       6.067  27.865  53.645  1.00  0.00     0.271 C 
HETATM    3  O   UNL     1       7.093  28.338  54.131  1.00  0.00    -0.266 OA
HETATM    4  H   UNL     1       4.406  26.670  53.951  1.00  0.00     0.163 HD
ENDROOT
BRANCH   1   5
HETATM    5  C   UNL     1       5.324  26.986  55.830  1.00  0.00     0.201 C 
BRANCH   5   6
HETATM    6  C   UNL     1       6.166  25.792  56.114  1.00  0.00     0.122 A 
HETATM    7  N   UNL     1       6.319  24.784  55.194  1.00  0.00    -0.341 N 
HETATM    8  C   UNL     1       7.171  23.841  55.713  1.00  0.00     0.061 A 
HETATM    9  H   UNL     1       5.866  24.761  54.288  1.00  0.00     0.167 HD
HETATM   10  C   UNL     1       7.503  24.350  56.954  1.00  0.00     0.149 A 
HETATM   11  N   UNL     1       6.872  25.545  57.198  1.00  0.00    -0.243 NA
BRANCH   8  12
HETATM   12  C   UNL     1       7.579  22.632  55.006  1.00  0.00    -0.008 A 
HETATM   13  C   UNL     1       7.863  21.458  55.717  1.00  0.00     0.014 A 
HETATM   14  C   UNL     1       8.263  20.298  55.047  1.00  0.00     0.001 A 
HETATM   15  C   UNL     1       8.378  20.300  53.659  1.00  0.00     0.000 A 
HETATM   16  C   UNL     1       8.094  21.458  52.939  1.00  0.00     0.001 A 
HETATM   17  C   UNL     1       7.698  22.618  53.609  1.00  0.00     0.014 A 
ENDBRANCH   8  12
ENDBRANCH   5   6
ENDBRANCH   1   5
BRANCH   2  18
HETATM   18  C   UNL     1       5.758  28.001  52.249  1.00  0.00     0.141 A 
HETATM   19  N   UNL     1       5.792  29.230  51.643  1.00  0.00    -0.271 N 
HETATM   20  H   UNL     1       6.030  30.116  52.080  1.00  0.00     0.189 HD
HETATM   21  N   UNL     1       5.465  29.219  50.342  1.00  0.00    -0.177 NA
HETATM   22  C   UNL     1       5.201  27.931  50.099  1.00  0.00     0.083 A 
HETATM   23  C   UNL     1       5.375  27.127  51.251  1.00  0.00     0.094 A 
HETATM   24 CL   UNL     1       5.133  25.447  51.351  1.00  0.00    -0.079 Cl
BRANCH  22  25
HETATM   25  C   UNL     1       4.755  27.421  48.732  1.00  0.00     0.041 A 
HETATM   26  C   UNL     1       3.267  27.340  48.441  1.00  0.00     0.011 A 
HETATM   27  C   UNL     1       4.087  28.390  47.775  1.00  0.00     0.011 A 
ENDBRANCH  22  25
ENDBRANCH   2  18
TORSDOF 5
ENDMDL
MODEL 9
REMARK VINA RESULT:      -8.5      4.948      7.958
REMARK  5 active torsions:
REMARK  status: ('A' for Active; 'I' for Inactive)
REMARK    1  A    between atoms: C_4  and  C_5 
REMARK    2  A    between atoms: C_8  and  C_9 
REMARK    3  A    between atoms: C_9  and  N_10 
REMARK       I    between atoms: N_10  and  C_11 
REMARK    4  A    between atoms: C_11  and  C_12 
REMARK    5  A    between atoms: C_16  and  C_17 
ROOT
HETATM    1  N   UNL     1       5.712  27.976  52.306  1.00  0.00    -0.348 N 
HETATM    2  C   UNL     1       5.481  27.172  51.221  1.00  0.00     0.271 C 
HETATM    3  O   UNL     1       6.148  26.161  51.010  1.00  0.00    -0.266 OA
HETATM    4  H   UNL     1       5.063  28.721  52.528  1.00  0.00     0.163 HD
ENDROOT
BRANCH   1   5
HETATM    5  C   UNL     1       6.796  27.734  53.234  1.00  0.00     0.201 C 
BRANCH   5   6
HETATM    6  C   UNL     1       6.575  26.456  53.964  1.00  0.00     0.122 A 
HETATM    7  N   UNL     1       7.225  25.301  53.603  1.00  0.00    -0.341 N 
HETATM    8  C   UNL     1       6.855  24.300  54.468  1.00  0.00     0.061 A 
HETATM    9  H   UNL     1       7.864  25.223  52.822  1.00  0.00     0.167 HD
HETATM   10  C   UNL     1       5.981  24.927  55.337  1.00  0.00     0.149 A 
HETATM   11  N   UNL     1       5.806  26.250  55.012  1.00  0.00    -0.243 NA
BRANCH   8  12
HETATM   12  C   UNL     1       7.360  22.934  54.401  1.00  0.00    -0.008 A 
HETATM   13  C   UNL     1       7.544  22.188  55.572  1.00  0.00     0.014 A 
HETATM   14  C   UNL     1       8.036  20.881  55.515  1.00  0.00     0.001 A 
HETATM   15  C   UNL     1       8.343  20.305  54.284  1.00  0.00     0.000 A 
HETATM   16  C   UNL     1       8.161  21.033  53.112  1.00  0.00     0.001 A 
HETATM   17  C   UNL     1       7.673  22.341  53.169  1.00  0.00     0.014 A 
ENDBRANCH   8  12
ENDBRANCH   5   6
ENDBRANCH   1   5
BRANCH   2  18
HETATM   18  C   UNL     1       4.402  27.562  50.357  1.00  0.00     0.141 A 
HETATM   19  N   UNL     1       3.335  28.269  50.847  1.00  0.00    -0.271 N 
HETATM   20  H   UNL     1       3.202  28.580  51.806  1.00  0.00     0.189 HD
HETATM   21  N   UNL     1       2.390  28.554  49.939  1.00  0.00    -0.177 NA
HETATM   22  C   UNL     1       2.861  28.000  48.817  1.00  0.00     0.083 A 
HETATM   23  C   UNL     1       4.115  27.376  49.018  1.00  0.00     0.094 A 
HETATM   24 CL   UNL     1       5.034  26.561  47.843  1.00  0.00    -0.079 Cl
BRANCH  22  25
HETATM   25  C   UNL     1       2.105  28.044  47.492  1.00  0.00     0.041 A 
HETATM   26  C   UNL     1       1.628  26.736  46.889  1.00  0.00     0.011 A 
HETATM   27  C   UNL     1       0.634  27.675  47.479  1.00  0.00     0.011 A 
ENDBRANCH  22  25
ENDBRANCH   2  18
TORSDOF 5
ENDMDL
MODEL 10
REMARK VINA RESULT:      -8.4      2.470      9.667
REMARK  5 active torsions:
REMARK  status: ('A' for Active; 'I' for Inactive)
REMARK    1  A    between atoms: C_4  and  C_5 
REMARK    2  A    between atoms: C_8  and  C_9 
REMARK    3  A    between atoms: C_9  and  N_10 
REMARK       I    between atoms: N_10  and  C_11 
REMARK    4  A    between atoms: C_11  and  C_12 
REMARK    5  A    between atoms: C_16  and  C_17 
ROOT
HETATM    1  N   UNL     1       8.438  29.518  57.404  1.00  0.00    -0.348 N 
HETATM    2  C   UNL     1       8.825  29.232  56.121  1.00  0.00     0.271 C 
HETATM    3  O   UNL     1       9.792  29.783  55.599  1.00  0.00    -0.266 OA
HETATM    4  H   UNL     1       7.726  28.955  57.851  1.00  0.00     0.163 HD
ENDROOT
BRANCH   1   5
HETATM    5  C   UNL     1       9.089  30.533  58.204  1.00  0.00     0.201 C 
BRANCH   5   6
HETATM    6  C   UNL     1       8.077  31.329  58.950  1.00  0.00     0.122 A 
HETATM    7  N   UNL     1       8.274  31.696  60.259  1.00  0.00    -0.341 N 
HETATM    8  C   UNL     1       7.201  32.447  60.671  1.00  0.00     0.061 A 
HETATM    9  H   UNL     1       9.084  31.440  60.810  1.00  0.00     0.167 HD
HETATM   10  C   UNL     1       6.392  32.502  59.551  1.00  0.00     0.149 A 
HETATM   11  N   UNL     1       6.934  31.802  58.501  1.00  0.00    -0.243 NA
BRANCH   8  12
HETATM   12  C   UNL     1       7.071  33.024  62.005  1.00  0.00    -0.008 A 
HETATM   13  C   UNL     1       7.826  32.519  63.071  1.00  0.00     0.014 A 
HETATM   14  C   UNL     1       7.699  33.061  64.354  1.00  0.00     0.001 A 
HETATM   15  C   UNL     1       6.822  34.118  64.580  1.00  0.00     0.000 A 
HETATM   16  C   UNL     1       6.069  34.634  63.528  1.00  0.00     0.001 A 
HETATM   17  C   UNL     1       6.192  34.089  62.247  1.00  0.00     0.014 A 
ENDBRANCH   8  12
ENDBRANCH   5   6
ENDBRANCH   1   5
BRANCH   2  18
HETATM   18  C   UNL     1       8.055  28.238  55.428  1.00  0.00     0.141 A 
HETATM   19  N   UNL     1       7.593  28.471  54.159  1.00  0.00    -0.271 N 
HETATM   20  H   UNL     1       7.741  29.310  53.603  1.00  0.00     0.189 HD
HETATM   21  N   UNL     1       6.873  27.468  53.634  1.00  0.00    -0.177 NA
HETATM   22  C   UNL     1       6.861  26.553  54.608  1.00  0.00     0.083 A 
HETATM   23  C   UNL     1       7.588  26.977  55.746  1.00  0.00     0.094 A 
HETATM   24 CL   UNL     1       7.803  26.102  57.187  1.00  0.00    -0.079 Cl
BRANCH  22  25
HETATM   25  C   UNL     1       6.130  25.219  54.481  1.00  0.00     0.041 A 
HETATM   26  C   UNL     1       6.425  24.346  53.275  1.00  0.00     0.011 A 
HETATM   27  C   UNL     1       6.927  23.936  54.616  1.00  0.00     0.011 A 
ENDBRANCH  22  25
ENDBRANCH   2  18
TORSDOF 5
ENDMDL
