MODEL 1
REMARK VINA RESULT:      -9.8      0.000      0.000
REMARK  4 active torsions:
REMARK  status: ('A' for Active; 'I' for Inactive)
REMARK    1  A    between atoms: C_3  and  C_4 
REMARK    2  A    between atoms: C_15  and  C_16 
REMARK       I    between atoms: C_16  and  N_17 
REMARK    3  A    between atoms: N_17  and  C_18 
REMARK    4  A    between atoms: C_18  and  C_19 
ROOT
HETATM    1  C   UNL     1       5.152  26.137  50.554  1.00  0.00     0.055 C 
HETATM    2  C   UNL     1       5.071  26.929  51.825  1.00  0.00     0.024 A 
HETATM    3  C   UNL     1       5.638  26.630  53.007  1.00  0.00     0.096 A 
HETATM    4  O   UNL     1       5.582  27.420  54.141  1.00  0.00    -0.307 OA
HETATM    5  C   UNL     1       4.857  28.585  54.121  1.00  0.00     0.106 A 
HETATM    6  C   UNL     1       4.175  28.990  52.972  1.00  0.00     0.050 A 
HETATM    7  C   UNL     1       4.277  28.179  51.749  1.00  0.00     0.193 A 
HETATM    8  O   UNL     1       3.719  28.526  50.713  1.00  0.00    -0.287 OA
HETATM    9  C   UNL     1       4.791  29.375  55.281  1.00  0.00     0.066 A 
HETATM   10  C   UNL     1       4.002  30.542  55.263  1.00  0.00     0.020 A 
HETATM   11  C   UNL     1       3.310  30.930  54.116  1.00  0.00     0.002 A 
HETATM   12  C   UNL     1       3.403  30.157  52.964  1.00  0.00     0.018 A 
ENDROOT
BRANCH   9  13
HETATM   13  C   UNL     1       5.527  29.093  56.556  1.00  0.00     0.255 C 
HETATM   14  N   UNL     1       6.740  28.450  56.475  1.00  0.00    -0.349 N 
HETATM   15  H   UNL     1       7.069  28.106  55.581  1.00  0.00     0.163 HD
HETATM   16  O   UNL     1       5.058  29.467  57.627  1.00  0.00    -0.268 OA
BRANCH  14  17
HETATM   17  C   UNL     1       7.563  28.193  57.644  1.00  0.00     0.114 C 
HETATM   18  C   UNL     1       8.054  26.743  57.662  1.00  0.00     0.037 C 
BRANCH  17  19
HETATM   19  C   UNL     1       8.668  29.232  57.702  1.00  0.00    -0.033 A 
HETATM   20  C   UNL     1       9.787  29.202  56.863  1.00  0.00     0.028 A 
HETATM   21  C   UNL     1      10.729  30.215  56.969  1.00  0.00     0.116 A 
HETATM   22  N   UNL     1      10.627  31.254  57.823  1.00  0.00    -0.273 NA
HETATM   23  C   UNL     1       9.537  31.276  58.617  1.00  0.00     0.116 A 
HETATM   24  C   UNL     1       8.546  30.308  58.590  1.00  0.00     0.028 A 
ENDBRANCH  17  19
ENDBRANCH  14  17
ENDBRANCH   9  13
BRANCH   3  25
HETATM   25  C   UNL     1       6.399  25.392  53.228  1.00  0.00    -0.002 A 
HETATM   26  C   UNL     1       6.202  24.636  54.389  1.00  0.00     0.014 A 
HETATM   27  C   UNL     1       6.937  23.469  54.600  1.00  0.00     0.001 A 
HETATM   28  C   UNL     1       7.864  23.042  53.650  1.00  0.00     0.000 A 
HETATM   29  C   UNL     1       8.056  23.782  52.485  1.00  0.00     0.001 A 
HETATM   30  C   UNL     1       7.326  24.952  52.272  1.00  0.00     0.014 A 
ENDBRANCH   3  25
TORSDOF 4
ENDMDL
MODEL 2
REMARK VINA RESULT:      -9.5      3.585      8.049
REMARK  4 active torsions:
REMARK  status: ('A' for Active; 'I' for Inactive)
REMARK    1  A    between atoms: C_3  and  C_4 
REMARK    2  A    between atoms: C_15  and  C_16 
REMARK       I    between atoms: C_16  and  N_17 
REMARK    3  A    between atoms: N_17  and  C_18 
REMARK    4  A    between atoms: C_18  and  C_19 
ROOT
HETATM    1  C   UNL     1       3.070  33.077  60.601  1.00  0.00     0.055 C 
HETATM    2  C   UNL     1       4.512  32.702  60.436  1.00  0.00     0.024 A 
HETATM    3  C   UNL     1       5.121  32.290  59.309  1.00  0.00     0.096 A 
HETATM    4  O   UNL     1       6.469  32.007  59.190  1.00  0.00    -0.307 OA
HETATM    5  C   UNL     1       7.280  32.088  60.293  1.00  0.00     0.106 A 
HETATM    6  C   UNL     1       6.768  32.455  61.539  1.00  0.00     0.050 A 
HETATM    7  C   UNL     1       5.345  32.809  61.658  1.00  0.00     0.193 A 
HETATM    8  O   UNL     1       4.871  33.169  62.730  1.00  0.00    -0.287 OA
HETATM    9  C   UNL     1       8.646  31.783  60.169  1.00  0.00     0.066 A 
HETATM   10  C   UNL     1       9.458  31.821  61.320  1.00  0.00     0.020 A 
HETATM   11  C   UNL     1       8.934  32.172  62.563  1.00  0.00     0.002 A 
HETATM   12  C   UNL     1       7.587  32.498  62.673  1.00  0.00     0.018 A 
ENDROOT
BRANCH   9  13
HETATM   13  C   UNL     1       9.336  31.443  58.883  1.00  0.00     0.255 C 
HETATM   14  N   UNL     1       8.998  30.266  58.257  1.00  0.00    -0.349 N 
HETATM   15  H   UNL     1       8.365  29.619  58.710  1.00  0.00     0.163 HD
HETATM   16  O   UNL     1      10.151  32.225  58.401  1.00  0.00    -0.268 OA
BRANCH  14  17
HETATM   17  C   UNL     1       9.557  29.879  56.974  1.00  0.00     0.114 C 
HETATM   18  C   UNL     1      11.061  29.617  57.086  1.00  0.00     0.037 C 
BRANCH  17  19
HETATM   19  C   UNL     1       8.755  28.715  56.421  1.00  0.00    -0.033 A 
HETATM   20  C   UNL     1       8.371  27.618  57.197  1.00  0.00     0.028 A 
HETATM   21  C   UNL     1       7.611  26.617  56.610  1.00  0.00     0.116 A 
HETATM   22  N   UNL     1       7.191  26.641  55.328  1.00  0.00    -0.273 NA
HETATM   23  C   UNL     1       7.558  27.712  54.596  1.00  0.00     0.116 A 
HETATM   24  C   UNL     1       8.322  28.757  55.090  1.00  0.00     0.028 A 
ENDBRANCH  17  19
ENDBRANCH  14  17
ENDBRANCH   9  13
BRANCH   3  25
HETATM   25  C   UNL     1       4.395  32.086  58.048  1.00  0.00    -0.002 A 
HETATM   26  C   UNL     1       3.770  30.864  57.779  1.00  0.00     0.014 A 
HETATM   27  C   UNL     1       3.094  30.672  56.573  1.00  0.00     0.001 A 
HETATM   28  C   UNL     1       3.027  31.701  55.634  1.00  0.00     0.000 A 
HETATM   29  C   UNL     1       3.636  32.926  55.900  1.00  0.00     0.001 A 
HETATM   30  C   UNL     1       4.316  33.120  57.103  1.00  0.00     0.014 A 
ENDBRANCH   3  25
TORSDOF 4
ENDMDL
MODEL 3
REMARK VINA RESULT:      -9.2      2.413      5.971
REMARK  4 active torsions:
REMARK  status: ('A' for Active; 'I' for Inactive)
REMARK    1  A    between atoms: C_3  and  C_4 
REMARK    2  A    between atoms: C_15  and  C_16 
REMARK       I    between atoms: C_16  and  N_17 
REMARK    3  A    between atoms: N_17  and  C_18 
REMARK    4  A    between atoms: C_18  and  C_19 
ROOT
HETATM    1  C   UNL     1       8.427  25.927  57.122  1.00  0.00     0.055 C 
HETATM    2  C   UNL     1       7.579  27.039  56.582  1.00  0.00     0.024 A 
HETATM    3  C   UNL     1       6.961  27.085  55.389  1.00  0.00     0.096 A 
HETATM    4  O   UNL     1       6.142  28.111  54.954  1.00  0.00    -0.307 OA
HETATM    5  C   UNL     1       5.957  29.215  55.747  1.00  0.00     0.106 A 
HETATM    6  C   UNL     1       6.582  29.321  56.992  1.00  0.00     0.050 A 
HETATM    7  C   UNL     1       7.411  28.208  57.480  1.00  0.00     0.193 A 
HETATM    8  O   UNL     1       7.944  28.254  58.583  1.00  0.00    -0.287 OA
HETATM    9  C   UNL     1       5.136  30.261  55.293  1.00  0.00     0.066 A 
HETATM   10  C   UNL     1       4.995  31.410  56.095  1.00  0.00     0.020 A 
HETATM   11  C   UNL     1       5.637  31.515  57.329  1.00  0.00     0.002 A 
HETATM   12  C   UNL     1       6.426  30.464  57.783  1.00  0.00     0.018 A 
ENDROOT
BRANCH   9  13
HETATM   13  C   UNL     1       4.356  30.246  54.014  1.00  0.00     0.255 C 
HETATM   14  N   UNL     1       5.050  30.143  52.832  1.00  0.00    -0.349 N 
HETATM   15  H   UNL     1       6.062  30.166  52.839  1.00  0.00     0.163 HD
HETATM   16  O   UNL     1       3.129  30.289  54.047  1.00  0.00    -0.268 OA
BRANCH  14  17
HETATM   17  C   UNL     1       4.384  30.050  51.544  1.00  0.00     0.114 C 
HETATM   18  C   UNL     1       4.867  31.150  50.595  1.00  0.00     0.037 C 
BRANCH  17  19
HETATM   19  C   UNL     1       4.550  28.640  51.008  1.00  0.00    -0.033 A 
HETATM   20  C   UNL     1       4.755  27.530  51.833  1.00  0.00     0.028 A 
HETATM   21  C   UNL     1       4.863  26.275  51.250  1.00  0.00     0.116 A 
HETATM   22  N   UNL     1       4.759  26.046  49.925  1.00  0.00    -0.273 NA
HETATM   23  C   UNL     1       4.548  27.124  49.144  1.00  0.00     0.116 A 
HETATM   24  C   UNL     1       4.434  28.417  49.630  1.00  0.00     0.028 A 
ENDBRANCH  17  19
ENDBRANCH  14  17
ENDBRANCH   9  13
BRANCH   3  25
HETATM   25  C   UNL     1       7.097  26.019  54.387  1.00  0.00    -0.002 A 
HETATM   26  C   UNL     1       6.376  24.827  54.517  1.00  0.00     0.014 A 
HETATM   27  C   UNL     1       6.521  23.811  53.569  1.00  0.00     0.001 A 
HETATM   28  C   UNL     1       7.376  23.984  52.481  1.00  0.00     0.000 A 
HETATM   29  C   UNL     1       8.087  25.174  52.337  1.00  0.00     0.001 A 
HETATM   30  C   UNL     1       7.948  26.189  53.285  1.00  0.00     0.014 A 
ENDBRANCH   3  25
TORSDOF 4
ENDMDL
MODEL 4
REMARK VINA RESULT:      -9.1      1.962      5.011
REMARK  4 active torsions:
REMARK  status: ('A' for Active; 'I' for Inactive)
REMARK    1  A    between atoms: C_3  and  C_4 
REMARK    2  A    between atoms: C_15  and  C_16 
REMARK       I    between atoms: C_16  and  N_17 
REMARK    3  A    between atoms: N_17  and  C_18 
REMARK    4  A    between atoms: C_18  and  C_19 
ROOT
HETATM    1  C   UNL     1       5.050  24.981  51.746  1.00  0.00     0.055 C 
HETATM    2  C   UNL     1       5.861  25.192  52.990  1.00  0.00     0.024 A 
HETATM    3  C   UNL     1       5.961  26.320  53.715  1.00  0.00     0.096 A 
HETATM    4  O   UNL     1       6.679  26.453  54.889  1.00  0.00    -0.307 OA
HETATM    5  C   UNL     1       7.408  25.391  55.363  1.00  0.00     0.106 A 
HETATM    6  C   UNL     1       7.435  24.173  54.680  1.00  0.00     0.050 A 
HETATM    7  C   UNL     1       6.628  24.012  53.459  1.00  0.00     0.193 A 
HETATM    8  O   UNL     1       6.602  22.945  52.856  1.00  0.00    -0.287 OA
HETATM    9  C   UNL     1       8.149  25.537  56.547  1.00  0.00     0.066 A 
HETATM   10  C   UNL     1       8.932  24.456  56.996  1.00  0.00     0.020 A 
HETATM   11  C   UNL     1       8.966  23.249  56.298  1.00  0.00     0.002 A 
HETATM   12  C   UNL     1       8.209  23.103  55.141  1.00  0.00     0.018 A 
ENDROOT
BRANCH   9  13
HETATM   13  C   UNL     1       8.154  26.762  57.411  1.00  0.00     0.255 C 
HETATM   14  N   UNL     1       8.725  27.907  56.909  1.00  0.00    -0.349 N 
HETATM   15  H   UNL     1       9.202  27.882  56.016  1.00  0.00     0.163 HD
HETATM   16  O   UNL     1       7.624  26.730  58.519  1.00  0.00    -0.268 OA
BRANCH  14  17
HETATM   17  C   UNL     1       8.719  29.163  57.638  1.00  0.00     0.114 C 
HETATM   18  C   UNL     1       9.997  29.962  57.367  1.00  0.00     0.037 C 
BRANCH  17  19
HETATM   19  C   UNL     1       7.434  29.907  57.321  1.00  0.00    -0.033 A 
HETATM   20  C   UNL     1       6.723  29.728  56.131  1.00  0.00     0.028 A 
HETATM   21  C   UNL     1       5.540  30.429  55.947  1.00  0.00     0.116 A 
HETATM   22  N   UNL     1       5.009  31.267  56.861  1.00  0.00    -0.273 NA
HETATM   23  C   UNL     1       5.699  31.420  58.009  1.00  0.00     0.116 A 
HETATM   24  C   UNL     1       6.892  30.770  58.283  1.00  0.00     0.028 A 
ENDBRANCH  17  19
ENDBRANCH  14  17
ENDBRANCH   9  13
BRANCH   3  25
HETATM   25  C   UNL     1       5.299  27.572  53.322  1.00  0.00    -0.002 A 
HETATM   26  C   UNL     1       4.032  27.892  53.824  1.00  0.00     0.014 A 
HETATM   27  C   UNL     1       3.402  29.076  53.436  1.00  0.00     0.001 A 
HETATM   28  C   UNL     1       4.036  29.953  52.557  1.00  0.00     0.000 A 
HETATM   29  C   UNL     1       5.304  29.648  52.063  1.00  0.00     0.001 A 
HETATM   30  C   UNL     1       5.935  28.463  52.446  1.00  0.00     0.014 A 
ENDBRANCH   3  25
TORSDOF 4
ENDMDL
MODEL 5
REMARK VINA RESULT:      -9.1      5.030      9.369
REMARK  4 active torsions:
REMARK  status: ('A' for Active; 'I' for Inactive)
REMARK    1  A    between atoms: C_3  and  C_4 
REMARK    2  A    between atoms: C_15  and  C_16 
REMARK       I    between atoms: C_16  and  N_17 
REMARK    3  A    between atoms: N_17  and  C_18 
REMARK    4  A    between atoms: C_18  and  C_19 
ROOT
HETATM    1  C   UNL     1       7.478  33.776  64.685  1.00  0.00     0.055 C 
HETATM    2  C   UNL     1       6.467  33.594  63.593  1.00  0.00     0.024 A 
HETATM    3  C   UNL     1       6.590  32.838  62.487  1.00  0.00     0.096 A 
HETATM    4  O   UNL     1       5.607  32.656  61.532  1.00  0.00    -0.307 OA
HETATM    5  C   UNL     1       4.414  33.323  61.650  1.00  0.00     0.106 A 
HETATM    6  C   UNL     1       4.172  34.182  62.724  1.00  0.00     0.050 A 
HETATM    7  C   UNL     1       5.195  34.336  63.770  1.00  0.00     0.193 A 
HETATM    8  O   UNL     1       4.999  35.055  64.744  1.00  0.00    -0.287 OA
HETATM    9  C   UNL     1       3.425  33.147  60.668  1.00  0.00     0.066 A 
HETATM   10  C   UNL     1       2.224  33.875  60.774  1.00  0.00     0.020 A 
HETATM   11  C   UNL     1       1.998  34.745  61.841  1.00  0.00     0.002 A 
HETATM   12  C   UNL     1       2.970  34.893  62.824  1.00  0.00     0.018 A 
ENDROOT
BRANCH   9  13
HETATM   13  C   UNL     1       3.528  32.206  59.505  1.00  0.00     0.255 C 
HETATM   14  N   UNL     1       4.492  32.451  58.557  1.00  0.00    -0.349 N 
HETATM   15  H   UNL     1       5.050  33.295  58.611  1.00  0.00     0.163 HD
HETATM   16  O   UNL     1       2.785  31.231  59.441  1.00  0.00    -0.268 OA
BRANCH  14  17
HETATM   17  C   UNL     1       4.719  31.562  57.431  1.00  0.00     0.114 C 
HETATM   18  C   UNL     1       4.880  32.353  56.129  1.00  0.00     0.037 C 
BRANCH  17  19
HETATM   19  C   UNL     1       5.884  30.646  57.757  1.00  0.00    -0.033 A 
HETATM   20  C   UNL     1       6.967  31.042  58.548  1.00  0.00     0.028 A 
HETATM   21  C   UNL     1       7.970  30.122  58.818  1.00  0.00     0.116 A 
HETATM   22  N   UNL     1       7.961  28.845  58.382  1.00  0.00    -0.273 NA
HETATM   23  C   UNL     1       6.904  28.474  57.631  1.00  0.00     0.116 A 
HETATM   24  C   UNL     1       5.858  29.322  57.302  1.00  0.00     0.028 A 
ENDBRANCH  17  19
ENDBRANCH  14  17
ENDBRANCH   9  13
BRANCH   3  25
HETATM   25  C   UNL     1       7.822  32.103  62.166  1.00  0.00    -0.002 A 
HETATM   26  C   UNL     1       8.812  32.692  61.372  1.00  0.00     0.014 A 
HETATM   27  C   UNL     1       9.974  31.985  61.059  1.00  0.00     0.001 A 
HETATM   28  C   UNL     1      10.160  30.691  61.544  1.00  0.00     0.000 A 
HETATM   29  C   UNL     1       9.184  30.102  62.346  1.00  0.00     0.001 A 
HETATM   30  C   UNL     1       8.019  30.805  62.658  1.00  0.00     0.014 A 
ENDBRANCH   3  25
TORSDOF 4
ENDMDL
MODEL 6
REMARK VINA RESULT:      -9.1      1.621      2.128
REMARK  4 active torsions:
REMARK  status: ('A' for Active; 'I' for Inactive)
REMARK    1  A    between atoms: C_3  and  C_4 
REMARK    2  A    between atoms: C_15  and  C_16 
REMARK       I    between atoms: C_16  and  N_17 
REMARK    3  A    between atoms: N_17  and  C_18 
REMARK    4  A    between atoms: C_18  and  C_19 
ROOT
HETATM    1  C   UNL     1       5.007  25.844  51.186  1.00  0.00     0.055 C 
HETATM    2  C   UNL     1       5.227  26.680  52.411  1.00  0.00     0.024 A 
HETATM    3  C   UNL     1       5.986  26.374  53.479  1.00  0.00     0.096 A 
HETATM    4  O   UNL     1       6.204  27.201  54.565  1.00  0.00    -0.307 OA
HETATM    5  C   UNL     1       5.576  28.419  54.628  1.00  0.00     0.106 A 
HETATM    6  C   UNL     1       4.719  28.841  53.609  1.00  0.00     0.050 A 
HETATM    7  C   UNL     1       4.527  27.987  52.427  1.00  0.00     0.193 A 
HETATM    8  O   UNL     1       3.809  28.344  51.499  1.00  0.00    -0.287 OA
HETATM    9  C   UNL     1       5.789  29.248  55.742  1.00  0.00     0.066 A 
HETATM   10  C   UNL     1       5.099  30.474  55.818  1.00  0.00     0.020 A 
HETATM   11  C   UNL     1       4.232  30.880  54.804  1.00  0.00     0.002 A 
HETATM   12  C   UNL     1       4.047  30.066  53.692  1.00  0.00     0.018 A 
ENDROOT
BRANCH   9  13
HETATM   13  C   UNL     1       6.731  28.948  56.868  1.00  0.00     0.255 C 
HETATM   14  N   UNL     1       7.706  29.873  57.161  1.00  0.00    -0.349 N 
HETATM   15  H   UNL     1       7.824  30.685  56.569  1.00  0.00     0.163 HD
HETATM   16  O   UNL     1       6.596  27.916  57.519  1.00  0.00    -0.268 OA
BRANCH  14  17
HETATM   17  C   UNL     1       8.622  29.709  58.276  1.00  0.00     0.114 C 
HETATM   18  C   UNL     1      10.072  29.918  57.830  1.00  0.00     0.037 C 
BRANCH  17  19
HETATM   19  C   UNL     1       8.178  30.611  59.413  1.00  0.00    -0.033 A 
HETATM   20  C   UNL     1       8.802  30.626  60.664  1.00  0.00     0.028 A 
HETATM   21  C   UNL     1       8.344  31.510  61.629  1.00  0.00     0.116 A 
HETATM   22  N   UNL     1       7.337  32.387  61.434  1.00  0.00    -0.273 NA
HETATM   23  C   UNL     1       6.753  32.370  60.219  1.00  0.00     0.116 A 
HETATM   24  C   UNL     1       7.134  31.520  59.192  1.00  0.00     0.028 A 
ENDBRANCH  17  19
ENDBRANCH  14  17
ENDBRANCH   9  13
BRANCH   3  25
HETATM   25  C   UNL     1       6.682  25.086  53.611  1.00  0.00    -0.002 A 
HETATM   26  C   UNL     1       6.589  24.348  54.796  1.00  0.00     0.014 A 
HETATM   27  C   UNL     1       7.264  23.132  54.921  1.00  0.00     0.001 A 
HETATM   28  C   UNL     1       8.024  22.640  53.861  1.00  0.00     0.000 A 
HETATM   29  C   UNL     1       8.110  23.363  52.672  1.00  0.00     0.001 A 
HETATM   30  C   UNL     1       7.441  24.580  52.546  1.00  0.00     0.014 A 
ENDBRANCH   3  25
TORSDOF 4
ENDMDL
MODEL 7
REMARK VINA RESULT:      -8.9      2.708      7.422
REMARK  4 active torsions:
REMARK  status: ('A' for Active; 'I' for Inactive)
REMARK    1  A    between atoms: C_3  and  C_4 
REMARK    2  A    between atoms: C_15  and  C_16 
REMARK       I    between atoms: C_16  and  N_17 
REMARK    3  A    between atoms: N_17  and  C_18 
REMARK    4  A    between atoms: C_18  and  C_19 
ROOT
HETATM    1  C   UNL     1       8.563  24.530  58.776  1.00  0.00     0.055 C 
HETATM    2  C   UNL     1       8.245  24.371  57.319  1.00  0.00     0.024 A 
HETATM    3  C   UNL     1       7.876  25.335  56.457  1.00  0.00     0.096 A 
HETATM    4  O   UNL     1       7.645  25.151  55.106  1.00  0.00    -0.307 OA
HETATM    5  C   UNL     1       7.736  23.893  54.567  1.00  0.00     0.106 A 
HETATM    6  C   UNL     1       8.062  22.791  55.360  1.00  0.00     0.050 A 
HETATM    7  C   UNL     1       8.360  22.992  56.787  1.00  0.00     0.193 A 
HETATM    8  O   UNL     1       8.684  22.050  57.503  1.00  0.00    -0.287 OA
HETATM    9  C   UNL     1       7.485  23.710  53.197  1.00  0.00     0.066 A 
HETATM   10  C   UNL     1       7.533  22.406  52.666  1.00  0.00     0.020 A 
HETATM   11  C   UNL     1       7.842  21.309  53.470  1.00  0.00     0.002 A 
HETATM   12  C   UNL     1       8.115  21.502  54.819  1.00  0.00     0.018 A 
ENDROOT
BRANCH   9  13
HETATM   13  C   UNL     1       7.194  24.812  52.223  1.00  0.00     0.255 C 
HETATM   14  N   UNL     1       5.936  25.365  52.227  1.00  0.00    -0.349 N 
HETATM   15  H   UNL     1       5.214  24.969  52.816  1.00  0.00     0.163 HD
HETATM   16  O   UNL     1       8.081  25.217  51.476  1.00  0.00    -0.268 OA
BRANCH  14  17
HETATM   17  C   UNL     1       5.575  26.482  51.372  1.00  0.00     0.114 C 
HETATM   18  C   UNL     1       4.817  26.002  50.131  1.00  0.00     0.037 C 
BRANCH  17  19
HETATM   19  C   UNL     1       4.832  27.513  52.202  1.00  0.00    -0.033 A 
HETATM   20  C   UNL     1       4.877  27.544  53.599  1.00  0.00     0.028 A 
HETATM   21  C   UNL     1       4.190  28.547  54.268  1.00  0.00     0.116 A 
HETATM   22  N   UNL     1       3.489  29.522  53.654  1.00  0.00    -0.273 NA
HETATM   23  C   UNL     1       3.465  29.487  52.306  1.00  0.00     0.116 A 
HETATM   24  C   UNL     1       4.113  28.523  51.549  1.00  0.00     0.028 A 
ENDBRANCH  17  19
ENDBRANCH  14  17
ENDBRANCH   9  13
BRANCH   3  25
HETATM   25  C   UNL     1       7.668  26.730  56.873  1.00  0.00    -0.002 A 
HETATM   26  C   UNL     1       8.761  27.579  57.077  1.00  0.00     0.014 A 
HETATM   27  C   UNL     1       8.558  28.898  57.486  1.00  0.00     0.001 A 
HETATM   28  C   UNL     1       7.265  29.381  57.681  1.00  0.00     0.000 A 
HETATM   29  C   UNL     1       6.170  28.546  57.466  1.00  0.00     0.001 A 
HETATM   30  C   UNL     1       6.370  27.225  57.062  1.00  0.00     0.014 A 
ENDBRANCH   3  25
TORSDOF 4
ENDMDL
MODEL 8
REMARK VINA RESULT:      -8.9      3.697      7.637
REMARK  4 active torsions:
REMARK  status: ('A' for Active; 'I' for Inactive)
REMARK    1  A    between atoms: C_3  and  C_4 
REMARK    2  A    between atoms: C_15  and  C_16 
REMARK       I    between atoms: C_16  and  N_17 
REMARK    3  A    between atoms: N_17  and  C_18 
REMARK    4  A    between atoms: C_18  and  C_19 
ROOT
HETATM    1  C   UNL     1       6.031  25.749  56.802  1.00  0.00     0.055 C 
HETATM    2  C   UNL     1       5.642  26.377  55.497  1.00  0.00     0.024 A 
HETATM    3  C   UNL     1       5.893  25.909  54.261  1.00  0.00     0.096 A 
HETATM    4  O   UNL     1       5.466  26.495  53.084  1.00  0.00    -0.307 OA
HETATM    5  C   UNL     1       4.775  27.679  53.127  1.00  0.00     0.106 A 
HETATM    6  C   UNL     1       4.490  28.304  54.343  1.00  0.00     0.050 A 
HETATM    7  C   UNL     1       4.895  27.655  55.600  1.00  0.00     0.193 A 
HETATM    8  O   UNL     1       4.629  28.159  56.686  1.00  0.00    -0.287 OA
HETATM    9  C   UNL     1       4.358  28.278  51.927  1.00  0.00     0.066 A 
HETATM   10  C   UNL     1       3.693  29.519  51.982  1.00  0.00     0.020 A 
HETATM   11  C   UNL     1       3.428  30.144  53.201  1.00  0.00     0.002 A 
HETATM   12  C   UNL     1       3.820  29.532  54.386  1.00  0.00     0.018 A 
ENDROOT
BRANCH   9  13
HETATM   13  C   UNL     1       4.538  27.683  50.563  1.00  0.00     0.255 C 
HETATM   14  N   UNL     1       3.412  27.333  49.855  1.00  0.00    -0.349 N 
HETATM   15  H   UNL     1       2.502  27.399  50.293  1.00  0.00     0.163 HD
HETATM   16  O   UNL     1       5.667  27.556  50.096  1.00  0.00    -0.268 OA
BRANCH  14  17
HETATM   17  C   UNL     1       3.476  26.815  48.500  1.00  0.00     0.114 C 
HETATM   18  C   UNL     1       3.371  25.287  48.490  1.00  0.00     0.037 C 
BRANCH  17  19
HETATM   19  C   UNL     1       2.432  27.522  47.656  1.00  0.00    -0.033 A 
HETATM   20  C   UNL     1       1.292  26.882  47.159  1.00  0.00     0.028 A 
HETATM   21  C   UNL     1       0.377  27.622  46.424  1.00  0.00     0.116 A 
HETATM   22  N   UNL     1       0.502  28.940  46.170  1.00  0.00    -0.273 NA
HETATM   23  C   UNL     1       1.599  29.547  46.666  1.00  0.00     0.116 A 
HETATM   24  C   UNL     1       2.573  28.893  47.405  1.00  0.00     0.028 A 
ENDBRANCH  17  19
ENDBRANCH  14  17
ENDBRANCH   9  13
BRANCH   3  25
HETATM   25  C   UNL     1       6.674  24.686  54.024  1.00  0.00    -0.002 A 
HETATM   26  C   UNL     1       7.247  24.443  52.771  1.00  0.00     0.014 A 
HETATM   27  C   UNL     1       7.976  23.274  52.547  1.00  0.00     0.001 A 
HETATM   28  C   UNL     1       8.149  22.347  53.575  1.00  0.00     0.000 A 
HETATM   29  C   UNL     1       7.593  22.589  54.830  1.00  0.00     0.001 A 
HETATM   30  C   UNL     1       6.860  23.755  55.056  1.00  0.00     0.014 A 
ENDBRANCH   3  25
TORSDOF 4
ENDMDL
MODEL 9
REMARK VINA RESULT:      -8.8      5.785     10.627
REMARK  4 active torsions:
REMARK  status: ('A' for Active; 'I' for Inactive)
REMARK    1  A    between atoms: C_3  and  C_4 
REMARK    2  A    between atoms: C_15  and  C_16 
REMARK       I    between atoms: C_16  and  N_17 
REMARK    3  A    between atoms: N_17  and  C_18 
REMARK    4  A    between atoms: C_18  and  C_19 
ROOT
HETATM    1  C   UNL     1       3.413  36.827  63.033  1.00  0.00     0.055 C 
HETATM    2  C   UNL     1       4.383  35.767  62.602  1.00  0.00     0.024 A 
HETATM    3  C   UNL     1       4.521  35.242  61.371  1.00  0.00     0.096 A 
HETATM    4  O   UNL     1       5.468  34.304  61.005  1.00  0.00    -0.307 OA
HETATM    5  C   UNL     1       6.323  33.799  61.951  1.00  0.00     0.106 A 
HETATM    6  C   UNL     1       6.256  34.218  63.282  1.00  0.00     0.050 A 
HETATM    7  C   UNL     1       5.285  35.256  63.662  1.00  0.00     0.193 A 
HETATM    8  O   UNL     1       5.224  35.672  64.814  1.00  0.00    -0.287 OA
HETATM    9  C   UNL     1       7.273  32.833  61.577  1.00  0.00     0.066 A 
HETATM   10  C   UNL     1       8.111  32.286  62.568  1.00  0.00     0.020 A 
HETATM   11  C   UNL     1       8.025  32.699  63.897  1.00  0.00     0.002 A 
HETATM   12  C   UNL     1       7.101  33.674  64.255  1.00  0.00     0.018 A 
ENDROOT
BRANCH   9  13
HETATM   13  C   UNL     1       7.497  32.347  60.177  1.00  0.00     0.255 C 
HETATM   14  N   UNL     1       6.494  31.625  59.574  1.00  0.00    -0.349 N 
HETATM   15  H   UNL     1       5.672  31.364  60.104  1.00  0.00     0.163 HD
HETATM   16  O   UNL     1       8.540  32.628  59.593  1.00  0.00    -0.268 OA
BRANCH  14  17
HETATM   17  C   UNL     1       6.585  31.169  58.197  1.00  0.00     0.114 C 
HETATM   18  C   UNL     1       7.100  29.729  58.128  1.00  0.00     0.037 C 
BRANCH  17  19
HETATM   19  C   UNL     1       5.245  31.391  57.519  1.00  0.00    -0.033 A 
HETATM   20  C   UNL     1       4.480  30.351  56.984  1.00  0.00     0.028 A 
HETATM   21  C   UNL     1       3.252  30.649  56.412  1.00  0.00     0.116 A 
HETATM   22  N   UNL     1       2.727  31.891  56.356  1.00  0.00    -0.273 NA
HETATM   23  C   UNL     1       3.470  32.882  56.888  1.00  0.00     0.116 A 
HETATM   24  C   UNL     1       4.710  32.685  57.474  1.00  0.00     0.028 A 
ENDBRANCH  17  19
ENDBRANCH  14  17
ENDBRANCH   9  13
BRANCH   3  25
HETATM   25  C   UNL     1       3.649  35.620  60.249  1.00  0.00    -0.002 A 
HETATM   26  C   UNL     1       2.428  34.967  60.048  1.00  0.00     0.014 A 
HETATM   27  C   UNL     1       1.611  35.321  58.973  1.00  0.00     0.001 A 
HETATM   28  C   UNL     1       2.001  36.335  58.100  1.00  0.00     0.000 A 
HETATM   29  C   UNL     1       3.209  37.000  58.301  1.00  0.00     0.001 A 
HETATM   30  C   UNL     1       4.030  36.646  59.372  1.00  0.00     0.014 A 
ENDBRANCH   3  25
TORSDOF 4
ENDMDL
MODEL 10
REMARK VINA RESULT:      -8.7      2.586      7.307
REMARK  4 active torsions:
REMARK  status: ('A' for Active; 'I' for Inactive)
REMARK    1  A    between atoms: C_3  and  C_4 
REMARK    2  A    between atoms: C_15  and  C_16 
REMARK       I    between atoms: C_16  and  N_17 
REMARK    3  A    between atoms: N_17  and  C_18 
REMARK    4  A    between atoms: C_18  and  C_19 
ROOT
HETATM    1  C   UNL     1       4.926  33.341  59.710  1.00  0.00     0.055 C 
HETATM    2  C   UNL     1       5.266  32.272  58.714  1.00  0.00     0.024 A 
HETATM    3  C   UNL     1       6.366  31.498  58.696  1.00  0.00     0.096 A 
HETATM    4  O   UNL     1       6.613  30.485  57.787  1.00  0.00    -0.307 OA
HETATM    5  C   UNL     1       5.719  30.249  56.774  1.00  0.00     0.106 A 
HETATM    6  C   UNL     1       4.558  31.014  56.644  1.00  0.00     0.050 A 
HETATM    7  C   UNL     1       4.266  32.057  57.640  1.00  0.00     0.193 A 
HETATM    8  O   UNL     1       3.238  32.722  57.575  1.00  0.00    -0.287 OA
HETATM    9  C   UNL     1       5.983  29.229  55.845  1.00  0.00     0.066 A 
HETATM   10  C   UNL     1       5.083  29.030  54.780  1.00  0.00     0.020 A 
HETATM   11  C   UNL     1       3.935  29.811  54.649  1.00  0.00     0.002 A 
HETATM   12  C   UNL     1       3.666  30.800  55.587  1.00  0.00     0.018 A 
ENDROOT
BRANCH   9  13
HETATM   13  C   UNL     1       7.152  28.293  55.907  1.00  0.00     0.255 C 
HETATM   14  N   UNL     1       6.904  26.962  56.148  1.00  0.00    -0.349 N 
HETATM   15  H   UNL     1       5.964  26.655  56.361  1.00  0.00     0.163 HD
HETATM   16  O   UNL     1       8.287  28.719  55.710  1.00  0.00    -0.268 OA
BRANCH  14  17
HETATM   17  C   UNL     1       7.960  25.964  56.158  1.00  0.00     0.114 C 
HETATM   18  C   UNL     1       8.114  25.341  57.548  1.00  0.00     0.037 C 
BRANCH  17  19
HETATM   19  C   UNL     1       7.699  24.964  55.046  1.00  0.00    -0.033 A 
HETATM   20  C   UNL     1       7.521  25.337  53.711  1.00  0.00     0.028 A 
HETATM   21  C   UNL     1       7.319  24.346  52.761  1.00  0.00     0.116 A 
HETATM   22  N   UNL     1       7.306  23.026  53.038  1.00  0.00    -0.273 NA
HETATM   23  C   UNL     1       7.492  22.681  54.328  1.00  0.00     0.116 A 
HETATM   24  C   UNL     1       7.693  23.596  55.349  1.00  0.00     0.028 A 
ENDBRANCH  17  19
ENDBRANCH  14  17
ENDBRANCH   9  13
BRANCH   3  25
HETATM   25  C   UNL     1       7.458  31.653  59.668  1.00  0.00    -0.002 A 
HETATM   26  C   UNL     1       8.767  31.885  59.232  1.00  0.00     0.014 A 
HETATM   27  C   UNL     1       9.802  32.017  60.159  1.00  0.00     0.001 A 
HETATM   28  C   UNL     1       9.536  31.932  61.525  1.00  0.00     0.000 A 
HETATM   29  C   UNL     1       8.232  31.715  61.968  1.00  0.00     0.001 A 
HETATM   30  C   UNL     1       7.195  31.578  61.043  1.00  0.00     0.014 A 
ENDBRANCH   3  25
TORSDOF 4
ENDMDL
