MODEL 1
REMARK VINA RESULT:     -10.6      0.000      0.000
REMARK  7 active torsions:
REMARK  status: ('A' for Active; 'I' for Inactive)
REMARK    1  A    between atoms: C_2  and  C_3 
REMARK    2  A    between atoms: C_6  and  C_7 
REMARK       I    between atoms: C_7  and  N_8 
REMARK    3  A    between atoms: N_8  and  C_9 
REMARK    4  A    between atoms: C_9  and  C_10 
REMARK    5  A    between atoms: N_19  and  C_20 
REMARK    6  A    between atoms: C_20  and  C_21 
REMARK    7  A    between atoms: C_21  and  C_22 
ROOT
HETATM    1  C   UNL     1       6.532  28.743  56.357  1.00  0.00     0.249 C 
HETATM    2  C   UNL     1       5.671  29.102  57.585  1.00  0.00     0.266 C 
HETATM    3  O   UNL     1       4.553  28.699  57.859  1.00  0.00    -0.270 OA
HETATM    4  N   UNL     1       6.392  30.021  58.346  1.00  0.00    -0.310 N 
HETATM    5  C   UNL     1       7.644  30.186  57.855  1.00  0.00     0.129 C 
HETATM    6  C   UNL     1       7.794  29.436  56.765  1.00  0.00     0.101 C 
HETATM    7  N   UNL     1       8.628  31.002  58.340  1.00  0.00    -0.284 N 
HETATM    8  C   UNL     1       9.900  30.987  57.762  1.00  0.00     0.331 C 
HETATM    9  O   UNL     1      10.840  31.680  58.143  1.00  0.00    -0.246 OA
HETATM   10  N   UNL     1      10.053  30.151  56.678  1.00  0.00    -0.275 N 
HETATM   11  C   UNL     1       9.064  29.430  56.065  1.00  0.00     0.262 C 
HETATM   12  O   UNL     1       9.212  28.827  55.011  1.00  0.00    -0.267 OA
HETATM   13  H   UNL     1       6.035  30.394  59.213  1.00  0.00     0.170 HD
HETATM   14  H   UNL     1      10.953  30.175  56.225  1.00  0.00     0.173 HD
ENDROOT
BRANCH   1  15
HETATM   15  N   UNL     1       6.715  27.305  56.098  1.00  0.00    -0.327 N 
HETATM   16  C   UNL     1       7.271  26.437  57.008  1.00  0.00     0.253 C 
HETATM   17  O   UNL     1       7.570  26.775  58.147  1.00  0.00    -0.268 OA
HETATM   18  H   UNL     1       6.849  27.067  55.120  1.00  0.00     0.164 HD
BRANCH  16  19
HETATM   19  C   UNL     1       7.553  25.060  56.503  1.00  0.00     0.032 A 
HETATM   20  C   UNL     1       8.391  24.176  57.190  1.00  0.00     0.017 A 
HETATM   21  C   UNL     1       8.593  22.877  56.708  1.00  0.00     0.009 A 
HETATM   22  C   UNL     1       7.976  22.421  55.528  1.00  0.00    -0.051 A 
HETATM   23  C   UNL     1       7.171  23.338  54.831  1.00  0.00     0.009 A 
HETATM   24  C   UNL     1       6.963  24.641  55.309  1.00  0.00     0.017 A 
BRANCH  22  25
HETATM   25  C   UNL     1       8.211  20.978  55.043  1.00  0.00    -0.024 C 
HETATM   26  C   UNL     1       7.826  20.847  53.552  1.00  0.00     0.019 C 
HETATM   27  C   UNL     1       7.341  20.013  55.875  1.00  0.00     0.019 C 
HETATM   28  C   UNL     1       9.678  20.509  55.170  1.00  0.00     0.019 C 
ENDBRANCH  22  25
ENDBRANCH  16  19
ENDBRANCH   1  15
BRANCH   1  29
HETATM   29  C   UNL     1       5.848  29.476  55.191  1.00  0.00     0.426 C 
HETATM   30  F   UNL     1       4.544  29.114  55.094  1.00  0.00    -0.167 F 
HETATM   31  F   UNL     1       5.853  30.818  55.357  1.00  0.00    -0.167 F 
HETATM   32  F   UNL     1       6.419  29.211  53.993  1.00  0.00    -0.167 F 
ENDBRANCH   1  29
BRANCH   7  33
HETATM   33  C   UNL     1       8.354  31.987  59.384  1.00  0.00     0.140 C 
BRANCH  33  34
HETATM   34  C   UNL     1       8.615  31.467  60.799  1.00  0.00     0.059 C 
BRANCH  34  35
HETATM   35  C   UNL     1       7.931  32.353  61.814  1.00  0.00    -0.057 A 
HETATM   36  C   UNL     1       8.286  32.290  63.169  1.00  0.00     0.007 A 
HETATM   37  C   UNL     1       7.603  33.057  64.115  1.00  0.00     0.001 A 
HETATM   38  C   UNL     1       6.564  33.895  63.717  1.00  0.00     0.000 A 
HETATM   39  C   UNL     1       6.207  33.969  62.372  1.00  0.00     0.001 A 
HETATM   40  C   UNL     1       6.885  33.200  61.424  1.00  0.00     0.007 A 
ENDBRANCH  34  35
ENDBRANCH  33  34
ENDBRANCH   7  33
TORSDOF 7
ENDMDL
MODEL 2
REMARK VINA RESULT:      -9.7      1.590      9.846
REMARK  7 active torsions:
REMARK  status: ('A' for Active; 'I' for Inactive)
REMARK    1  A    between atoms: C_2  and  C_3 
REMARK    2  A    between atoms: C_6  and  C_7 
REMARK       I    between atoms: C_7  and  N_8 
REMARK    3  A    between atoms: N_8  and  C_9 
REMARK    4  A    between atoms: C_9  and  C_10 
REMARK    5  A    between atoms: N_19  and  C_20 
REMARK    6  A    between atoms: C_20  and  C_21 
REMARK    7  A    between atoms: C_21  and  C_22 
ROOT
HETATM    1  C   UNL     1       7.376  28.987  57.359  1.00  0.00     0.249 C 
HETATM    2  C   UNL     1       8.704  28.212  57.473  1.00  0.00     0.266 C 
HETATM    3  O   UNL     1       9.817  28.660  57.691  1.00  0.00    -0.270 OA
HETATM    4  N   UNL     1       8.421  26.865  57.248  1.00  0.00    -0.310 N 
HETATM    5  C   UNL     1       7.086  26.656  57.152  1.00  0.00     0.129 C 
HETATM    6  C   UNL     1       6.446  27.818  57.270  1.00  0.00     0.101 C 
HETATM    7  N   UNL     1       6.442  25.469  56.936  1.00  0.00    -0.284 N 
HETATM    8  C   UNL     1       5.046  25.415  56.951  1.00  0.00     0.331 C 
HETATM    9  O   UNL     1       4.393  24.390  56.776  1.00  0.00    -0.246 OA
HETATM   10  N   UNL     1       4.405  26.619  57.145  1.00  0.00    -0.275 N 
HETATM   11  C   UNL     1       4.998  27.850  57.218  1.00  0.00     0.262 C 
HETATM   12  O   UNL     1       4.379  28.906  57.230  1.00  0.00    -0.267 OA
HETATM   13  H   UNL     1       9.137  26.155  57.287  1.00  0.00     0.170 HD
HETATM   14  H   UNL     1       3.398  26.594  57.106  1.00  0.00     0.173 HD
ENDROOT
BRANCH   1  15
HETATM   15  N   UNL     1       7.063  29.896  58.474  1.00  0.00    -0.327 N 
HETATM   16  C   UNL     1       7.909  30.895  58.896  1.00  0.00     0.253 C 
HETATM   17  O   UNL     1       8.951  31.169  58.313  1.00  0.00    -0.268 OA
HETATM   18  H   UNL     1       6.458  29.498  59.185  1.00  0.00     0.164 HD
BRANCH  16  19
HETATM   19  C   UNL     1       7.514  31.591  60.157  1.00  0.00     0.032 A 
HETATM   20  C   UNL     1       8.349  31.625  61.278  1.00  0.00     0.017 A 
HETATM   21  C   UNL     1       7.963  32.328  62.426  1.00  0.00     0.009 A 
HETATM   22  C   UNL     1       6.734  33.010  62.496  1.00  0.00    -0.051 A 
HETATM   23  C   UNL     1       5.890  32.928  61.375  1.00  0.00     0.009 A 
HETATM   24  C   UNL     1       6.273  32.226  60.221  1.00  0.00     0.017 A 
BRANCH  22  25
HETATM   25  C   UNL     1       6.355  33.787  63.771  1.00  0.00    -0.024 C 
HETATM   26  C   UNL     1       6.088  35.271  63.433  1.00  0.00     0.019 C 
HETATM   27  C   UNL     1       7.516  33.702  64.782  1.00  0.00     0.019 C 
HETATM   28  C   UNL     1       5.086  33.253  64.473  1.00  0.00     0.019 C 
ENDBRANCH  22  25
ENDBRANCH  16  19
ENDBRANCH   1  15
BRANCH   1  29
HETATM   29  C   UNL     1       7.481  29.716  56.009  1.00  0.00     0.426 C 
HETATM   30  F   UNL     1       6.999  28.941  55.005  1.00  0.00    -0.167 F 
HETATM   31  F   UNL     1       6.752  30.855  55.984  1.00  0.00    -0.167 F 
HETATM   32  F   UNL     1       8.754  30.038  55.680  1.00  0.00    -0.167 F 
ENDBRANCH   1  29
BRANCH   7  33
HETATM   33  C   UNL     1       7.177  24.261  56.570  1.00  0.00     0.140 C 
BRANCH  33  34
HETATM   34  C   UNL     1       7.457  24.145  55.070  1.00  0.00     0.059 C 
BRANCH  34  35
HETATM   35  C   UNL     1       7.769  22.712  54.707  1.00  0.00    -0.057 A 
HETATM   36  C   UNL     1       7.973  21.751  55.707  1.00  0.00     0.007 A 
HETATM   37  C   UNL     1       8.331  20.444  55.370  1.00  0.00     0.001 A 
HETATM   38  C   UNL     1       8.486  20.086  54.033  1.00  0.00     0.000 A 
HETATM   39  C   UNL     1       8.281  21.031  53.031  1.00  0.00     0.001 A 
HETATM   40  C   UNL     1       7.926  22.340  53.364  1.00  0.00     0.007 A 
ENDBRANCH  34  35
ENDBRANCH  33  34
ENDBRANCH   7  33
TORSDOF 7
ENDMDL
MODEL 3
REMARK VINA RESULT:      -9.4      6.712     11.289
REMARK  7 active torsions:
REMARK  status: ('A' for Active; 'I' for Inactive)
REMARK    1  A    between atoms: C_2  and  C_3 
REMARK    2  A    between atoms: C_6  and  C_7 
REMARK       I    between atoms: C_7  and  N_8 
REMARK    3  A    between atoms: N_8  and  C_9 
REMARK    4  A    between atoms: C_9  and  C_10 
REMARK    5  A    between atoms: N_19  and  C_20 
REMARK    6  A    between atoms: C_20  and  C_21 
REMARK    7  A    between atoms: C_21  and  C_22 
ROOT
HETATM    1  C   UNL     1       3.947  28.575  49.381  1.00  0.00     0.249 C 
HETATM    2  C   UNL     1       4.812  27.516  48.670  1.00  0.00     0.266 C 
HETATM    3  O   UNL     1       5.086  27.446  47.483  1.00  0.00    -0.270 OA
HETATM    4  N   UNL     1       5.222  26.596  49.634  1.00  0.00    -0.310 N 
HETATM    5  C   UNL     1       4.864  26.999  50.876  1.00  0.00     0.129 C 
HETATM    6  C   UNL     1       4.193  28.146  50.794  1.00  0.00     0.101 C 
HETATM    7  N   UNL     1       5.096  26.356  52.060  1.00  0.00    -0.284 N 
HETATM    8  C   UNL     1       4.734  26.956  53.268  1.00  0.00     0.331 C 
HETATM    9  O   UNL     1       4.917  26.451  54.373  1.00  0.00    -0.246 OA
HETATM   10  N   UNL     1       4.104  28.176  53.162  1.00  0.00    -0.275 N 
HETATM   11  C   UNL     1       3.716  28.790  52.002  1.00  0.00     0.262 C 
HETATM   12  O   UNL     1       3.019  29.795  51.961  1.00  0.00    -0.267 OA
HETATM   13  H   UNL     1       5.816  25.812  49.407  1.00  0.00     0.170 HD
HETATM   14  H   UNL     1       3.793  28.590  54.028  1.00  0.00     0.173 HD
ENDROOT
BRANCH   1  15
HETATM   15  N   UNL     1       4.310  29.979  49.127  1.00  0.00    -0.327 N 
HETATM   16  C   UNL     1       5.555  30.498  49.395  1.00  0.00     0.253 C 
HETATM   17  O   UNL     1       6.492  29.808  49.777  1.00  0.00    -0.268 OA
HETATM   18  H   UNL     1       3.536  30.633  49.187  1.00  0.00     0.164 HD
BRANCH  16  19
HETATM   19  C   UNL     1       5.685  31.980  49.254  1.00  0.00     0.032 A 
HETATM   20  C   UNL     1       5.769  32.826  50.365  1.00  0.00     0.017 A 
HETATM   21  C   UNL     1       5.937  34.205  50.191  1.00  0.00     0.009 A 
HETATM   22  C   UNL     1       6.018  34.784  48.911  1.00  0.00    -0.051 A 
HETATM   23  C   UNL     1       5.889  33.923  47.808  1.00  0.00     0.009 A 
HETATM   24  C   UNL     1       5.722  32.539  47.976  1.00  0.00     0.017 A 
BRANCH  22  25
HETATM   25  C   UNL     1       6.222  36.304  48.765  1.00  0.00    -0.024 C 
HETATM   26  C   UNL     1       6.617  36.652  47.312  1.00  0.00     0.019 C 
HETATM   27  C   UNL     1       7.346  36.761  49.716  1.00  0.00     0.019 C 
HETATM   28  C   UNL     1       4.963  37.136  49.097  1.00  0.00     0.019 C 
ENDBRANCH  22  25
ENDBRANCH  16  19
ENDBRANCH   1  15
BRANCH   1  29
HETATM   29  C   UNL     1       2.511  28.244  48.943  1.00  0.00     0.426 C 
HETATM   30  F   UNL     1       2.208  28.867  47.776  1.00  0.00    -0.167 F 
HETATM   31  F   UNL     1       2.337  26.922  48.717  1.00  0.00    -0.167 F 
HETATM   32  F   UNL     1       1.580  28.630  49.847  1.00  0.00    -0.167 F 
ENDBRANCH   1  29
BRANCH   7  33
HETATM   33  C   UNL     1       5.616  24.991  52.095  1.00  0.00     0.140 C 
BRANCH  33  34
HETATM   34  C   UNL     1       7.125  24.915  52.334  1.00  0.00     0.059 C 
BRANCH  34  35
HETATM   35  C   UNL     1       7.446  23.791  53.291  1.00  0.00    -0.057 A 
HETATM   36  C   UNL     1       7.899  22.554  52.810  1.00  0.00     0.007 A 
HETATM   37  C   UNL     1       8.126  21.494  53.691  1.00  0.00     0.001 A 
HETATM   38  C   UNL     1       7.907  21.661  55.056  1.00  0.00     0.000 A 
HETATM   39  C   UNL     1       7.463  22.888  55.544  1.00  0.00     0.001 A 
HETATM   40  C   UNL     1       7.231  23.949  54.667  1.00  0.00     0.007 A 
ENDBRANCH  34  35
ENDBRANCH  33  34
ENDBRANCH   7  33
TORSDOF 7
ENDMDL
MODEL 4
REMARK VINA RESULT:      -9.3      3.372      9.576
REMARK  7 active torsions:
REMARK  status: ('A' for Active; 'I' for Inactive)
REMARK    1  A    between atoms: C_2  and  C_3 
REMARK    2  A    between atoms: C_6  and  C_7 
REMARK       I    between atoms: C_7  and  N_8 
REMARK    3  A    between atoms: N_8  and  C_9 
REMARK    4  A    between atoms: C_9  and  C_10 
REMARK    5  A    between atoms: N_19  and  C_20 
REMARK    6  A    between atoms: C_20  and  C_21 
REMARK    7  A    between atoms: C_21  and  C_22 
ROOT
HETATM    1  C   UNL     1       7.860  29.032  56.329  1.00  0.00     0.249 C 
HETATM    2  C   UNL     1       7.857  28.460  57.761  1.00  0.00     0.266 C 
HETATM    3  O   UNL     1       8.064  29.055  58.806  1.00  0.00    -0.270 OA
HETATM    4  N   UNL     1       7.600  27.093  57.664  1.00  0.00    -0.310 N 
HETATM    5  C   UNL     1       7.296  26.743  56.392  1.00  0.00     0.129 C 
HETATM    6  C   UNL     1       7.368  27.816  55.608  1.00  0.00     0.101 C 
HETATM    7  N   UNL     1       6.988  25.496  55.922  1.00  0.00    -0.284 N 
HETATM    8  C   UNL     1       6.610  25.322  54.588  1.00  0.00     0.331 C 
HETATM    9  O   UNL     1       6.309  24.240  54.091  1.00  0.00    -0.246 OA
HETATM   10  N   UNL     1       6.624  26.459  53.812  1.00  0.00    -0.275 N 
HETATM   11  C   UNL     1       7.066  27.697  54.195  1.00  0.00     0.262 C 
HETATM   12  O   UNL     1       7.209  28.639  53.427  1.00  0.00    -0.267 OA
HETATM   13  H   UNL     1       7.535  26.502  58.480  1.00  0.00     0.170 HD
HETATM   14  H   UNL     1       6.403  26.331  52.836  1.00  0.00     0.173 HD
ENDROOT
BRANCH   1  15
HETATM   15  N   UNL     1       7.019  30.220  56.109  1.00  0.00    -0.327 N 
HETATM   16  C   UNL     1       5.709  30.306  56.519  1.00  0.00     0.253 C 
HETATM   17  O   UNL     1       5.167  29.435  57.188  1.00  0.00    -0.268 OA
HETATM   18  H   UNL     1       7.261  30.761  55.285  1.00  0.00     0.164 HD
BRANCH  16  19
HETATM   19  C   UNL     1       4.957  31.506  56.043  1.00  0.00     0.032 A 
HETATM   20  C   UNL     1       4.146  31.469  54.904  1.00  0.00     0.017 A 
HETATM   21  C   UNL     1       3.421  32.602  54.517  1.00  0.00     0.009 A 
HETATM   22  C   UNL     1       3.485  33.805  55.244  1.00  0.00    -0.051 A 
HETATM   23  C   UNL     1       4.338  33.835  56.361  1.00  0.00     0.009 A 
HETATM   24  C   UNL     1       5.067  32.702  56.755  1.00  0.00     0.017 A 
BRANCH  22  25
HETATM   25  C   UNL     1       2.656  35.023  54.794  1.00  0.00    -0.024 C 
HETATM   26  C   UNL     1       2.991  35.384  53.328  1.00  0.00     0.019 C 
HETATM   27  C   UNL     1       2.989  36.228  55.697  1.00  0.00     0.019 C 
HETATM   28  C   UNL     1       1.129  34.797  54.861  1.00  0.00     0.019 C 
ENDBRANCH  22  25
ENDBRANCH  16  19
ENDBRANCH   1  15
BRANCH   1  29
HETATM   29  C   UNL     1       9.345  29.291  56.030  1.00  0.00     0.426 C 
HETATM   30  F   UNL     1       9.575  29.290  54.693  1.00  0.00    -0.167 F 
HETATM   31  F   UNL     1       9.754  30.500  56.479  1.00  0.00    -0.167 F 
HETATM   32  F   UNL     1      10.164  28.357  56.569  1.00  0.00    -0.167 F 
ENDBRANCH   1  29
BRANCH   7  33
HETATM   33  C   UNL     1       7.155  24.307  56.754  1.00  0.00     0.140 C 
BRANCH  33  34
HETATM   34  C   UNL     1       8.584  23.760  56.762  1.00  0.00     0.059 C 
BRANCH  34  35
HETATM   35  C   UNL     1       8.650  22.463  55.991  1.00  0.00    -0.057 A 
HETATM   36  C   UNL     1       8.999  22.459  54.633  1.00  0.00     0.007 A 
HETATM   37  C   UNL     1       8.990  21.268  53.904  1.00  0.00     0.001 A 
HETATM   38  C   UNL     1       8.636  20.072  54.526  1.00  0.00     0.000 A 
HETATM   39  C   UNL     1       8.294  20.064  55.876  1.00  0.00     0.001 A 
HETATM   40  C   UNL     1       8.298  21.254  56.606  1.00  0.00     0.007 A 
ENDBRANCH  34  35
ENDBRANCH  33  34
ENDBRANCH   7  33
TORSDOF 7
ENDMDL
MODEL 5
REMARK VINA RESULT:      -9.1      3.644      9.543
REMARK  7 active torsions:
REMARK  status: ('A' for Active; 'I' for Inactive)
REMARK    1  A    between atoms: C_2  and  C_3 
REMARK    2  A    between atoms: C_6  and  C_7 
REMARK       I    between atoms: C_7  and  N_8 
REMARK    3  A    between atoms: N_8  and  C_9 
REMARK    4  A    between atoms: C_9  and  C_10 
REMARK    5  A    between atoms: N_19  and  C_20 
REMARK    6  A    between atoms: C_20  and  C_21 
REMARK    7  A    between atoms: C_21  and  C_22 
ROOT
HETATM    1  C   UNL     1       6.393  27.044  56.686  1.00  0.00     0.249 C 
HETATM    2  C   UNL     1       5.444  25.844  56.879  1.00  0.00     0.266 C 
HETATM    3  O   UNL     1       4.720  25.607  57.831  1.00  0.00    -0.270 OA
HETATM    4  N   UNL     1       5.576  25.024  55.760  1.00  0.00    -0.310 N 
HETATM    5  C   UNL     1       6.361  25.603  54.820  1.00  0.00     0.129 C 
HETATM    6  C   UNL     1       6.798  26.777  55.271  1.00  0.00     0.101 C 
HETATM    7  N   UNL     1       6.709  25.097  53.599  1.00  0.00    -0.284 N 
HETATM    8  C   UNL     1       7.461  25.867  52.708  1.00  0.00     0.331 C 
HETATM    9  O   UNL     1       7.806  25.491  51.590  1.00  0.00    -0.246 OA
HETATM   10  N   UNL     1       7.844  27.107  53.168  1.00  0.00    -0.275 N 
HETATM   11  C   UNL     1       7.648  27.599  54.431  1.00  0.00     0.262 C 
HETATM   12  O   UNL     1       8.143  28.638  54.844  1.00  0.00    -0.267 OA
HETATM   13  H   UNL     1       5.038  24.176  55.651  1.00  0.00     0.170 HD
HETATM   14  H   UNL     1       8.430  27.647  52.550  1.00  0.00     0.173 HD
ENDROOT
BRANCH   1  15
HETATM   15  N   UNL     1       5.795  28.375  56.879  1.00  0.00    -0.327 N 
HETATM   16  C   UNL     1       4.722  28.835  56.152  1.00  0.00     0.253 C 
HETATM   17  O   UNL     1       4.118  28.134  55.350  1.00  0.00    -0.268 OA
HETATM   18  H   UNL     1       6.441  29.084  57.212  1.00  0.00     0.164 HD
BRANCH  16  19
HETATM   19  C   UNL     1       4.373  30.274  56.350  1.00  0.00     0.032 A 
HETATM   20  C   UNL     1       3.168  30.814  55.889  1.00  0.00     0.017 A 
HETATM   21  C   UNL     1       2.856  32.157  56.135  1.00  0.00     0.009 A 
HETATM   22  C   UNL     1       3.735  33.002  56.838  1.00  0.00    -0.051 A 
HETATM   23  C   UNL     1       4.959  32.452  57.255  1.00  0.00     0.009 A 
HETATM   24  C   UNL     1       5.276  31.106  57.013  1.00  0.00     0.017 A 
BRANCH  22  25
HETATM   25  C   UNL     1       3.345  34.469  57.103  1.00  0.00    -0.024 C 
HETATM   26  C   UNL     1       2.888  34.643  58.570  1.00  0.00     0.019 C 
HETATM   27  C   UNL     1       2.187  34.866  56.165  1.00  0.00     0.019 C 
HETATM   28  C   UNL     1       4.497  35.472  56.871  1.00  0.00     0.019 C 
ENDBRANCH  22  25
ENDBRANCH  16  19
ENDBRANCH   1  15
BRANCH   1  29
HETATM   29  C   UNL     1       7.553  26.766  57.657  1.00  0.00     0.426 C 
HETATM   30  F   UNL     1       8.690  26.476  56.977  1.00  0.00    -0.167 F 
HETATM   31  F   UNL     1       7.842  27.839  58.429  1.00  0.00    -0.167 F 
HETATM   32  F   UNL     1       7.313  25.722  58.483  1.00  0.00    -0.167 F 
ENDBRANCH   1  29
BRANCH   7  33
HETATM   33  C   UNL     1       6.415  23.712  53.236  1.00  0.00     0.140 C 
BRANCH  33  34
HETATM   34  C   UNL     1       7.664  22.850  53.046  1.00  0.00     0.059 C 
BRANCH  34  35
HETATM   35  C   UNL     1       7.932  22.036  54.291  1.00  0.00    -0.057 A 
HETATM   36  C   UNL     1       8.189  22.671  55.514  1.00  0.00     0.007 A 
HETATM   37  C   UNL     1       8.507  21.918  56.647  1.00  0.00     0.001 A 
HETATM   38  C   UNL     1       8.567  20.529  56.568  1.00  0.00     0.000 A 
HETATM   39  C   UNL     1       8.307  19.889  55.359  1.00  0.00     0.001 A 
HETATM   40  C   UNL     1       7.993  20.638  54.223  1.00  0.00     0.007 A 
ENDBRANCH  34  35
ENDBRANCH  33  34
ENDBRANCH   7  33
TORSDOF 7
ENDMDL
MODEL 6
REMARK VINA RESULT:      -9.0      6.387     11.040
REMARK  7 active torsions:
REMARK  status: ('A' for Active; 'I' for Inactive)
REMARK    1  A    between atoms: C_2  and  C_3 
REMARK    2  A    between atoms: C_6  and  C_7 
REMARK       I    between atoms: C_7  and  N_8 
REMARK    3  A    between atoms: N_8  and  C_9 
REMARK    4  A    between atoms: C_9  and  C_10 
REMARK    5  A    between atoms: N_19  and  C_20 
REMARK    6  A    between atoms: C_20  and  C_21 
REMARK    7  A    between atoms: C_21  and  C_22 
ROOT
HETATM    1  C   UNL     1       3.459  28.892  50.146  1.00  0.00     0.249 C 
HETATM    2  C   UNL     1       3.668  27.513  49.489  1.00  0.00     0.266 C 
HETATM    3  O   UNL     1       3.357  27.165  48.362  1.00  0.00    -0.270 OA
HETATM    4  N   UNL     1       4.266  26.685  50.438  1.00  0.00    -0.310 N 
HETATM    5  C   UNL     1       4.598  27.380  51.552  1.00  0.00     0.129 C 
HETATM    6  C   UNL     1       4.219  28.649  51.412  1.00  0.00     0.101 C 
HETATM    7  N   UNL     1       5.199  26.903  52.683  1.00  0.00    -0.284 N 
HETATM    8  C   UNL     1       5.554  27.778  53.713  1.00  0.00     0.331 C 
HETATM    9  O   UNL     1       6.105  27.432  54.755  1.00  0.00    -0.246 OA
HETATM   10  N   UNL     1       5.214  29.099  53.516  1.00  0.00    -0.275 N 
HETATM   11  C   UNL     1       4.484  29.601  52.473  1.00  0.00     0.262 C 
HETATM   12  O   UNL     1       4.070  30.751  52.421  1.00  0.00    -0.267 OA
HETATM   13  H   UNL     1       4.515  25.729  50.232  1.00  0.00     0.170 HD
HETATM   14  H   UNL     1       5.421  29.727  54.277  1.00  0.00     0.173 HD
ENDROOT
BRANCH   1  15
HETATM   15  N   UNL     1       3.954  30.050  49.383  1.00  0.00    -0.327 N 
HETATM   16  C   UNL     1       5.245  30.157  48.923  1.00  0.00     0.253 C 
HETATM   17  O   UNL     1       6.062  29.251  49.028  1.00  0.00    -0.268 OA
HETATM   18  H   UNL     1       3.485  30.926  49.595  1.00  0.00     0.164 HD
BRANCH  16  19
HETATM   19  C   UNL     1       5.619  31.480  48.338  1.00  0.00     0.032 A 
HETATM   20  C   UNL     1       6.471  32.369  49.000  1.00  0.00     0.017 A 
HETATM   21  C   UNL     1       6.835  33.579  48.398  1.00  0.00     0.009 A 
HETATM   22  C   UNL     1       6.357  33.945  47.126  1.00  0.00    -0.051 A 
HETATM   23  C   UNL     1       5.469  33.057  46.495  1.00  0.00     0.009 A 
HETATM   24  C   UNL     1       5.101  31.842  47.093  1.00  0.00     0.017 A 
BRANCH  22  25
HETATM   25  C   UNL     1       6.797  35.278  46.491  1.00  0.00    -0.024 C 
HETATM   26  C   UNL     1       7.513  35.018  45.146  1.00  0.00     0.019 C 
HETATM   27  C   UNL     1       7.768  36.001  47.447  1.00  0.00     0.019 C 
HETATM   28  C   UNL     1       5.628  36.244  46.196  1.00  0.00     0.019 C 
ENDBRANCH  22  25
ENDBRANCH  16  19
ENDBRANCH   1  15
BRANCH   1  29
HETATM   29  C   UNL     1       1.946  28.957  50.411  1.00  0.00     0.426 C 
HETATM   30  F   UNL     1       1.484  30.223  50.255  1.00  0.00    -0.167 F 
HETATM   31  F   UNL     1       1.241  28.193  49.546  1.00  0.00    -0.167 F 
HETATM   32  F   UNL     1       1.611  28.569  51.664  1.00  0.00    -0.167 F 
ENDBRANCH   1  29
BRANCH   7  33
HETATM   33  C   UNL     1       5.380  25.469  52.902  1.00  0.00     0.140 C 
BRANCH  33  34
HETATM   34  C   UNL     1       6.735  24.944  52.424  1.00  0.00     0.059 C 
BRANCH  34  35
HETATM   35  C   UNL     1       7.251  23.889  53.376  1.00  0.00    -0.057 A 
HETATM   36  C   UNL     1       7.963  22.782  52.895  1.00  0.00     0.007 A 
HETATM   37  C   UNL     1       8.376  21.773  53.768  1.00  0.00     0.001 A 
HETATM   38  C   UNL     1       8.084  21.864  55.127  1.00  0.00     0.000 A 
HETATM   39  C   UNL     1       7.382  22.963  55.616  1.00  0.00     0.001 A 
HETATM   40  C   UNL     1       6.964  23.971  54.746  1.00  0.00     0.007 A 
ENDBRANCH  34  35
ENDBRANCH  33  34
ENDBRANCH   7  33
TORSDOF 7
ENDMDL
MODEL 7
REMARK VINA RESULT:      -8.8      3.786      5.509
REMARK  7 active torsions:
REMARK  status: ('A' for Active; 'I' for Inactive)
REMARK    1  A    between atoms: C_2  and  C_3 
REMARK    2  A    between atoms: C_6  and  C_7 
REMARK       I    between atoms: C_7  and  N_8 
REMARK    3  A    between atoms: N_8  and  C_9 
REMARK    4  A    between atoms: C_9  and  C_10 
REMARK    5  A    between atoms: N_19  and  C_20 
REMARK    6  A    between atoms: C_20  and  C_21 
REMARK    7  A    between atoms: C_21  and  C_22 
ROOT
HETATM    1  C   UNL     1       6.140  26.676  55.907  1.00  0.00     0.249 C 
HETATM    2  C   UNL     1       7.645  26.497  56.194  1.00  0.00     0.266 C 
HETATM    3  O   UNL     1       8.376  25.596  55.821  1.00  0.00    -0.270 OA
HETATM    4  N   UNL     1       8.043  27.557  57.007  1.00  0.00    -0.310 N 
HETATM    5  C   UNL     1       7.045  28.459  57.157  1.00  0.00     0.129 C 
HETATM    6  C   UNL     1       5.965  28.038  56.502  1.00  0.00     0.101 C 
HETATM    7  N   UNL     1       7.072  29.619  57.880  1.00  0.00    -0.284 N 
HETATM    8  C   UNL     1       5.976  30.486  57.858  1.00  0.00     0.331 C 
HETATM    9  O   UNL     1       5.925  31.550  58.470  1.00  0.00    -0.246 OA
HETATM   10  N   UNL     1       4.896  30.063  57.117  1.00  0.00    -0.275 N 
HETATM   11  C   UNL     1       4.763  28.848  56.499  1.00  0.00     0.262 C 
HETATM   12  O   UNL     1       3.724  28.453  55.987  1.00  0.00    -0.267 OA
HETATM   13  H   UNL     1       8.998  27.663  57.318  1.00  0.00     0.170 HD
HETATM   14  H   UNL     1       4.083  30.659  57.139  1.00  0.00     0.173 HD
ENDROOT
BRANCH   1  15
HETATM   15  N   UNL     1       5.742  26.604  54.491  1.00  0.00    -0.327 N 
HETATM   16  C   UNL     1       6.351  27.331  53.496  1.00  0.00     0.253 C 
HETATM   17  O   UNL     1       7.340  28.026  53.695  1.00  0.00    -0.268 OA
HETATM   18  H   UNL     1       4.764  26.377  54.340  1.00  0.00     0.164 HD
BRANCH  16  19
HETATM   19  C   UNL     1       5.693  27.276  52.156  1.00  0.00     0.032 A 
HETATM   20  C   UNL     1       5.574  26.083  51.437  1.00  0.00     0.017 A 
HETATM   21  C   UNL     1       4.909  26.064  50.205  1.00  0.00     0.009 A 
HETATM   22  C   UNL     1       4.351  27.230  49.649  1.00  0.00    -0.051 A 
HETATM   23  C   UNL     1       4.518  28.427  50.366  1.00  0.00     0.009 A 
HETATM   24  C   UNL     1       5.183  28.451  51.603  1.00  0.00     0.017 A 
BRANCH  22  25
HETATM   25  C   UNL     1       3.611  27.162  48.299  1.00  0.00    -0.024 C 
HETATM   26  C   UNL     1       4.288  28.098  47.272  1.00  0.00     0.019 C 
HETATM   27  C   UNL     1       2.148  27.606  48.497  1.00  0.00     0.019 C 
HETATM   28  C   UNL     1       3.589  25.750  47.671  1.00  0.00     0.019 C 
ENDBRANCH  22  25
ENDBRANCH  16  19
ENDBRANCH   1  15
BRANCH   1  29
HETATM   29  C   UNL     1       5.462  25.601  56.772  1.00  0.00     0.426 C 
HETATM   30  F   UNL     1       5.170  24.502  56.032  1.00  0.00    -0.167 F 
HETATM   31  F   UNL     1       6.260  25.174  57.777  1.00  0.00    -0.167 F 
HETATM   32  F   UNL     1       4.300  26.022  57.324  1.00  0.00    -0.167 F 
ENDBRANCH   1  29
BRANCH   7  33
HETATM   33  C   UNL     1       8.181  29.930  58.779  1.00  0.00     0.140 C 
BRANCH  33  34
HETATM   34  C   UNL     1       8.363  31.427  59.033  1.00  0.00     0.059 C 
BRANCH  34  35
HETATM   35  C   UNL     1       8.271  31.721  60.513  1.00  0.00    -0.057 A 
HETATM   36  C   UNL     1       8.744  30.795  61.454  1.00  0.00     0.007 A 
HETATM   37  C   UNL     1       8.592  31.036  62.820  1.00  0.00     0.001 A 
HETATM   38  C   UNL     1       7.971  32.204  63.259  1.00  0.00     0.000 A 
HETATM   39  C   UNL     1       7.503  33.133  62.333  1.00  0.00     0.001 A 
HETATM   40  C   UNL     1       7.649  32.893  60.965  1.00  0.00     0.007 A 
ENDBRANCH  34  35
ENDBRANCH  33  34
ENDBRANCH   7  33
TORSDOF 7
ENDMDL
MODEL 8
REMARK VINA RESULT:      -8.7      3.079      5.117
REMARK  7 active torsions:
REMARK  status: ('A' for Active; 'I' for Inactive)
REMARK    1  A    between atoms: C_2  and  C_3 
REMARK    2  A    between atoms: C_6  and  C_7 
REMARK       I    between atoms: C_7  and  N_8 
REMARK    3  A    between atoms: N_8  and  C_9 
REMARK    4  A    between atoms: C_9  and  C_10 
REMARK    5  A    between atoms: N_19  and  C_20 
REMARK    6  A    between atoms: C_20  and  C_21 
REMARK    7  A    between atoms: C_21  and  C_22 
ROOT
HETATM    1  C   UNL     1       5.016  31.830  59.074  1.00  0.00     0.249 C 
HETATM    2  C   UNL     1       3.775  31.599  59.961  1.00  0.00     0.266 C 
HETATM    3  O   UNL     1       2.648  31.294  59.607  1.00  0.00    -0.270 OA
HETATM    4  N   UNL     1       4.157  31.833  61.281  1.00  0.00    -0.310 N 
HETATM    5  C   UNL     1       5.493  32.037  61.374  1.00  0.00     0.129 C 
HETATM    6  C   UNL     1       6.035  31.984  60.159  1.00  0.00     0.101 C 
HETATM    7  N   UNL     1       6.219  32.294  62.504  1.00  0.00    -0.284 N 
HETATM    8  C   UNL     1       7.611  32.393  62.435  1.00  0.00     0.331 C 
HETATM    9  O   UNL     1       8.336  32.611  63.403  1.00  0.00    -0.246 OA
HETATM   10  N   UNL     1       8.157  32.264  61.178  1.00  0.00    -0.275 N 
HETATM   11  C   UNL     1       7.465  32.155  60.001  1.00  0.00     0.262 C 
HETATM   12  O   UNL     1       7.987  32.204  58.896  1.00  0.00    -0.267 OA
HETATM   13  H   UNL     1       3.512  31.729  62.050  1.00  0.00     0.170 HD
HETATM   14  H   UNL     1       9.156  32.387  61.114  1.00  0.00     0.173 HD
ENDROOT
BRANCH   1  15
HETATM   15  N   UNL     1       5.336  30.753  58.122  1.00  0.00    -0.327 N 
HETATM   16  C   UNL     1       4.467  30.320  57.150  1.00  0.00     0.253 C 
HETATM   17  O   UNL     1       3.389  30.862  56.936  1.00  0.00    -0.268 OA
HETATM   18  H   UNL     1       5.988  30.060  58.475  1.00  0.00     0.164 HD
BRANCH  16  19
HETATM   19  C   UNL     1       4.885  29.096  56.403  1.00  0.00     0.032 A 
HETATM   20  C   UNL     1       4.363  28.780  55.144  1.00  0.00     0.017 A 
HETATM   21  C   UNL     1       4.816  27.648  54.456  1.00  0.00     0.009 A 
HETATM   22  C   UNL     1       5.793  26.793  55.000  1.00  0.00    -0.051 A 
HETATM   23  C   UNL     1       6.273  27.104  56.283  1.00  0.00     0.009 A 
HETATM   24  C   UNL     1       5.825  28.239  56.978  1.00  0.00     0.017 A 
BRANCH  22  25
HETATM   25  C   UNL     1       6.276  25.568  54.201  1.00  0.00    -0.024 C 
HETATM   26  C   UNL     1       6.715  24.442  55.165  1.00  0.00     0.019 C 
HETATM   27  C   UNL     1       7.476  25.975  53.322  1.00  0.00     0.019 C 
HETATM   28  C   UNL     1       5.199  24.966  53.271  1.00  0.00     0.019 C 
ENDBRANCH  22  25
ENDBRANCH  16  19
ENDBRANCH   1  15
BRANCH   1  29
HETATM   29  C   UNL     1       4.737  33.174  58.381  1.00  0.00     0.426 C 
HETATM   30  F   UNL     1       3.414  33.314  58.116  1.00  0.00    -0.167 F 
HETATM   31  F   UNL     1       5.077  34.229  59.155  1.00  0.00    -0.167 F 
HETATM   32  F   UNL     1       5.389  33.306  57.202  1.00  0.00    -0.167 F 
ENDBRANCH   1  29
BRANCH   7  33
HETATM   33  C   UNL     1       5.567  32.586  63.778  1.00  0.00     0.140 C 
BRANCH  33  34
HETATM   34  C   UNL     1       5.776  34.024  64.257  1.00  0.00     0.059 C 
BRANCH  34  35
HETATM   35  C   UNL     1       5.709  34.086  65.765  1.00  0.00    -0.057 A 
HETATM   36  C   UNL     1       4.471  34.090  66.424  1.00  0.00     0.007 A 
HETATM   37  C   UNL     1       4.410  34.220  67.813  1.00  0.00     0.001 A 
HETATM   38  C   UNL     1       5.583  34.344  68.555  1.00  0.00     0.000 A 
HETATM   39  C   UNL     1       6.818  34.335  67.911  1.00  0.00     0.001 A 
HETATM   40  C   UNL     1       6.883  34.210  66.522  1.00  0.00     0.007 A 
ENDBRANCH  34  35
ENDBRANCH  33  34
ENDBRANCH   7  33
TORSDOF 7
ENDMDL
MODEL 9
REMARK VINA RESULT:      -8.3      4.287     11.597
REMARK  7 active torsions:
REMARK  status: ('A' for Active; 'I' for Inactive)
REMARK    1  A    between atoms: C_2  and  C_3 
REMARK    2  A    between atoms: C_6  and  C_7 
REMARK       I    between atoms: C_7  and  N_8 
REMARK    3  A    between atoms: N_8  and  C_9 
REMARK    4  A    between atoms: C_9  and  C_10 
REMARK    5  A    between atoms: N_19  and  C_20 
REMARK    6  A    between atoms: C_20  and  C_21 
REMARK    7  A    between atoms: C_21  and  C_22 
ROOT
HETATM    1  C   UNL     1       5.918  32.801  61.658  1.00  0.00     0.249 C 
HETATM    2  C   UNL     1       4.911  32.681  60.497  1.00  0.00     0.266 C 
HETATM    3  O   UNL     1       3.762  33.087  60.458  1.00  0.00    -0.270 OA
HETATM    4  N   UNL     1       5.539  31.978  59.471  1.00  0.00    -0.310 N 
HETATM    5  C   UNL     1       6.846  31.762  59.755  1.00  0.00     0.129 C 
HETATM    6  C   UNL     1       7.126  32.264  60.956  1.00  0.00     0.101 C 
HETATM    7  N   UNL     1       7.770  31.111  58.986  1.00  0.00    -0.284 N 
HETATM    8  C   UNL     1       9.105  31.053  59.391  1.00  0.00     0.331 C 
HETATM    9  O   UNL     1       9.997  30.497  58.754  1.00  0.00    -0.246 OA
HETATM   10  N   UNL     1       9.386  31.640  60.605  1.00  0.00    -0.275 N 
HETATM   11  C   UNL     1       8.475  32.171  61.478  1.00  0.00     0.262 C 
HETATM   12  O   UNL     1       8.751  32.537  62.613  1.00  0.00    -0.267 OA
HETATM   13  H   UNL     1       5.078  31.787  58.593  1.00  0.00     0.170 HD
HETATM   14  H   UNL     1      10.338  31.555  60.927  1.00  0.00     0.173 HD
ENDROOT
BRANCH   1  15
HETATM   15  N   UNL     1       6.115  34.154  62.203  1.00  0.00    -0.327 N 
HETATM   16  C   UNL     1       5.089  34.932  62.684  1.00  0.00     0.253 C 
HETATM   17  O   UNL     1       3.940  34.522  62.787  1.00  0.00    -0.268 OA
HETATM   18  H   UNL     1       6.905  34.656  61.809  1.00  0.00     0.164 HD
BRANCH  16  19
HETATM   19  C   UNL     1       5.446  36.344  63.018  1.00  0.00     0.032 A 
HETATM   20  C   UNL     1       6.024  37.204  62.079  1.00  0.00     0.017 A 
HETATM   21  C   UNL     1       6.301  38.535  62.416  1.00  0.00     0.009 A 
HETATM   22  C   UNL     1       6.019  39.046  63.697  1.00  0.00    -0.051 A 
HETATM   23  C   UNL     1       5.478  38.155  64.639  1.00  0.00     0.009 A 
HETATM   24  C   UNL     1       5.197  36.821  64.306  1.00  0.00     0.017 A 
BRANCH  22  25
HETATM   25  C   UNL     1       6.323  40.522  64.021  1.00  0.00    -0.024 C 
HETATM   26  C   UNL     1       5.450  41.451  63.147  1.00  0.00     0.019 C 
HETATM   27  C   UNL     1       7.810  40.811  63.733  1.00  0.00     0.019 C 
HETATM   28  C   UNL     1       6.050  40.905  65.493  1.00  0.00     0.019 C 
ENDBRANCH  22  25
ENDBRANCH  16  19
ENDBRANCH   1  15
BRANCH   1  29
HETATM   29  C   UNL     1       5.400  31.806  62.710  1.00  0.00     0.426 C 
HETATM   30  F   UNL     1       6.171  30.690  62.738  1.00  0.00    -0.167 F 
HETATM   31  F   UNL     1       5.440  32.318  63.962  1.00  0.00    -0.167 F 
HETATM   32  F   UNL     1       4.131  31.400  62.475  1.00  0.00    -0.167 F 
ENDBRANCH   1  29
BRANCH   7  33
HETATM   33  C   UNL     1       7.376  30.365  57.792  1.00  0.00     0.140 C 
BRANCH  33  34
HETATM   34  C   UNL     1       7.305  28.853  58.011  1.00  0.00     0.059 C 
BRANCH  34  35
HETATM   35  C   UNL     1       7.327  28.132  56.683  1.00  0.00    -0.057 A 
HETATM   36  C   UNL     1       7.072  26.755  56.616  1.00  0.00     0.007 A 
HETATM   37  C   UNL     1       7.163  26.078  55.398  1.00  0.00     0.001 A 
HETATM   38  C   UNL     1       7.506  26.770  54.239  1.00  0.00     0.000 A 
HETATM   39  C   UNL     1       7.756  28.139  54.294  1.00  0.00     0.001 A 
HETATM   40  C   UNL     1       7.670  28.818  55.511  1.00  0.00     0.007 A 
ENDBRANCH  34  35
ENDBRANCH  33  34
ENDBRANCH   7  33
TORSDOF 7
ENDMDL
MODEL 10
REMARK VINA RESULT:      -8.1      2.611      9.727
REMARK  7 active torsions:
REMARK  status: ('A' for Active; 'I' for Inactive)
REMARK    1  A    between atoms: C_2  and  C_3 
REMARK    2  A    between atoms: C_6  and  C_7 
REMARK       I    between atoms: C_7  and  N_8 
REMARK    3  A    between atoms: N_8  and  C_9 
REMARK    4  A    between atoms: C_9  and  C_10 
REMARK    5  A    between atoms: N_19  and  C_20 
REMARK    6  A    between atoms: C_20  and  C_21 
REMARK    7  A    between atoms: C_21  and  C_22 
ROOT
HETATM    1  C   UNL     1       7.159  28.474  56.851  1.00  0.00     0.249 C 
HETATM    2  C   UNL     1       7.284  27.052  57.435  1.00  0.00     0.266 C 
HETATM    3  O   UNL     1       7.761  26.722  58.507  1.00  0.00    -0.270 OA
HETATM    4  N   UNL     1       6.771  26.166  56.488  1.00  0.00    -0.310 N 
HETATM    5  C   UNL     1       6.206  26.832  55.452  1.00  0.00     0.129 C 
HETATM    6  C   UNL     1       6.345  28.143  55.640  1.00  0.00     0.101 C 
HETATM    7  N   UNL     1       5.605  26.297  54.347  1.00  0.00    -0.284 N 
HETATM    8  C   UNL     1       4.992  27.131  53.409  1.00  0.00     0.331 C 
HETATM    9  O   UNL     1       4.423  26.730  52.396  1.00  0.00    -0.246 OA
HETATM   10  N   UNL     1       5.086  28.481  53.659  1.00  0.00    -0.275 N 
HETATM   11  C   UNL     1       5.801  29.070  54.667  1.00  0.00     0.262 C 
HETATM   12  O   UNL     1       5.987  30.276  54.758  1.00  0.00    -0.267 OA
HETATM   13  H   UNL     1       6.732  25.171  56.653  1.00  0.00     0.170 HD
HETATM   14  H   UNL     1       4.691  29.090  52.959  1.00  0.00     0.173 HD
ENDROOT
BRANCH   1  15
HETATM   15  N   UNL     1       6.524  29.474  57.724  1.00  0.00    -0.327 N 
HETATM   16  C   UNL     1       5.163  29.663  57.793  1.00  0.00     0.253 C 
HETATM   17  O   UNL     1       4.365  28.947  57.203  1.00  0.00    -0.268 OA
HETATM   18  H   UNL     1       7.095  30.292  57.914  1.00  0.00     0.164 HD
BRANCH  16  19
HETATM   19  C   UNL     1       4.711  30.847  58.586  1.00  0.00     0.032 A 
HETATM   20  C   UNL     1       3.427  30.925  59.133  1.00  0.00     0.017 A 
HETATM   21  C   UNL     1       3.057  32.030  59.909  1.00  0.00     0.009 A 
HETATM   22  C   UNL     1       3.948  33.091  60.157  1.00  0.00    -0.051 A 
HETATM   23  C   UNL     1       5.219  33.014  59.563  1.00  0.00     0.009 A 
HETATM   24  C   UNL     1       5.596  31.908  58.785  1.00  0.00     0.017 A 
BRANCH  22  25
HETATM   25  C   UNL     1       3.506  34.280  61.032  1.00  0.00    -0.024 C 
HETATM   26  C   UNL     1       2.291  34.991  60.392  1.00  0.00     0.019 C 
HETATM   27  C   UNL     1       4.670  35.284  61.153  1.00  0.00     0.019 C 
HETATM   28  C   UNL     1       3.086  33.878  62.463  1.00  0.00     0.019 C 
ENDBRANCH  22  25
ENDBRANCH  16  19
ENDBRANCH   1  15
BRANCH   1  29
HETATM   29  C   UNL     1       8.599  28.850  56.465  1.00  0.00     0.426 C 
HETATM   30  F   UNL     1       8.973  30.006  57.069  1.00  0.00    -0.167 F 
HETATM   31  F   UNL     1       9.495  27.916  56.858  1.00  0.00    -0.167 F 
HETATM   32  F   UNL     1       8.759  29.034  55.134  1.00  0.00    -0.167 F 
ENDBRANCH   1  29
BRANCH   7  33
HETATM   33  C   UNL     1       5.685  24.867  54.054  1.00  0.00     0.140 C 
BRANCH  33  34
HETATM   34  C   UNL     1       6.993  24.454  53.376  1.00  0.00     0.059 C 
BRANCH  34  35
HETATM   35  C   UNL     1       7.388  23.061  53.810  1.00  0.00    -0.057 A 
HETATM   36  C   UNL     1       7.417  22.721  55.170  1.00  0.00     0.007 A 
HETATM   37  C   UNL     1       7.852  21.456  55.572  1.00  0.00     0.001 A 
HETATM   38  C   UNL     1       8.256  20.521  54.621  1.00  0.00     0.000 A 
HETATM   39  C   UNL     1       8.225  20.848  53.268  1.00  0.00     0.001 A 
HETATM   40  C   UNL     1       7.795  22.113  52.862  1.00  0.00     0.007 A 
ENDBRANCH  34  35
ENDBRANCH  33  34
ENDBRANCH   7  33
TORSDOF 7
ENDMDL
