MODEL 1
REMARK VINA RESULT:      -8.8      0.000      0.000
REMARK  6 active torsions:
REMARK  status: ('A' for Active; 'I' for Inactive)
REMARK    1  A    between atoms: N_2  and  C_4 
REMARK    2  A    between atoms: C_4  and  C_5 
REMARK    3  A    between atoms: C_5  and  C_6 
REMARK    4  A    between atoms: C_6  and  N_7 
REMARK    5  A    between atoms: C_17  and  C_18 
REMARK    6  A    between atoms: C_26  and  O_27 
ROOT
HETATM    1  N   UNL     1       4.115  27.911  51.826  1.00  0.00    -0.327 N 
HETATM    2  C   UNL     1       4.436  27.460  53.048  1.00  0.00     0.113 C 
HETATM    3  N   UNL     1       3.917  27.925  54.171  1.00  0.00    -0.385 N 
HETATM    4  H   UNL     1       4.206  27.580  55.080  1.00  0.00     0.157 HD
HETATM    5  H   UNL     1       3.292  28.714  54.228  1.00  0.00     0.157 HD
HETATM    6  C   UNL     1       5.444  26.350  53.125  1.00  0.00     0.052 C 
HETATM    7  C   UNL     1       5.987  25.902  51.979  1.00  0.00     0.182 C 
HETATM    8  O   UNL     1       6.907  24.867  51.933  1.00  0.00    -0.291 OA
HETATM    9  C   UNL     1       7.171  24.136  53.063  1.00  0.00     0.087 A 
HETATM   10  C   UNL     1       6.682  24.504  54.317  1.00  0.00    -0.011 A 
HETATM   11  C   UNL     1       5.864  25.766  54.461  1.00  0.00     0.095 C 
HETATM   12  C   UNL     1       7.964  22.998  52.901  1.00  0.00     0.074 A 
HETATM   13  C   UNL     1       8.253  22.212  54.009  1.00  0.00     0.068 A 
HETATM   14  C   UNL     1       7.763  22.547  55.266  1.00  0.00     0.037 A 
HETATM   15  C   UNL     1       6.980  23.690  55.423  1.00  0.00     0.014 A 
HETATM   16  N   UNL     1       5.724  26.471  50.767  1.00  0.00    -0.219 NA
HETATM   17  C   UNL     1       4.881  27.431  50.708  1.00  0.00     0.214 C 
ENDROOT
BRANCH   1  18
HETATM   18  C   UNL     1       3.136  29.011  51.614  1.00  0.00     0.133 C 
BRANCH  18  19
HETATM   19  C   UNL     1       2.847  29.396  50.151  1.00  0.00     0.048 C 
BRANCH  19  20
HETATM   20  C   UNL     1       1.616  28.713  49.550  1.00  0.00     0.235 C 
BRANCH  20  21
HETATM   21  N   UNL     1       2.009  27.722  48.467  1.00  0.00    -0.079 N 
HETATM   22  C   UNL     1       3.092  28.212  47.529  1.00  0.00     0.269 C 
HETATM   23  H   UNL     1       2.372  26.862  48.903  1.00  0.00     0.278 HD
HETATM   24  C   UNL     1       0.803  27.272  47.661  1.00  0.00     0.269 C 
ENDBRANCH  20  21
ENDBRANCH  19  20
ENDBRANCH  18  19
ENDBRANCH   1  18
BRANCH  11  25
HETATM   25  C   UNL     1       6.586  26.804  55.325  1.00  0.00    -0.045 A 
HETATM   26  C   UNL     1       6.281  26.958  56.690  1.00  0.00     0.010 A 
HETATM   27  C   UNL     1       6.959  27.896  57.471  1.00  0.00     0.024 A 
HETATM   28  C   UNL     1       7.936  28.703  56.894  1.00  0.00     0.034 A 
HETATM   29 CL   UNL     1       8.780  29.845  57.859  1.00  0.00    -0.084 Cl
HETATM   30  C   UNL     1       8.230  28.590  55.538  1.00  0.00     0.024 A 
HETATM   31  C   UNL     1       7.554  27.650  54.753  1.00  0.00     0.010 A 
ENDBRANCH  11  25
BRANCH  13  32
HETATM   32  O   UNL     1       9.019  21.090  53.913  1.00  0.00    -0.361 OA
HETATM   33  H   UNL     1       8.714  20.425  54.552  1.00  0.00     0.217 HD
ENDBRANCH  13  32
TORSDOF 6
ENDMDL
MODEL 2
REMARK VINA RESULT:      -8.7      1.631      3.029
REMARK  6 active torsions:
REMARK  status: ('A' for Active; 'I' for Inactive)
REMARK    1  A    between atoms: N_2  and  C_4 
REMARK    2  A    between atoms: C_4  and  C_5 
REMARK    3  A    between atoms: C_5  and  C_6 
REMARK    4  A    between atoms: C_6  and  N_7 
REMARK    5  A    between atoms: C_17  and  C_18 
REMARK    6  A    between atoms: C_26  and  O_27 
ROOT
HETATM    1  N   UNL     1       4.018  28.077  52.263  1.00  0.00    -0.327 N 
HETATM    2  C   UNL     1       4.433  27.563  53.431  1.00  0.00     0.113 C 
HETATM    3  N   UNL     1       4.012  27.974  54.614  1.00  0.00    -0.385 N 
HETATM    4  H   UNL     1       4.369  27.582  55.479  1.00  0.00     0.157 HD
HETATM    5  H   UNL     1       3.401  28.764  54.761  1.00  0.00     0.157 HD
HETATM    6  C   UNL     1       5.432  26.444  53.371  1.00  0.00     0.052 C 
HETATM    7  C   UNL     1       5.875  26.050  52.163  1.00  0.00     0.182 C 
HETATM    8  O   UNL     1       6.778  25.012  51.992  1.00  0.00    -0.291 OA
HETATM    9  C   UNL     1       7.125  24.225  53.059  1.00  0.00     0.087 A 
HETATM   10  C   UNL     1       6.743  24.532  54.365  1.00  0.00    -0.011 A 
HETATM   11  C   UNL     1       5.953  25.791  54.637  1.00  0.00     0.095 C 
HETATM   12  C   UNL     1       7.890  23.090  52.777  1.00  0.00     0.074 A 
HETATM   13  C   UNL     1       8.260  22.248  53.818  1.00  0.00     0.068 A 
HETATM   14  C   UNL     1       7.877  22.523  55.126  1.00  0.00     0.037 A 
HETATM   15  C   UNL     1       7.121  23.662  55.402  1.00  0.00     0.014 A 
HETATM   16  N   UNL     1       5.521  26.681  51.006  1.00  0.00    -0.219 NA
HETATM   17  C   UNL     1       4.686  27.648  51.064  1.00  0.00     0.214 C 
ENDROOT
BRANCH   1  18
HETATM   18  C   UNL     1       3.038  29.192  52.185  1.00  0.00     0.133 C 
BRANCH  18  19
HETATM   19  C   UNL     1       3.613  30.617  52.276  1.00  0.00     0.048 C 
BRANCH  19  20
HETATM   20  C   UNL     1       3.345  31.323  53.607  1.00  0.00     0.235 C 
BRANCH  20  21
HETATM   21  N   UNL     1       4.631  31.850  54.222  1.00  0.00    -0.079 N 
HETATM   22  C   UNL     1       4.880  31.395  55.644  1.00  0.00     0.269 C 
HETATM   23  H   UNL     1       5.436  31.521  53.669  1.00  0.00     0.278 HD
HETATM   24  C   UNL     1       4.702  33.364  54.152  1.00  0.00     0.269 C 
ENDBRANCH  20  21
ENDBRANCH  19  20
ENDBRANCH  18  19
ENDBRANCH   1  18
BRANCH  11  25
HETATM   25  C   UNL     1       6.754  26.780  55.490  1.00  0.00    -0.045 A 
HETATM   26  C   UNL     1       6.619  26.813  56.890  1.00  0.00     0.010 A 
HETATM   27  C   UNL     1       7.367  27.708  57.658  1.00  0.00     0.024 A 
HETATM   28  C   UNL     1       8.245  28.591  57.034  1.00  0.00     0.034 A 
HETATM   29 CL   UNL     1       9.177  29.679  57.981  1.00  0.00    -0.084 Cl
HETATM   30  C   UNL     1       8.369  28.596  55.648  1.00  0.00     0.024 A 
HETATM   31  C   UNL     1       7.623  27.701  54.876  1.00  0.00     0.010 A 
ENDBRANCH  11  25
BRANCH  13  32
HETATM   32  O   UNL     1       9.003  21.128  53.604  1.00  0.00    -0.361 OA
HETATM   33  H   UNL     1       8.423  20.351  53.550  1.00  0.00     0.217 HD
ENDBRANCH  13  32
TORSDOF 6
ENDMDL
MODEL 3
REMARK VINA RESULT:      -8.5      9.811     13.410
REMARK  6 active torsions:
REMARK  status: ('A' for Active; 'I' for Inactive)
REMARK    1  A    between atoms: N_2  and  C_4 
REMARK    2  A    between atoms: C_4  and  C_5 
REMARK    3  A    between atoms: C_5  and  C_6 
REMARK    4  A    between atoms: C_6  and  N_7 
REMARK    5  A    between atoms: C_17  and  C_18 
REMARK    6  A    between atoms: C_26  and  O_27 
ROOT
HETATM    1  N   UNL     1       7.201  32.095  61.145  1.00  0.00    -0.327 N 
HETATM    2  C   UNL     1       6.126  32.808  61.513  1.00  0.00     0.113 C 
HETATM    3  N   UNL     1       5.119  33.099  60.708  1.00  0.00    -0.385 N 
HETATM    4  H   UNL     1       4.334  33.665  61.012  1.00  0.00     0.157 HD
HETATM    5  H   UNL     1       5.094  32.885  59.722  1.00  0.00     0.157 HD
HETATM    6  C   UNL     1       6.075  33.289  62.933  1.00  0.00     0.052 C 
HETATM    7  C   UNL     1       7.118  33.011  63.738  1.00  0.00     0.182 C 
HETATM    8  O   UNL     1       7.164  33.387  65.071  1.00  0.00    -0.291 OA
HETATM    9  C   UNL     1       6.050  33.915  65.671  1.00  0.00     0.087 A 
HETATM   10  C   UNL     1       4.910  34.263  64.947  1.00  0.00    -0.011 A 
HETATM   11  C   UNL     1       4.896  34.093  63.446  1.00  0.00     0.095 C 
HETATM   12  C   UNL     1       6.112  34.096  67.055  1.00  0.00     0.074 A 
HETATM   13  C   UNL     1       5.008  34.616  67.719  1.00  0.00     0.068 A 
HETATM   14  C   UNL     1       3.853  34.954  67.022  1.00  0.00     0.037 A 
HETATM   15  C   UNL     1       3.801  34.779  65.639  1.00  0.00     0.014 A 
HETATM   16  N   UNL     1       8.248  32.390  63.291  1.00  0.00    -0.219 NA
HETATM   17  C   UNL     1       8.295  32.000  62.074  1.00  0.00     0.214 C 
ENDROOT
BRANCH   1  18
HETATM   18  C   UNL     1       7.376  31.567  59.766  1.00  0.00     0.133 C 
BRANCH  18  19
HETATM   19  C   UNL     1       8.430  30.458  59.586  1.00  0.00     0.048 C 
BRANCH  19  20
HETATM   20  C   UNL     1       9.620  30.854  58.709  1.00  0.00     0.235 C 
BRANCH  20  21
HETATM   21  N   UNL     1       9.636  30.063  57.412  1.00  0.00    -0.079 N 
HETATM   22  C   UNL     1       8.792  28.806  57.432  1.00  0.00     0.269 C 
HETATM   23  H   UNL     1       9.266  30.647  56.648  1.00  0.00     0.278 HD
HETATM   24  C   UNL     1      11.053  29.718  56.988  1.00  0.00     0.269 C 
ENDBRANCH  20  21
ENDBRANCH  19  20
ENDBRANCH  18  19
ENDBRANCH   1  18
BRANCH  11  25
HETATM   25  C   UNL     1       4.785  35.444  62.733  1.00  0.00    -0.045 A 
HETATM   26  C   UNL     1       5.871  36.338  62.689  1.00  0.00     0.010 A 
HETATM   27  C   UNL     1       5.763  37.560  62.021  1.00  0.00     0.024 A 
HETATM   28  C   UNL     1       4.564  37.910  61.405  1.00  0.00     0.034 A 
HETATM   29 CL   UNL     1       4.437  39.405  60.570  1.00  0.00    -0.084 Cl
HETATM   30  C   UNL     1       3.467  37.054  61.464  1.00  0.00     0.024 A 
HETATM   31  C   UNL     1       3.573  35.829  62.131  1.00  0.00     0.010 A 
ENDBRANCH  11  25
BRANCH  13  32
HETATM   32  O   UNL     1       5.008  34.813  69.066  1.00  0.00    -0.361 OA
HETATM   33  H   UNL     1       4.448  35.575  69.289  1.00  0.00     0.217 HD
ENDBRANCH  13  32
TORSDOF 6
ENDMDL
MODEL 4
REMARK VINA RESULT:      -8.2      4.016      7.557
REMARK  6 active torsions:
REMARK  status: ('A' for Active; 'I' for Inactive)
REMARK    1  A    between atoms: N_2  and  C_4 
REMARK    2  A    between atoms: C_4  and  C_5 
REMARK    3  A    between atoms: C_5  and  C_6 
REMARK    4  A    between atoms: C_6  and  N_7 
REMARK    5  A    between atoms: C_17  and  C_18 
REMARK    6  A    between atoms: C_26  and  O_27 
ROOT
HETATM    1  N   UNL     1       7.384  24.225  56.630  1.00  0.00    -0.327 N 
HETATM    2  C   UNL     1       6.448  25.155  56.390  1.00  0.00     0.113 C 
HETATM    3  N   UNL     1       5.291  24.908  55.801  1.00  0.00    -0.385 N 
HETATM    4  H   UNL     1       4.618  25.643  55.609  1.00  0.00     0.157 HD
HETATM    5  H   UNL     1       5.029  24.019  55.405  1.00  0.00     0.157 HD
HETATM    6  C   UNL     1       6.747  26.558  56.832  1.00  0.00     0.052 C 
HETATM    7  C   UNL     1       7.939  26.805  57.405  1.00  0.00     0.182 C 
HETATM    8  O   UNL     1       8.308  28.057  57.871  1.00  0.00    -0.291 OA
HETATM    9  C   UNL     1       7.384  29.069  57.918  1.00  0.00     0.087 A 
HETATM   10  C   UNL     1       6.117  28.946  57.346  1.00  0.00    -0.011 A 
HETATM   11  C   UNL     1       5.747  27.677  56.613  1.00  0.00     0.095 C 
HETATM   12  C   UNL     1       7.773  30.242  58.569  1.00  0.00     0.074 A 
HETATM   13  C   UNL     1       6.872  31.296  58.659  1.00  0.00     0.068 A 
HETATM   14  C   UNL     1       5.598  31.191  58.113  1.00  0.00     0.037 A 
HETATM   15  C   UNL     1       5.219  30.020  57.457  1.00  0.00     0.014 A 
HETATM   16  N   UNL     1       8.912  25.856  57.520  1.00  0.00    -0.219 NA
HETATM   17  C   UNL     1       8.661  24.666  57.122  1.00  0.00     0.214 C 
ENDROOT
BRANCH   1  18
HETATM   18  C   UNL     1       7.214  22.801  56.236  1.00  0.00     0.133 C 
BRANCH  18  19
HETATM   19  C   UNL     1       8.497  21.952  56.169  1.00  0.00     0.048 C 
BRANCH  19  20
HETATM   20  C   UNL     1       9.119  21.857  54.774  1.00  0.00     0.235 C 
BRANCH  20  21
HETATM   21  N   UNL     1       8.050  21.735  53.701  1.00  0.00    -0.079 N 
HETATM   22  C   UNL     1       8.221  20.547  52.777  1.00  0.00     0.269 C 
HETATM   23  H   UNL     1       7.127  21.624  54.145  1.00  0.00     0.278 HD
HETATM   24  C   UNL     1       7.938  23.006  52.879  1.00  0.00     0.269 C 
ENDBRANCH  20  21
ENDBRANCH  19  20
ENDBRANCH  18  19
ENDBRANCH   1  18
BRANCH  11  25
HETATM   25  C   UNL     1       5.516  27.941  55.123  1.00  0.00    -0.045 A 
HETATM   26  C   UNL     1       4.219  28.090  54.599  1.00  0.00     0.010 A 
HETATM   27  C   UNL     1       4.023  28.347  53.241  1.00  0.00     0.024 A 
HETATM   28  C   UNL     1       5.119  28.441  52.387  1.00  0.00     0.034 A 
HETATM   29 CL   UNL     1       4.878  28.774  50.720  1.00  0.00    -0.084 Cl
HETATM   30  C   UNL     1       6.410  28.265  52.879  1.00  0.00     0.024 A 
HETATM   31  C   UNL     1       6.610  28.009  54.239  1.00  0.00     0.010 A 
ENDBRANCH  11  25
BRANCH  13  32
HETATM   32  O   UNL     1       7.194  32.463  59.282  1.00  0.00    -0.361 OA
HETATM   33  H   UNL     1       6.429  32.796  59.778  1.00  0.00     0.217 HD
ENDBRANCH  13  32
TORSDOF 6
ENDMDL
MODEL 5
REMARK VINA RESULT:      -8.2      2.908      4.702
REMARK  6 active torsions:
REMARK  status: ('A' for Active; 'I' for Inactive)
REMARK    1  A    between atoms: N_2  and  C_4 
REMARK    2  A    between atoms: C_4  and  C_5 
REMARK    3  A    between atoms: C_5  and  C_6 
REMARK    4  A    between atoms: C_6  and  N_7 
REMARK    5  A    between atoms: C_17  and  C_18 
REMARK    6  A    between atoms: C_26  and  O_27 
ROOT
HETATM    1  N   UNL     1       3.998  28.484  51.370  1.00  0.00    -0.327 N 
HETATM    2  C   UNL     1       5.206  28.044  51.750  1.00  0.00     0.113 C 
HETATM    3  N   UNL     1       6.096  27.513  50.929  1.00  0.00    -0.385 N 
HETATM    4  H   UNL     1       6.990  27.164  51.256  1.00  0.00     0.157 HD
HETATM    5  H   UNL     1       5.926  27.314  49.955  1.00  0.00     0.157 HD
HETATM    6  C   UNL     1       5.559  28.180  53.203  1.00  0.00     0.052 C 
HETATM    7  C   UNL     1       4.638  28.696  54.036  1.00  0.00     0.182 C 
HETATM    8  O   UNL     1       4.866  28.887  55.390  1.00  0.00    -0.291 OA
HETATM    9  C   UNL     1       6.126  28.712  55.902  1.00  0.00     0.087 A 
HETATM   10  C   UNL     1       7.167  28.169  55.147  1.00  0.00    -0.011 A 
HETATM   11  C   UNL     1       6.906  27.720  53.728  1.00  0.00     0.095 C 
HETATM   12  C   UNL     1       6.322  29.100  57.229  1.00  0.00     0.074 A 
HETATM   13  C   UNL     1       7.582  28.957  57.797  1.00  0.00     0.068 A 
HETATM   14  C   UNL     1       8.639  28.436  57.060  1.00  0.00     0.037 A 
HETATM   15  C   UNL     1       8.435  28.042  55.738  1.00  0.00     0.014 A 
HETATM   16  N   UNL     1       3.375  29.018  53.631  1.00  0.00    -0.219 NA
HETATM   17  C   UNL     1       3.072  28.881  52.396  1.00  0.00     0.214 C 
ENDROOT
BRANCH   1  18
HETATM   18  C   UNL     1       3.525  28.401  49.962  1.00  0.00     0.133 C 
BRANCH  18  19
HETATM   19  C   UNL     1       2.001  28.468  49.747  1.00  0.00     0.048 C 
BRANCH  19  20
HETATM   20  C   UNL     1       1.577  28.655  48.289  1.00  0.00     0.235 C 
BRANCH  20  21
HETATM   21  N   UNL     1       1.024  27.366  47.705  1.00  0.00    -0.079 N 
HETATM   22  C   UNL     1       2.077  26.361  47.288  1.00  0.00     0.269 C 
HETATM   23  H   UNL     1       0.437  26.893  48.409  1.00  0.00     0.278 HD
HETATM   24  C   UNL     1       0.090  27.638  46.540  1.00  0.00     0.269 C 
ENDBRANCH  20  21
ENDBRANCH  19  20
ENDBRANCH  18  19
ENDBRANCH   1  18
BRANCH  11  25
HETATM   25  C   UNL     1       7.080  26.206  53.581  1.00  0.00    -0.045 A 
HETATM   26  C   UNL     1       6.388  25.308  54.414  1.00  0.00     0.010 A 
HETATM   27  C   UNL     1       6.541  23.928  54.259  1.00  0.00     0.024 A 
HETATM   28  C   UNL     1       7.401  23.432  53.283  1.00  0.00     0.034 A 
HETATM   29 CL   UNL     1       7.576  21.735  53.082  1.00  0.00    -0.084 Cl
HETATM   30  C   UNL     1       8.119  24.304  52.469  1.00  0.00     0.024 A 
HETATM   31  C   UNL     1       7.967  25.685  52.621  1.00  0.00     0.010 A 
ENDBRANCH  11  25
BRANCH  13  32
HETATM   32  O   UNL     1       7.833  29.319  59.085  1.00  0.00    -0.361 OA
HETATM   33  H   UNL     1       8.308  30.167  59.104  1.00  0.00     0.217 HD
ENDBRANCH  13  32
TORSDOF 6
ENDMDL
MODEL 6
REMARK VINA RESULT:      -7.8      8.268     11.616
REMARK  6 active torsions:
REMARK  status: ('A' for Active; 'I' for Inactive)
REMARK    1  A    between atoms: N_2  and  C_4 
REMARK    2  A    between atoms: C_4  and  C_5 
REMARK    3  A    between atoms: C_5  and  C_6 
REMARK    4  A    between atoms: C_6  and  N_7 
REMARK    5  A    between atoms: C_17  and  C_18 
REMARK    6  A    between atoms: C_26  and  O_27 
ROOT
HETATM    1  N   UNL     1       6.774  31.425  59.045  1.00  0.00    -0.327 N 
HETATM    2  C   UNL     1       5.745  31.834  59.801  1.00  0.00     0.113 C 
HETATM    3  N   UNL     1       4.475  31.722  59.450  1.00  0.00    -0.385 N 
HETATM    4  H   UNL     1       3.723  32.068  60.035  1.00  0.00     0.157 HD
HETATM    5  H   UNL     1       4.158  31.394  58.550  1.00  0.00     0.157 HD
HETATM    6  C   UNL     1       6.072  32.446  61.132  1.00  0.00     0.052 C 
HETATM    7  C   UNL     1       7.367  32.580  61.470  1.00  0.00     0.182 C 
HETATM    8  O   UNL     1       7.781  33.110  62.683  1.00  0.00    -0.291 OA
HETATM    9  C   UNL     1       6.861  33.360  63.668  1.00  0.00     0.087 A 
HETATM   10  C   UNL     1       5.487  33.273  63.442  1.00  0.00    -0.011 A 
HETATM   11  C   UNL     1       4.975  32.928  62.063  1.00  0.00     0.095 C 
HETATM   12  C   UNL     1       7.367  33.715  64.920  1.00  0.00     0.074 A 
HETATM   13  C   UNL     1       6.482  33.967  65.961  1.00  0.00     0.068 A 
HETATM   14  C   UNL     1       5.109  33.870  65.766  1.00  0.00     0.037 A 
HETATM   15  C   UNL     1       4.610  33.524  64.511  1.00  0.00     0.014 A 
HETATM   16  N   UNL     1       8.387  32.265  60.620  1.00  0.00    -0.219 NA
HETATM   17  C   UNL     1       8.103  31.764  59.478  1.00  0.00     0.214 C 
ENDROOT
BRANCH   1  18
HETATM   18  C   UNL     1       6.585  30.810  57.705  1.00  0.00     0.133 C 
BRANCH  18  19
HETATM   19  C   UNL     1       6.692  29.275  57.635  1.00  0.00     0.048 C 
BRANCH  19  20
HETATM   20  C   UNL     1       8.093  28.753  57.313  1.00  0.00     0.235 C 
BRANCH  20  21
HETATM   21  N   UNL     1       8.633  29.373  56.035  1.00  0.00    -0.079 N 
HETATM   22  C   UNL     1       8.389  28.552  54.786  1.00  0.00     0.269 C 
HETATM   23  H   UNL     1       8.176  30.283  55.875  1.00  0.00     0.278 HD
HETATM   24  C   UNL     1      10.112  29.694  56.153  1.00  0.00     0.269 C 
ENDBRANCH  20  21
ENDBRANCH  19  20
ENDBRANCH  18  19
ENDBRANCH   1  18
BRANCH  11  25
HETATM   25  C   UNL     1       4.192  34.094  61.451  1.00  0.00    -0.045 A 
HETATM   26  C   UNL     1       4.829  35.300  61.104  1.00  0.00     0.010 A 
HETATM   27  C   UNL     1       4.107  36.348  60.531  1.00  0.00     0.024 A 
HETATM   28  C   UNL     1       2.739  36.212  60.316  1.00  0.00     0.034 A 
HETATM   29 CL   UNL     1       1.855  37.496  59.596  1.00  0.00    -0.084 Cl
HETATM   30  C   UNL     1       2.083  35.039  60.682  1.00  0.00     0.024 A 
HETATM   31  C   UNL     1       2.803  33.986  61.254  1.00  0.00     0.010 A 
ENDBRANCH  11  25
BRANCH  13  32
HETATM   32  O   UNL     1       6.916  34.316  67.203  1.00  0.00    -0.361 OA
HETATM   33  H   UNL     1       6.424  35.091  67.521  1.00  0.00     0.217 HD
ENDBRANCH  13  32
TORSDOF 6
ENDMDL
MODEL 7
REMARK VINA RESULT:      -7.8      3.077      5.030
REMARK  6 active torsions:
REMARK  status: ('A' for Active; 'I' for Inactive)
REMARK    1  A    between atoms: N_2  and  C_4 
REMARK    2  A    between atoms: C_4  and  C_5 
REMARK    3  A    between atoms: C_5  and  C_6 
REMARK    4  A    between atoms: C_6  and  N_7 
REMARK    5  A    between atoms: C_17  and  C_18 
REMARK    6  A    between atoms: C_26  and  O_27 
ROOT
HETATM    1  N   UNL     1       4.020  28.334  51.442  1.00  0.00    -0.327 N 
HETATM    2  C   UNL     1       5.233  27.902  51.817  1.00  0.00     0.113 C 
HETATM    3  N   UNL     1       6.117  27.364  50.994  1.00  0.00    -0.385 N 
HETATM    4  H   UNL     1       7.015  27.021  51.318  1.00  0.00     0.157 HD
HETATM    5  H   UNL     1       5.939  27.152  50.024  1.00  0.00     0.157 HD
HETATM    6  C   UNL     1       5.598  28.054  53.265  1.00  0.00     0.052 C 
HETATM    7  C   UNL     1       4.683  28.578  54.101  1.00  0.00     0.182 C 
HETATM    8  O   UNL     1       4.923  28.785  55.450  1.00  0.00    -0.291 OA
HETATM    9  C   UNL     1       6.188  28.618  55.953  1.00  0.00     0.087 A 
HETATM   10  C   UNL     1       7.223  28.070  55.195  1.00  0.00    -0.011 A 
HETATM   11  C   UNL     1       6.951  27.605  53.783  1.00  0.00     0.095 C 
HETATM   12  C   UNL     1       6.394  29.023  57.274  1.00  0.00     0.074 A 
HETATM   13  C   UNL     1       7.659  28.890  57.832  1.00  0.00     0.068 A 
HETATM   14  C   UNL     1       8.711  28.363  57.092  1.00  0.00     0.037 A 
HETATM   15  C   UNL     1       8.497  27.953  55.776  1.00  0.00     0.014 A 
HETATM   16  N   UNL     1       3.416  28.891  53.703  1.00  0.00    -0.219 NA
HETATM   17  C   UNL     1       3.102  28.740  52.472  1.00  0.00     0.214 C 
ENDROOT
BRANCH   1  18
HETATM   18  C   UNL     1       3.535  28.234  50.040  1.00  0.00     0.133 C 
BRANCH  18  19
HETATM   19  C   UNL     1       3.218  29.562  49.329  1.00  0.00     0.048 C 
BRANCH  19  20
HETATM   20  C   UNL     1       4.360  30.581  49.356  1.00  0.00     0.235 C 
BRANCH  20  21
HETATM   21  N   UNL     1       4.388  31.413  48.085  1.00  0.00    -0.079 N 
HETATM   22  C   UNL     1       4.490  30.605  46.808  1.00  0.00     0.269 C 
HETATM   23  H   UNL     1       3.517  31.959  48.012  1.00  0.00     0.278 HD
HETATM   24  C   UNL     1       5.497  32.449  48.122  1.00  0.00     0.269 C 
ENDBRANCH  20  21
ENDBRANCH  19  20
ENDBRANCH  18  19
ENDBRANCH   1  18
BRANCH  11  25
HETATM   25  C   UNL     1       7.127  26.089  53.652  1.00  0.00    -0.045 A 
HETATM   26  C   UNL     1       7.949  25.532  52.654  1.00  0.00     0.010 A 
HETATM   27  C   UNL     1       8.114  24.149  52.556  1.00  0.00     0.024 A 
HETATM   28  C   UNL     1       7.447  23.306  53.441  1.00  0.00     0.034 A 
HETATM   29 CL   UNL     1       7.664  21.606  53.330  1.00  0.00    -0.084 Cl
HETATM   30  C   UNL     1       6.604  23.835  54.415  1.00  0.00     0.024 A 
HETATM   31  C   UNL     1       6.437  25.220  54.517  1.00  0.00     0.010 A 
ENDBRANCH  11  25
BRANCH  13  32
HETATM   32  O   UNL     1       7.921  29.267  59.113  1.00  0.00    -0.361 OA
HETATM   33  H   UNL     1       8.672  28.758  59.462  1.00  0.00     0.217 HD
ENDBRANCH  13  32
TORSDOF 6
ENDMDL
MODEL 8
REMARK VINA RESULT:      -7.6      3.986      7.768
REMARK  6 active torsions:
REMARK  status: ('A' for Active; 'I' for Inactive)
REMARK    1  A    between atoms: N_2  and  C_4 
REMARK    2  A    between atoms: C_4  and  C_5 
REMARK    3  A    between atoms: C_5  and  C_6 
REMARK    4  A    between atoms: C_6  and  N_7 
REMARK    5  A    between atoms: C_17  and  C_18 
REMARK    6  A    between atoms: C_26  and  O_27 
ROOT
HETATM    1  N   UNL     1       6.275  25.467  54.278  1.00  0.00    -0.327 N 
HETATM    2  C   UNL     1       5.274  26.263  53.874  1.00  0.00     0.113 C 
HETATM    3  N   UNL     1       4.305  25.881  53.061  1.00  0.00    -0.385 N 
HETATM    4  H   UNL     1       3.579  26.519  52.752  1.00  0.00     0.157 HD
HETATM    5  H   UNL     1       4.264  24.983  52.602  1.00  0.00     0.157 HD
HETATM    6  C   UNL     1       5.264  27.671  54.395  1.00  0.00     0.052 C 
HETATM    7  C   UNL     1       6.270  28.059  55.200  1.00  0.00     0.182 C 
HETATM    8  O   UNL     1       6.347  29.327  55.755  1.00  0.00    -0.291 OA
HETATM    9  C   UNL     1       5.288  30.190  55.637  1.00  0.00     0.087 A 
HETATM   10  C   UNL     1       4.191  29.914  54.820  1.00  0.00    -0.011 A 
HETATM   11  C   UNL     1       4.168  28.643  54.002  1.00  0.00     0.095 C 
HETATM   12  C   UNL     1       5.360  31.373  56.375  1.00  0.00     0.074 A 
HETATM   13  C   UNL     1       4.310  32.280  56.304  1.00  0.00     0.068 A 
HETATM   14  C   UNL     1       3.198  32.020  55.511  1.00  0.00     0.037 A 
HETATM   15  C   UNL     1       3.136  30.840  54.769  1.00  0.00     0.014 A 
HETATM   16  N   UNL     1       7.335  27.256  55.489  1.00  0.00    -0.219 NA
HETATM   17  C   UNL     1       7.350  26.064  55.025  1.00  0.00     0.214 C 
ENDROOT
BRANCH   1  18
HETATM   18  C   UNL     1       6.403  24.055  53.830  1.00  0.00     0.133 C 
BRANCH  18  19
HETATM   19  C   UNL     1       7.781  23.632  53.286  1.00  0.00     0.048 C 
BRANCH  19  20
HETATM   20  C   UNL     1       8.534  22.642  54.177  1.00  0.00     0.235 C 
BRANCH  20  21
HETATM   21  N   UNL     1       7.843  21.289  54.205  1.00  0.00    -0.079 N 
HETATM   22  C   UNL     1       8.149  20.451  55.428  1.00  0.00     0.269 C 
HETATM   23  H   UNL     1       6.821  21.424  54.196  1.00  0.00     0.278 HD
HETATM   24  C   UNL     1       8.140  20.486  52.951  1.00  0.00     0.269 C 
ENDBRANCH  20  21
ENDBRANCH  19  20
ENDBRANCH  18  19
ENDBRANCH   1  18
BRANCH  11  25
HETATM   25  C   UNL     1       4.195  28.945  52.501  1.00  0.00    -0.045 A 
HETATM   26  C   UNL     1       3.018  28.931  51.732  1.00  0.00     0.010 A 
HETATM   27  C   UNL     1       3.054  29.225  50.367  1.00  0.00     0.024 A 
HETATM   28  C   UNL     1       4.269  29.517  49.752  1.00  0.00     0.034 A 
HETATM   29 CL   UNL     1       4.310  29.894  48.077  1.00  0.00    -0.084 Cl
HETATM   30  C   UNL     1       5.450  29.504  50.489  1.00  0.00     0.024 A 
HETATM   31  C   UNL     1       5.417  29.212  51.856  1.00  0.00     0.010 A 
ENDBRANCH  11  25
BRANCH  13  32
HETATM   32  O   UNL     1       4.323  33.449  57.001  1.00  0.00    -0.361 OA
HETATM   33  H   UNL     1       4.747  33.315  57.865  1.00  0.00     0.217 HD
ENDBRANCH  13  32
TORSDOF 6
ENDMDL
MODEL 9
REMARK VINA RESULT:      -6.9      2.730      3.543
REMARK  6 active torsions:
REMARK  status: ('A' for Active; 'I' for Inactive)
REMARK    1  A    between atoms: N_2  and  C_4 
REMARK    2  A    between atoms: C_4  and  C_5 
REMARK    3  A    between atoms: C_5  and  C_6 
REMARK    4  A    between atoms: C_6  and  N_7 
REMARK    5  A    between atoms: C_17  and  C_18 
REMARK    6  A    between atoms: C_26  and  O_27 
ROOT
HETATM    1  N   UNL     1       4.642  30.377  52.891  1.00  0.00    -0.327 N 
HETATM    2  C   UNL     1       5.132  29.687  53.931  1.00  0.00     0.113 C 
HETATM    3  N   UNL     1       5.114  30.116  55.181  1.00  0.00    -0.385 N 
HETATM    4  H   UNL     1       5.521  29.579  55.940  1.00  0.00     0.157 HD
HETATM    5  H   UNL     1       4.805  31.032  55.466  1.00  0.00     0.157 HD
HETATM    6  C   UNL     1       5.726  28.340  53.640  1.00  0.00     0.052 C 
HETATM    7  C   UNL     1       5.764  27.922  52.361  1.00  0.00     0.182 C 
HETATM    8  O   UNL     1       6.268  26.688  51.984  1.00  0.00    -0.291 OA
HETATM    9  C   UNL     1       6.594  25.761  52.940  1.00  0.00     0.087 A 
HETATM   10  C   UNL     1       6.610  26.071  54.301  1.00  0.00    -0.011 A 
HETATM   11  C   UNL     1       6.296  27.479  54.752  1.00  0.00     0.095 C 
HETATM   12  C   UNL     1       6.918  24.481  52.487  1.00  0.00     0.074 A 
HETATM   13  C   UNL     1       7.243  23.497  53.412  1.00  0.00     0.068 A 
HETATM   14  C   UNL     1       7.249  23.776  54.774  1.00  0.00     0.037 A 
HETATM   15  C   UNL     1       6.934  25.059  55.220  1.00  0.00     0.014 A 
HETATM   16  N   UNL     1       5.367  28.708  51.318  1.00  0.00    -0.219 NA
HETATM   17  C   UNL     1       4.881  29.864  51.569  1.00  0.00     0.214 C 
ENDROOT
BRANCH   1  18
HETATM   18  C   UNL     1       4.034  31.726  53.043  1.00  0.00     0.133 C 
BRANCH  18  19
HETATM   19  C   UNL     1       2.644  31.779  53.706  1.00  0.00     0.048 C 
BRANCH  19  20
HETATM   20  C   UNL     1       1.922  33.119  53.551  1.00  0.00     0.235 C 
BRANCH  20  21
HETATM   21  N   UNL     1       0.418  32.927  53.454  1.00  0.00    -0.079 N 
HETATM   22  C   UNL     1      -0.251  33.743  52.368  1.00  0.00     0.269 C 
HETATM   23  H   UNL     1       0.209  31.940  53.243  1.00  0.00     0.278 HD
HETATM   24  C   UNL     1      -0.264  33.195  54.784  1.00  0.00     0.269 C 
ENDBRANCH  20  21
ENDBRANCH  19  20
ENDBRANCH  18  19
ENDBRANCH   1  18
BRANCH  11  25
HETATM   25  C   UNL     1       7.514  28.140  55.405  1.00  0.00    -0.045 A 
HETATM   26  C   UNL     1       7.610  28.275  56.802  1.00  0.00     0.010 A 
HETATM   27  C   UNL     1       8.733  28.864  57.386  1.00  0.00     0.024 A 
HETATM   28  C   UNL     1       9.764  29.341  56.581  1.00  0.00     0.034 A 
HETATM   29 CL   UNL     1      11.152  30.051  57.301  1.00  0.00    -0.084 Cl
HETATM   30  C   UNL     1       9.674  29.247  55.195  1.00  0.00     0.024 A 
HETATM   31  C   UNL     1       8.552  28.656  54.607  1.00  0.00     0.010 A 
ENDBRANCH  11  25
BRANCH  13  32
HETATM   32  O   UNL     1       7.566  22.231  53.029  1.00  0.00    -0.361 OA
HETATM   33  H   UNL     1       7.643  21.659  53.811  1.00  0.00     0.217 HD
ENDBRANCH  13  32
TORSDOF 6
ENDMDL
MODEL 10
REMARK VINA RESULT:      -6.9      4.768      8.471
REMARK  6 active torsions:
REMARK  status: ('A' for Active; 'I' for Inactive)
REMARK    1  A    between atoms: N_2  and  C_4 
REMARK    2  A    between atoms: C_4  and  C_5 
REMARK    3  A    between atoms: C_5  and  C_6 
REMARK    4  A    between atoms: C_6  and  N_7 
REMARK    5  A    between atoms: C_17  and  C_18 
REMARK    6  A    between atoms: C_26  and  O_27 
ROOT
HETATM    1  N   UNL     1       4.370  32.352  58.317  1.00  0.00    -0.327 N 
HETATM    2  C   UNL     1       4.204  31.123  57.806  1.00  0.00     0.113 C 
HETATM    3  N   UNL     1       3.998  30.038  58.534  1.00  0.00    -0.385 N 
HETATM    4  H   UNL     1       3.905  29.119  58.115  1.00  0.00     0.157 HD
HETATM    5  H   UNL     1       4.026  30.013  59.542  1.00  0.00     0.157 HD
HETATM    6  C   UNL     1       4.246  30.990  56.312  1.00  0.00     0.052 C 
HETATM    7  C   UNL     1       4.483  32.094  55.581  1.00  0.00     0.182 C 
HETATM    8  O   UNL     1       4.520  32.089  54.195  1.00  0.00    -0.291 OA
HETATM    9  C   UNL     1       4.139  30.967  53.505  1.00  0.00     0.087 A 
HETATM   10  C   UNL     1       3.881  29.753  54.144  1.00  0.00    -0.011 A 
HETATM   11  C   UNL     1       4.058  29.642  55.640  1.00  0.00     0.095 C 
HETATM   12  C   UNL     1       4.024  31.094  52.119  1.00  0.00     0.074 A 
HETATM   13  C   UNL     1       3.628  29.993  51.370  1.00  0.00     0.068 A 
HETATM   14  C   UNL     1       3.349  28.778  51.984  1.00  0.00     0.037 A 
HETATM   15  C   UNL     1       3.474  28.655  53.368  1.00  0.00     0.014 A 
HETATM   16  N   UNL     1       4.770  33.303  56.144  1.00  0.00    -0.219 NA
HETATM   17  C   UNL     1       4.753  33.408  57.419  1.00  0.00     0.214 C 
ENDROOT
BRANCH   1  18
HETATM   18  C   UNL     1       4.356  32.617  59.780  1.00  0.00     0.133 C 
BRANCH  18  19
HETATM   19  C   UNL     1       5.718  32.913  60.435  1.00  0.00     0.048 C 
BRANCH  19  20
HETATM   20  C   UNL     1       5.985  32.126  61.720  1.00  0.00     0.235 C 
BRANCH  20  21
HETATM   21  N   UNL     1       7.138  31.152  61.542  1.00  0.00    -0.079 N 
HETATM   22  C   UNL     1       8.215  31.253  62.601  1.00  0.00     0.269 C 
HETATM   23  H   UNL     1       6.782  30.186  61.583  1.00  0.00     0.278 HD
HETATM   24  C   UNL     1       7.765  31.278  60.165  1.00  0.00     0.269 C 
ENDBRANCH  20  21
ENDBRANCH  19  20
ENDBRANCH  18  19
ENDBRANCH   1  18
BRANCH  11  25
HETATM   25  C   UNL     1       5.189  28.674  55.998  1.00  0.00    -0.045 A 
HETATM   26  C   UNL     1       6.539  29.023  55.805  1.00  0.00     0.010 A 
HETATM   27  C   UNL     1       7.561  28.137  56.151  1.00  0.00     0.024 A 
HETATM   28  C   UNL     1       7.247  26.887  56.677  1.00  0.00     0.034 A 
HETATM   29 CL   UNL     1       8.506  25.805  57.117  1.00  0.00    -0.084 Cl
HETATM   30  C   UNL     1       5.917  26.509  56.845  1.00  0.00     0.024 A 
HETATM   31  C   UNL     1       4.891  27.394  56.502  1.00  0.00     0.010 A 
ENDBRANCH  11  25
BRANCH  13  32
HETATM   32  O   UNL     1       3.498  30.057  50.016  1.00  0.00    -0.361 OA
HETATM   33  H   UNL     1       3.363  29.165  49.654  1.00  0.00     0.217 HD
ENDBRANCH  13  32
TORSDOF 6
ENDMDL
