MODEL 1
REMARK VINA RESULT:     -11.1      0.000      0.000
REMARK  6 active torsions:
REMARK  status: ('A' for Active; 'I' for Inactive)
REMARK    1  A    between atoms: C_2  and  N_3 
REMARK    2  A    between atoms: C_11  and  C_12 
REMARK    3  A    between atoms: C_14  and  C_15 
REMARK    4  A    between atoms: C_15  and  O_16 
REMARK    5  A    between atoms: O_16  and  C_17 
REMARK    6  A    between atoms: C_19  and  C_20 
ROOT
HETATM    1  N   UNL     1       6.036  32.996  64.075  1.00  0.00    -0.067 N 
HETATM    2  H   UNL     1       5.625  32.067  64.235  1.00  0.00     0.280 HD
HETATM    3  C   UNL     1       5.513  33.465  62.717  1.00  0.00     0.281 C 
HETATM    4  C   UNL     1       6.150  32.706  61.603  1.00  0.00     0.018 A 
HETATM    5  C   UNL     1       7.272  31.907  61.721  1.00  0.00    -0.023 A 
HETATM    6  C   UNL     1       7.659  31.366  60.454  1.00  0.00     0.073 A 
HETATM    7  C   UNL     1       6.830  31.791  59.443  1.00  0.00     0.088 A 
HETATM    8  N   UNL     1       7.012  31.458  58.149  1.00  0.00    -0.357 N 
HETATM    9  C   UNL     1       7.898  30.356  57.814  1.00  0.00     0.243 C 
HETATM   10  N   UNL     1       8.947  30.241  58.798  1.00  0.00    -0.330 N 
HETATM   11  C   UNL     1       8.784  30.508  60.127  1.00  0.00     0.256 C 
HETATM   12  O   UNL     1       9.560  30.086  60.977  1.00  0.00    -0.267 OA
HETATM   13  S   UNL     1       5.578  32.796  60.003  1.00  0.00    -0.074 SA
HETATM   14  C   UNL     1       7.946  31.699  63.042  1.00  0.00     0.068 C 
HETATM   15  C   UNL     1       7.556  32.796  64.047  1.00  0.00     0.240 C 
HETATM   16  H   UNL     1       6.291  31.649  57.461  1.00  0.00     0.162 HD
HETATM   17  H   UNL     1       9.673  29.568  58.596  1.00  0.00     0.165 HD
ENDROOT
BRANCH   9  18
HETATM   18  C   UNL     1       7.251  29.018  57.650  1.00  0.00     0.095 A 
HETATM   19  O   UNL     1       8.096  27.942  57.642  1.00  0.00    -0.313 OA
HETATM   20  C   UNL     1       7.336  26.827  57.442  1.00  0.00     0.077 A 
HETATM   21  C   UNL     1       6.007  27.179  57.335  1.00  0.00     0.037 A 
HETATM   22  C   UNL     1       5.951  28.587  57.473  1.00  0.00     0.039 A 
BRANCH  20  23
HETATM   23  C   UNL     1       8.060  25.529  57.380  1.00  0.00     0.240 C 
BRANCH  23  24
HETATM   24  O   UNL     1       7.151  24.586  56.817  1.00  0.00    -0.345 OA
BRANCH  24  25
HETATM   25  C   UNL     1       7.472  24.061  55.596  1.00  0.00     0.070 A 
HETATM   26  C   UNL     1       7.647  22.706  55.302  1.00  0.00     0.052 A 
HETATM   27  C   UNL     1       7.982  22.293  53.999  1.00  0.00     0.050 A 
HETATM   28  C   UNL     1       8.136  23.260  52.993  1.00  0.00     0.016 A 
HETATM   29  C   UNL     1       7.958  24.610  53.283  1.00  0.00     0.004 A 
HETATM   30  C   UNL     1       7.627  25.005  54.579  1.00  0.00     0.037 A 
BRANCH  27  31
HETATM   31  C   UNL     1       8.174  20.833  53.671  1.00  0.00     0.417 C 
HETATM   32  F   UNL     1       8.490  20.072  54.758  1.00  0.00    -0.166 F 
HETATM   33  F   UNL     1       7.060  20.268  53.133  1.00  0.00    -0.166 F 
HETATM   34  F   UNL     1       9.174  20.628  52.771  1.00  0.00    -0.166 F 
ENDBRANCH  27  31
ENDBRANCH  24  25
ENDBRANCH  23  24
ENDBRANCH  20  23
ENDBRANCH   9  18
BRANCH   1  35
HETATM   35  C   UNL     1       5.625  33.894  65.216  1.00  0.00     0.231 C 
HETATM   36  C   UNL     1       6.739  34.025  66.238  1.00  0.00     0.034 C 
ENDBRANCH   1  35
TORSDOF 6
ENDMDL
MODEL 2
REMARK VINA RESULT:     -10.8      5.761     10.948
REMARK  6 active torsions:
REMARK  status: ('A' for Active; 'I' for Inactive)
REMARK    1  A    between atoms: C_2  and  N_3 
REMARK    2  A    between atoms: C_11  and  C_12 
REMARK    3  A    between atoms: C_14  and  C_15 
REMARK    4  A    between atoms: C_15  and  O_16 
REMARK    5  A    between atoms: O_16  and  C_17 
REMARK    6  A    between atoms: C_19  and  C_20 
ROOT
HETATM    1  N   UNL     1       8.324  21.769  54.611  1.00  0.00    -0.067 N 
HETATM    2  H   UNL     1       9.318  22.017  54.698  1.00  0.00     0.280 HD
HETATM    3  C   UNL     1       7.689  22.848  53.734  1.00  0.00     0.281 C 
HETATM    4  C   UNL     1       7.569  24.138  54.472  1.00  0.00     0.018 A 
HETATM    5  C   UNL     1       7.713  24.293  55.838  1.00  0.00    -0.023 A 
HETATM    6  C   UNL     1       7.481  25.649  56.234  1.00  0.00     0.073 A 
HETATM    7  C   UNL     1       7.158  26.446  55.161  1.00  0.00     0.088 A 
HETATM    8  N   UNL     1       6.848  27.753  55.279  1.00  0.00    -0.357 N 
HETATM    9  C   UNL     1       7.175  28.455  56.508  1.00  0.00     0.243 C 
HETATM   10  N   UNL     1       7.137  27.548  57.628  1.00  0.00    -0.330 N 
HETATM   11  C   UNL     1       7.502  26.234  57.563  1.00  0.00     0.256 C 
HETATM   12  O   UNL     1       7.787  25.586  58.564  1.00  0.00    -0.267 OA
HETATM   13  S   UNL     1       7.167  25.596  53.689  1.00  0.00    -0.074 SA
HETATM   14  C   UNL     1       8.053  23.134  56.723  1.00  0.00     0.068 C 
HETATM   15  C   UNL     1       7.747  21.795  56.031  1.00  0.00     0.240 C 
HETATM   16  H   UNL     1       6.782  28.343  54.455  1.00  0.00     0.162 HD
HETATM   17  H   UNL     1       7.249  27.965  58.542  1.00  0.00     0.165 HD
ENDROOT
BRANCH   9  18
HETATM   18  C   UNL     1       8.485  29.177  56.525  1.00  0.00     0.095 A 
HETATM   19  O   UNL     1       8.693  30.012  57.588  1.00  0.00    -0.313 OA
HETATM   20  C   UNL     1       9.908  30.607  57.410  1.00  0.00     0.077 A 
HETATM   21  C   UNL     1      10.486  30.149  56.245  1.00  0.00     0.037 A 
HETATM   22  C   UNL     1       9.574  29.226  55.677  1.00  0.00     0.039 A 
BRANCH  20  23
HETATM   23  C   UNL     1      10.335  31.578  58.452  1.00  0.00     0.240 C 
BRANCH  23  24
HETATM   24  O   UNL     1       9.148  32.210  58.924  1.00  0.00    -0.345 OA
BRANCH  24  25
HETATM   25  C   UNL     1       8.815  32.012  60.236  1.00  0.00     0.070 A 
HETATM   26  C   UNL     1       7.995  32.836  61.011  1.00  0.00     0.052 A 
HETATM   27  C   UNL     1       7.732  32.522  62.358  1.00  0.00     0.050 A 
HETATM   28  C   UNL     1       8.301  31.366  62.915  1.00  0.00     0.016 A 
HETATM   29  C   UNL     1       9.116  30.541  62.143  1.00  0.00     0.004 A 
HETATM   30  C   UNL     1       9.369  30.866  60.810  1.00  0.00     0.037 A 
BRANCH  27  31
HETATM   31  C   UNL     1       6.848  33.405  63.204  1.00  0.00     0.417 C 
HETATM   32  F   UNL     1       6.556  34.599  62.615  1.00  0.00    -0.166 F 
HETATM   33  F   UNL     1       5.650  32.826  63.488  1.00  0.00    -0.166 F 
HETATM   34  F   UNL     1       7.414  33.711  64.404  1.00  0.00    -0.166 F 
ENDBRANCH  27  31
ENDBRANCH  24  25
ENDBRANCH  23  24
ENDBRANCH  20  23
ENDBRANCH   9  18
BRANCH   1  35
HETATM   35  C   UNL     1       8.236  20.386  54.013  1.00  0.00     0.231 C 
HETATM   36  C   UNL     1       8.615  20.400  52.544  1.00  0.00     0.034 C 
ENDBRANCH   1  35
TORSDOF 6
ENDMDL
MODEL 3
REMARK VINA RESULT:     -10.4      1.869      2.349
REMARK  6 active torsions:
REMARK  status: ('A' for Active; 'I' for Inactive)
REMARK    1  A    between atoms: C_2  and  N_3 
REMARK    2  A    between atoms: C_11  and  C_12 
REMARK    3  A    between atoms: C_14  and  C_15 
REMARK    4  A    between atoms: C_15  and  O_16 
REMARK    5  A    between atoms: O_16  and  C_17 
REMARK    6  A    between atoms: C_19  and  C_20 
ROOT
HETATM    1  N   UNL     1       5.858  32.989  64.230  1.00  0.00    -0.067 N 
HETATM    2  H   UNL     1       5.439  32.058  64.350  1.00  0.00     0.280 HD
HETATM    3  C   UNL     1       5.391  33.494  62.865  1.00  0.00     0.281 C 
HETATM    4  C   UNL     1       6.071  32.762  61.759  1.00  0.00     0.018 A 
HETATM    5  C   UNL     1       7.185  31.957  61.901  1.00  0.00    -0.023 A 
HETATM    6  C   UNL     1       7.622  31.447  60.637  1.00  0.00     0.073 A 
HETATM    7  C   UNL     1       6.835  31.900  59.604  1.00  0.00     0.088 A 
HETATM    8  N   UNL     1       7.069  31.599  58.311  1.00  0.00    -0.357 N 
HETATM    9  C   UNL     1       7.965  30.503  57.984  1.00  0.00     0.243 C 
HETATM   10  N   UNL     1       8.973  30.360  59.006  1.00  0.00    -0.330 N 
HETATM   11  C   UNL     1       8.758  30.595  60.334  1.00  0.00     0.256 C 
HETATM   12  O   UNL     1       9.498  30.149  61.203  1.00  0.00    -0.267 OA
HETATM   13  S   UNL     1       5.564  32.894  60.139  1.00  0.00    -0.074 SA
HETATM   14  C   UNL     1       7.806  31.714  63.242  1.00  0.00     0.068 C 
HETATM   15  C   UNL     1       7.377  32.786  64.258  1.00  0.00     0.240 C 
HETATM   16  H   UNL     1       6.376  31.809  57.600  1.00  0.00     0.162 HD
HETATM   17  H   UNL     1       9.706  29.690  58.816  1.00  0.00     0.165 HD
ENDROOT
BRANCH   9  18
HETATM   18  C   UNL     1       7.322  29.172  57.761  1.00  0.00     0.095 A 
HETATM   19  O   UNL     1       8.170  28.098  57.718  1.00  0.00    -0.313 OA
HETATM   20  C   UNL     1       7.415  26.990  57.466  1.00  0.00     0.077 A 
HETATM   21  C   UNL     1       6.086  27.344  57.359  1.00  0.00     0.037 A 
HETATM   22  C   UNL     1       6.025  28.746  57.553  1.00  0.00     0.039 A 
BRANCH  20  23
HETATM   23  C   UNL     1       8.142  25.697  57.360  1.00  0.00     0.240 C 
BRANCH  23  24
HETATM   24  O   UNL     1       7.183  24.727  56.948  1.00  0.00    -0.345 OA
BRANCH  24  25
HETATM   25  C   UNL     1       7.141  24.418  55.617  1.00  0.00     0.070 A 
HETATM   26  C   UNL     1       6.237  24.927  54.681  1.00  0.00     0.052 A 
HETATM   27  C   UNL     1       6.297  24.523  53.334  1.00  0.00     0.050 A 
HETATM   28  C   UNL     1       7.281  23.604  52.938  1.00  0.00     0.016 A 
HETATM   29  C   UNL     1       8.185  23.097  53.869  1.00  0.00     0.004 A 
HETATM   30  C   UNL     1       8.113  23.506  55.200  1.00  0.00     0.037 A 
BRANCH  27  31
HETATM   31  C   UNL     1       5.326  25.067  52.315  1.00  0.00     0.417 C 
HETATM   32  F   UNL     1       4.597  26.124  52.774  1.00  0.00    -0.166 F 
HETATM   33  F   UNL     1       5.944  25.504  51.185  1.00  0.00    -0.166 F 
HETATM   34  F   UNL     1       4.417  24.136  51.913  1.00  0.00    -0.166 F 
ENDBRANCH  27  31
ENDBRANCH  24  25
ENDBRANCH  23  24
ENDBRANCH  20  23
ENDBRANCH   9  18
BRANCH   1  35
HETATM   35  C   UNL     1       5.403  33.859  65.377  1.00  0.00     0.231 C 
HETATM   36  C   UNL     1       4.707  35.109  64.873  1.00  0.00     0.034 C 
ENDBRANCH   1  35
TORSDOF 6
ENDMDL
MODEL 4
REMARK VINA RESULT:     -10.3      1.770      2.263
REMARK  6 active torsions:
REMARK  status: ('A' for Active; 'I' for Inactive)
REMARK    1  A    between atoms: C_2  and  N_3 
REMARK    2  A    between atoms: C_11  and  C_12 
REMARK    3  A    between atoms: C_14  and  C_15 
REMARK    4  A    between atoms: C_15  and  O_16 
REMARK    5  A    between atoms: O_16  and  C_17 
REMARK    6  A    between atoms: C_19  and  C_20 
ROOT
HETATM    1  N   UNL     1       5.365  33.236  62.179  1.00  0.00    -0.067 N 
HETATM    2  H   UNL     1       5.287  32.315  62.628  1.00  0.00     0.280 HD
HETATM    3  C   UNL     1       4.646  33.116  60.834  1.00  0.00     0.281 C 
HETATM    4  C   UNL     1       5.435  32.292  59.874  1.00  0.00     0.018 A 
HETATM    5  C   UNL     1       6.760  31.931  60.033  1.00  0.00    -0.023 A 
HETATM    6  C   UNL     1       7.233  31.187  58.905  1.00  0.00     0.073 A 
HETATM    7  C   UNL     1       6.258  31.036  57.947  1.00  0.00     0.088 A 
HETATM    8  N   UNL     1       6.470  30.414  56.771  1.00  0.00    -0.357 N 
HETATM    9  C   UNL     1       7.645  29.576  56.608  1.00  0.00     0.243 C 
HETATM   10  N   UNL     1       8.726  30.065  57.428  1.00  0.00    -0.330 N 
HETATM   11  C   UNL     1       8.556  30.645  58.653  1.00  0.00     0.256 C 
HETATM   12  O   UNL     1       9.471  30.736  59.464  1.00  0.00    -0.267 OA
HETATM   13  S   UNL     1       4.780  31.743  58.402  1.00  0.00    -0.074 SA
HETATM   14  C   UNL     1       7.535  32.323  61.252  1.00  0.00     0.068 C 
HETATM   15  C   UNL     1       6.864  33.496  61.986  1.00  0.00     0.240 C 
HETATM   16  H   UNL     1       5.689  30.175  56.166  1.00  0.00     0.162 HD
HETATM   17  H   UNL     1       9.619  29.610  57.305  1.00  0.00     0.165 HD
ENDROOT
BRANCH   9  18
HETATM   18  C   UNL     1       7.459  28.119  56.887  1.00  0.00     0.095 A 
HETATM   19  O   UNL     1       6.522  27.478  56.122  1.00  0.00    -0.313 OA
HETATM   20  C   UNL     1       6.464  26.183  56.546  1.00  0.00     0.077 A 
HETATM   21  C   UNL     1       7.366  25.984  57.569  1.00  0.00     0.037 A 
HETATM   22  C   UNL     1       8.010  27.228  57.786  1.00  0.00     0.039 A 
BRANCH  20  23
HETATM   23  C   UNL     1       5.488  25.298  55.855  1.00  0.00     0.240 C 
BRANCH  23  24
HETATM   24  O   UNL     1       6.024  25.039  54.560  1.00  0.00    -0.345 OA
BRANCH  24  25
HETATM   25  C   UNL     1       6.845  23.953  54.431  1.00  0.00     0.070 A 
HETATM   26  C   UNL     1       7.170  23.041  55.439  1.00  0.00     0.052 A 
HETATM   27  C   UNL     1       8.035  21.962  55.178  1.00  0.00     0.050 A 
HETATM   28  C   UNL     1       8.566  21.808  53.888  1.00  0.00     0.016 A 
HETATM   29  C   UNL     1       8.241  22.713  52.881  1.00  0.00     0.004 A 
HETATM   30  C   UNL     1       7.383  23.778  53.155  1.00  0.00     0.037 A 
BRANCH  27  31
HETATM   31  C   UNL     1       8.393  20.972  56.259  1.00  0.00     0.417 C 
HETATM   32  F   UNL     1       7.543  19.907  56.318  1.00  0.00    -0.166 F 
HETATM   33  F   UNL     1       9.637  20.447  56.095  1.00  0.00    -0.166 F 
HETATM   34  F   UNL     1       8.378  21.529  57.501  1.00  0.00    -0.166 F 
ENDBRANCH  27  31
ENDBRANCH  24  25
ENDBRANCH  23  24
ENDBRANCH  20  23
ENDBRANCH   9  18
BRANCH   1  35
HETATM   35  C   UNL     1       4.747  34.262  63.097  1.00  0.00     0.231 C 
HETATM   36  C   UNL     1       4.882  35.661  62.526  1.00  0.00     0.034 C 
ENDBRANCH   1  35
TORSDOF 6
ENDMDL
MODEL 5
REMARK VINA RESULT:     -10.3      5.838     11.018
REMARK  6 active torsions:
REMARK  status: ('A' for Active; 'I' for Inactive)
REMARK    1  A    between atoms: C_2  and  N_3 
REMARK    2  A    between atoms: C_11  and  C_12 
REMARK    3  A    between atoms: C_14  and  C_15 
REMARK    4  A    between atoms: C_15  and  O_16 
REMARK    5  A    between atoms: O_16  and  C_17 
REMARK    6  A    between atoms: C_19  and  C_20 
ROOT
HETATM    1  N   UNL     1       7.338  22.318  54.980  1.00  0.00    -0.067 N 
HETATM    2  H   UNL     1       6.337  22.444  55.179  1.00  0.00     0.280 HD
HETATM    3  C   UNL     1       8.088  22.974  56.140  1.00  0.00     0.281 C 
HETATM    4  C   UNL     1       7.996  24.460  56.068  1.00  0.00     0.018 A 
HETATM    5  C   UNL     1       7.569  25.181  54.969  1.00  0.00    -0.023 A 
HETATM    6  C   UNL     1       7.652  26.590  55.208  1.00  0.00     0.073 A 
HETATM    7  C   UNL     1       8.150  26.867  56.459  1.00  0.00     0.088 A 
HETATM    8  N   UNL     1       8.368  28.120  56.906  1.00  0.00    -0.357 N 
HETATM    9  C   UNL     1       7.766  29.242  56.207  1.00  0.00     0.243 C 
HETATM   10  N   UNL     1       7.616  28.936  54.805  1.00  0.00    -0.330 N 
HETATM   11  C   UNL     1       7.333  27.692  54.319  1.00  0.00     0.256 C 
HETATM   12  O   UNL     1       6.880  27.521  53.192  1.00  0.00    -0.267 OA
HETATM   13  S   UNL     1       8.481  25.462  57.357  1.00  0.00    -0.074 SA
HETATM   14  C   UNL     1       7.109  24.498  53.718  1.00  0.00     0.068 C 
HETATM   15  C   UNL     1       7.612  23.046  53.659  1.00  0.00     0.240 C 
HETATM   16  H   UNL     1       8.575  28.289  57.886  1.00  0.00     0.162 HD
HETATM   17  H   UNL     1       7.301  29.695  54.217  1.00  0.00     0.165 HD
ENDROOT
BRANCH   9  18
HETATM   18  C   UNL     1       6.448  29.714  56.734  1.00  0.00     0.095 A 
HETATM   19  O   UNL     1       6.501  30.706  57.675  1.00  0.00    -0.313 OA
HETATM   20  C   UNL     1       5.220  30.972  58.062  1.00  0.00     0.077 A 
HETATM   21  C   UNL     1       4.345  30.166  57.366  1.00  0.00     0.037 A 
HETATM   22  C   UNL     1       5.133  29.360  56.509  1.00  0.00     0.039 A 
BRANCH  20  23
HETATM   23  C   UNL     1       5.042  32.019  59.103  1.00  0.00     0.240 C 
BRANCH  23  24
HETATM   24  O   UNL     1       6.299  32.676  59.234  1.00  0.00    -0.345 OA
BRANCH  24  25
HETATM   25  C   UNL     1       6.923  32.596  60.449  1.00  0.00     0.070 A 
HETATM   26  C   UNL     1       6.396  33.013  61.674  1.00  0.00     0.052 A 
HETATM   27  C   UNL     1       7.145  32.878  62.858  1.00  0.00     0.050 A 
HETATM   28  C   UNL     1       8.428  32.314  62.796  1.00  0.00     0.016 A 
HETATM   29  C   UNL     1       8.953  31.894  61.577  1.00  0.00     0.004 A 
HETATM   30  C   UNL     1       8.201  32.034  60.411  1.00  0.00     0.037 A 
BRANCH  27  31
HETATM   31  C   UNL     1       6.586  33.326  64.186  1.00  0.00     0.417 C 
HETATM   32  F   UNL     1       6.415  34.676  64.272  1.00  0.00    -0.166 F 
HETATM   33  F   UNL     1       5.370  32.779  64.453  1.00  0.00    -0.166 F 
HETATM   34  F   UNL     1       7.391  32.987  65.231  1.00  0.00    -0.166 F 
ENDBRANCH  27  31
ENDBRANCH  24  25
ENDBRANCH  23  24
ENDBRANCH  20  23
ENDBRANCH   9  18
BRANCH   1  35
HETATM   35  C   UNL     1       7.610  20.839  54.855  1.00  0.00     0.231 C 
HETATM   36  C   UNL     1       8.033  20.477  53.443  1.00  0.00     0.034 C 
ENDBRANCH   1  35
TORSDOF 6
ENDMDL
MODEL 6
REMARK VINA RESULT:     -10.1      5.961      8.763
REMARK  6 active torsions:
REMARK  status: ('A' for Active; 'I' for Inactive)
REMARK    1  A    between atoms: C_2  and  N_3 
REMARK    2  A    between atoms: C_11  and  C_12 
REMARK    3  A    between atoms: C_14  and  C_15 
REMARK    4  A    between atoms: C_15  and  O_16 
REMARK    5  A    between atoms: O_16  and  C_17 
REMARK    6  A    between atoms: C_19  and  C_20 
ROOT
HETATM    1  N   UNL     1       1.982  28.000  49.389  1.00  0.00    -0.067 N 
HETATM    2  H   UNL     1       1.540  27.280  49.975  1.00  0.00     0.280 HD
HETATM    3  C   UNL     1       3.455  27.607  49.270  1.00  0.00     0.281 C 
HETATM    4  C   UNL     1       4.179  27.838  50.553  1.00  0.00     0.018 A 
HETATM    5  C   UNL     1       3.701  28.580  51.617  1.00  0.00    -0.023 A 
HETATM    6  C   UNL     1       4.665  28.652  52.673  1.00  0.00     0.073 A 
HETATM    7  C   UNL     1       5.822  27.982  52.355  1.00  0.00     0.088 A 
HETATM    8  N   UNL     1       6.898  27.942  53.165  1.00  0.00    -0.357 N 
HETATM    9  C   UNL     1       6.756  28.323  54.560  1.00  0.00     0.243 C 
HETATM   10  N   UNL     1       5.715  29.311  54.705  1.00  0.00    -0.330 N 
HETATM   11  C   UNL     1       4.581  29.347  53.945  1.00  0.00     0.256 C 
HETATM   12  O   UNL     1       3.579  29.959  54.298  1.00  0.00    -0.267 OA
HETATM   13  S   UNL     1       5.750  27.241  50.826  1.00  0.00    -0.074 SA
HETATM   14  C   UNL     1       2.343  29.209  51.581  1.00  0.00     0.068 C 
HETATM   15  C   UNL     1       1.820  29.327  50.140  1.00  0.00     0.240 C 
HETATM   16  H   UNL     1       7.664  27.304  52.974  1.00  0.00     0.162 HD
HETATM   17  H   UNL     1       5.611  29.715  55.626  1.00  0.00     0.165 HD
ENDROOT
BRANCH   9  18
HETATM   18  C   UNL     1       6.491  27.209  55.522  1.00  0.00     0.095 A 
HETATM   19  O   UNL     1       7.585  26.716  56.181  1.00  0.00    -0.313 OA
HETATM   20  C   UNL     1       7.157  25.690  56.973  1.00  0.00     0.077 A 
HETATM   21  C   UNL     1       5.794  25.531  56.836  1.00  0.00     0.037 A 
HETATM   22  C   UNL     1       5.364  26.510  55.907  1.00  0.00     0.039 A 
BRANCH  20  23
HETATM   23  C   UNL     1       8.195  24.990  57.776  1.00  0.00     0.240 C 
BRANCH  23  24
HETATM   24  O   UNL     1       9.086  24.384  56.842  1.00  0.00    -0.345 OA
BRANCH  24  25
HETATM   25  C   UNL     1       8.722  23.169  56.331  1.00  0.00     0.070 A 
HETATM   26  C   UNL     1       8.629  22.840  54.976  1.00  0.00     0.052 A 
HETATM   27  C   UNL     1       8.238  21.548  54.578  1.00  0.00     0.050 A 
HETATM   28  C   UNL     1       7.946  20.588  55.560  1.00  0.00     0.016 A 
HETATM   29  C   UNL     1       8.042  20.913  56.911  1.00  0.00     0.004 A 
HETATM   30  C   UNL     1       8.430  22.198  57.291  1.00  0.00     0.037 A 
BRANCH  27  31
HETATM   31  C   UNL     1       8.133  21.182  53.118  1.00  0.00     0.417 C 
HETATM   32  F   UNL     1       7.969  22.262  52.302  1.00  0.00    -0.166 F 
HETATM   33  F   UNL     1       9.239  20.535  52.661  1.00  0.00    -0.166 F 
HETATM   34  F   UNL     1       7.080  20.359  52.861  1.00  0.00    -0.166 F 
ENDBRANCH  27  31
ENDBRANCH  24  25
ENDBRANCH  23  24
ENDBRANCH  20  23
ENDBRANCH   9  18
BRANCH   1  35
HETATM   35  C   UNL     1       1.263  28.032  48.063  1.00  0.00     0.231 C 
HETATM   36  C   UNL     1       1.652  26.847  47.200  1.00  0.00     0.034 C 
ENDBRANCH   1  35
TORSDOF 6
ENDMDL
MODEL 7
REMARK VINA RESULT:     -10.1      6.125     11.452
REMARK  6 active torsions:
REMARK  status: ('A' for Active; 'I' for Inactive)
REMARK    1  A    between atoms: C_2  and  N_3 
REMARK    2  A    between atoms: C_11  and  C_12 
REMARK    3  A    between atoms: C_14  and  C_15 
REMARK    4  A    between atoms: C_15  and  O_16 
REMARK    5  A    between atoms: O_16  and  C_17 
REMARK    6  A    between atoms: C_19  and  C_20 
ROOT
HETATM    1  N   UNL     1       8.602  22.672  54.168  1.00  0.00    -0.067 N 
HETATM    2  H   UNL     1       9.331  22.978  54.826  1.00  0.00     0.280 HD
HETATM    3  C   UNL     1       8.298  23.878  53.279  1.00  0.00     0.281 C 
HETATM    4  C   UNL     1       7.546  24.924  54.029  1.00  0.00     0.018 A 
HETATM    5  C   UNL     1       6.930  24.741  55.253  1.00  0.00    -0.023 A 
HETATM    6  C   UNL     1       6.247  25.927  55.673  1.00  0.00     0.073 A 
HETATM    7  C   UNL     1       6.362  26.937  54.747  1.00  0.00     0.088 A 
HETATM    8  N   UNL     1       5.769  28.139  54.888  1.00  0.00    -0.357 N 
HETATM    9  C   UNL     1       5.259  28.535  56.190  1.00  0.00     0.243 C 
HETATM   10  N   UNL     1       4.843  27.374  56.938  1.00  0.00    -0.330 N 
HETATM   11  C   UNL     1       5.458  26.157  56.869  1.00  0.00     0.256 C 
HETATM   12  O   UNL     1       5.317  25.305  57.740  1.00  0.00    -0.267 OA
HETATM   13  S   UNL     1       7.307  26.490  53.406  1.00  0.00    -0.074 SA
HETATM   14  C   UNL     1       7.002  23.431  55.975  1.00  0.00     0.068 C 
HETATM   15  C   UNL     1       7.386  22.288  55.020  1.00  0.00     0.240 C 
HETATM   16  H   UNL     1       6.012  28.909  54.274  1.00  0.00     0.162 HD
HETATM   17  H   UNL     1       4.378  27.555  57.817  1.00  0.00     0.165 HD
ENDROOT
BRANCH   9  18
HETATM   18  C   UNL     1       6.187  29.342  57.042  1.00  0.00     0.095 A 
HETATM   19  O   UNL     1       5.626  30.407  57.693  1.00  0.00    -0.313 OA
HETATM   20  C   UNL     1       6.623  31.039  58.377  1.00  0.00     0.077 A 
HETATM   21  C   UNL     1       7.817  30.379  58.179  1.00  0.00     0.037 A 
HETATM   22  C   UNL     1       7.537  29.285  57.324  1.00  0.00     0.039 A 
BRANCH  20  23
HETATM   23  C   UNL     1       6.237  32.249  59.151  1.00  0.00     0.240 C 
BRANCH  23  24
HETATM   24  O   UNL     1       5.714  31.783  60.393  1.00  0.00    -0.345 OA
BRANCH  24  25
HETATM   25  C   UNL     1       6.380  32.154  61.528  1.00  0.00     0.070 A 
HETATM   26  C   UNL     1       5.814  32.749  62.658  1.00  0.00     0.052 A 
HETATM   27  C   UNL     1       6.613  33.089  63.766  1.00  0.00     0.050 A 
HETATM   28  C   UNL     1       7.989  32.817  63.726  1.00  0.00     0.016 A 
HETATM   29  C   UNL     1       8.555  32.220  62.602  1.00  0.00     0.004 A 
HETATM   30  C   UNL     1       7.751  31.891  61.511  1.00  0.00     0.037 A 
BRANCH  27  31
HETATM   31  C   UNL     1       6.011  33.732  64.991  1.00  0.00     0.417 C 
HETATM   32  F   UNL     1       6.812  33.652  66.092  1.00  0.00    -0.166 F 
HETATM   33  F   UNL     1       5.756  35.057  64.813  1.00  0.00    -0.166 F 
HETATM   34  F   UNL     1       4.828  33.164  65.351  1.00  0.00    -0.166 F 
ENDBRANCH  27  31
ENDBRANCH  24  25
ENDBRANCH  23  24
ENDBRANCH  20  23
ENDBRANCH   9  18
BRANCH   1  35
HETATM   35  C   UNL     1       9.130  21.483  53.403  1.00  0.00     0.231 C 
HETATM   36  C   UNL     1       7.999  20.578  52.951  1.00  0.00     0.034 C 
ENDBRANCH   1  35
TORSDOF 6
ENDMDL
MODEL 8
REMARK VINA RESULT:     -10.0      1.734      2.072
REMARK  6 active torsions:
REMARK  status: ('A' for Active; 'I' for Inactive)
REMARK    1  A    between atoms: C_2  and  N_3 
REMARK    2  A    between atoms: C_11  and  C_12 
REMARK    3  A    between atoms: C_14  and  C_15 
REMARK    4  A    between atoms: C_15  and  O_16 
REMARK    5  A    between atoms: O_16  and  C_17 
REMARK    6  A    between atoms: C_19  and  C_20 
ROOT
HETATM    1  N   UNL     1       5.518  33.001  64.463  1.00  0.00    -0.067 N 
HETATM    2  H   UNL     1       5.483  31.986  64.626  1.00  0.00     0.280 HD
HETATM    3  C   UNL     1       4.713  33.256  63.188  1.00  0.00     0.281 C 
HETATM    4  C   UNL     1       5.448  32.775  61.983  1.00  0.00     0.018 A 
HETATM    5  C   UNL     1       6.785  32.427  61.949  1.00  0.00    -0.023 A 
HETATM    6  C   UNL     1       7.192  32.062  60.626  1.00  0.00     0.073 A 
HETATM    7  C   UNL     1       6.159  32.165  59.726  1.00  0.00     0.088 A 
HETATM    8  N   UNL     1       6.300  31.922  58.408  1.00  0.00    -0.357 N 
HETATM    9  C   UNL     1       7.474  31.207  57.936  1.00  0.00     0.243 C 
HETATM   10  N   UNL     1       8.600  31.471  58.799  1.00  0.00    -0.330 N 
HETATM   11  C   UNL     1       8.503  31.661  60.148  1.00  0.00     0.256 C 
HETATM   12  O   UNL     1       9.469  31.541  60.893  1.00  0.00    -0.267 OA
HETATM   13  S   UNL     1       4.704  32.659  60.456  1.00  0.00    -0.074 SA
HETATM   14  C   UNL     1       7.634  32.471  63.182  1.00  0.00     0.068 C 
HETATM   15  C   UNL     1       6.997  33.355  64.267  1.00  0.00     0.240 C 
HETATM   16  H   UNL     1       5.485  31.845  57.808  1.00  0.00     0.162 HD
HETATM   17  H   UNL     1       9.489  31.101  58.494  1.00  0.00     0.165 HD
ENDROOT
BRANCH   9  18
HETATM   18  C   UNL     1       7.327  29.727  57.786  1.00  0.00     0.095 A 
HETATM   19  O   UNL     1       6.174  29.299  57.185  1.00  0.00    -0.313 OA
HETATM   20  C   UNL     1       6.201  27.935  57.175  1.00  0.00     0.077 A 
HETATM   21  C   UNL     1       7.368  27.485  57.754  1.00  0.00     0.037 A 
HETATM   22  C   UNL     1       8.095  28.637  58.143  1.00  0.00     0.039 A 
BRANCH  20  23
HETATM   23  C   UNL     1       5.024  27.249  56.577  1.00  0.00     0.240 C 
BRANCH  23  24
HETATM   24  O   UNL     1       5.132  27.419  55.166  1.00  0.00    -0.345 OA
BRANCH  24  25
HETATM   25  C   UNL     1       5.507  26.328  54.433  1.00  0.00     0.070 A 
HETATM   26  C   UNL     1       6.485  25.395  54.786  1.00  0.00     0.052 A 
HETATM   27  C   UNL     1       6.783  24.312  53.937  1.00  0.00     0.050 A 
HETATM   28  C   UNL     1       6.080  24.176  52.730  1.00  0.00     0.016 A 
HETATM   29  C   UNL     1       5.102  25.102  52.378  1.00  0.00     0.004 A 
HETATM   30  C   UNL     1       4.818  26.171  53.228  1.00  0.00     0.037 A 
BRANCH  27  31
HETATM   31  C   UNL     1       7.838  23.299  54.309  1.00  0.00     0.417 C 
HETATM   32  F   UNL     1       8.805  23.803  55.128  1.00  0.00    -0.166 F 
HETATM   33  F   UNL     1       7.322  22.222  54.961  1.00  0.00    -0.166 F 
HETATM   34  F   UNL     1       8.492  22.805  53.222  1.00  0.00    -0.166 F 
ENDBRANCH  27  31
ENDBRANCH  24  25
ENDBRANCH  23  24
ENDBRANCH  20  23
ENDBRANCH   9  18
BRANCH   1  35
HETATM   35  C   UNL     1       4.948  33.692  65.677  1.00  0.00     0.231 C 
HETATM   36  C   UNL     1       6.051  34.197  66.588  1.00  0.00     0.034 C 
ENDBRANCH   1  35
TORSDOF 6
ENDMDL
MODEL 9
REMARK VINA RESULT:     -10.0      4.979     10.284
REMARK  6 active torsions:
REMARK  status: ('A' for Active; 'I' for Inactive)
REMARK    1  A    between atoms: C_2  and  N_3 
REMARK    2  A    between atoms: C_11  and  C_12 
REMARK    3  A    between atoms: C_14  and  C_15 
REMARK    4  A    between atoms: C_15  and  O_16 
REMARK    5  A    between atoms: O_16  and  C_17 
REMARK    6  A    between atoms: C_19  and  C_20 
ROOT
HETATM    1  N   UNL     1       7.449  22.129  55.180  1.00  0.00    -0.067 N 
HETATM    2  H   UNL     1       6.436  22.221  55.329  1.00  0.00     0.280 HD
HETATM    3  C   UNL     1       8.118  22.899  56.319  1.00  0.00     0.281 C 
HETATM    4  C   UNL     1       7.962  24.371  56.137  1.00  0.00     0.018 A 
HETATM    5  C   UNL     1       7.551  24.992  54.973  1.00  0.00    -0.023 A 
HETATM    6  C   UNL     1       7.562  26.417  55.113  1.00  0.00     0.073 A 
HETATM    7  C   UNL     1       7.992  26.804  56.360  1.00  0.00     0.088 A 
HETATM    8  N   UNL     1       8.135  28.093  56.724  1.00  0.00    -0.357 N 
HETATM    9  C   UNL     1       7.513  29.134  55.924  1.00  0.00     0.243 C 
HETATM   10  N   UNL     1       7.438  28.725  54.543  1.00  0.00    -0.330 N 
HETATM   11  C   UNL     1       7.232  27.438  54.135  1.00  0.00     0.256 C 
HETATM   12  O   UNL     1       6.835  27.167  53.007  1.00  0.00    -0.267 OA
HETATM   13  S   UNL     1       8.346  25.482  57.369  1.00  0.00    -0.074 SA
HETATM   14  C   UNL     1       7.177  24.202  53.757  1.00  0.00     0.068 C 
HETATM   15  C   UNL     1       7.746  22.775  53.822  1.00  0.00     0.240 C 
HETATM   16  H   UNL     1       8.291  28.340  57.697  1.00  0.00     0.162 HD
HETATM   17  H   UNL     1       7.115  29.424  53.889  1.00  0.00     0.165 HD
ENDROOT
BRANCH   9  18
HETATM   18  C   UNL     1       6.154  29.579  56.362  1.00  0.00     0.095 A 
HETATM   19  O   UNL     1       6.064  30.867  56.814  1.00  0.00    -0.313 OA
HETATM   20  C   UNL     1       4.773  31.074  57.204  1.00  0.00     0.077 A 
HETATM   21  C   UNL     1       4.032  29.930  56.995  1.00  0.00     0.037 A 
HETATM   22  C   UNL     1       4.918  28.970  56.450  1.00  0.00     0.039 A 
BRANCH  20  23
HETATM   23  C   UNL     1       4.449  32.419  57.751  1.00  0.00     0.240 C 
BRANCH  23  24
HETATM   24  O   UNL     1       5.671  32.957  58.250  1.00  0.00    -0.345 OA
BRANCH  24  25
HETATM   25  C   UNL     1       6.013  32.639  59.535  1.00  0.00     0.070 A 
HETATM   26  C   UNL     1       7.209  32.045  59.946  1.00  0.00     0.052 A 
HETATM   27  C   UNL     1       7.439  31.764  61.306  1.00  0.00     0.050 A 
HETATM   28  C   UNL     1       6.453  32.093  62.249  1.00  0.00     0.016 A 
HETATM   29  C   UNL     1       5.262  32.690  61.842  1.00  0.00     0.004 A 
HETATM   30  C   UNL     1       5.047  32.961  60.491  1.00  0.00     0.037 A 
BRANCH  27  31
HETATM   31  C   UNL     1       8.727  31.122  61.760  1.00  0.00     0.417 C 
HETATM   32  F   UNL     1       9.177  30.156  60.910  1.00  0.00    -0.166 F 
HETATM   33  F   UNL     1       9.744  32.017  61.879  1.00  0.00    -0.166 F 
HETATM   34  F   UNL     1       8.609  30.521  62.976  1.00  0.00    -0.166 F 
ENDBRANCH  27  31
ENDBRANCH  24  25
ENDBRANCH  23  24
ENDBRANCH  20  23
ENDBRANCH   9  18
BRANCH   1  35
HETATM   35  C   UNL     1       7.792  20.659  55.172  1.00  0.00     0.231 C 
HETATM   36  C   UNL     1       8.929  20.356  56.129  1.00  0.00     0.034 C 
ENDBRANCH   1  35
TORSDOF 6
ENDMDL
MODEL 10
REMARK VINA RESULT:      -9.9      7.147     10.891
REMARK  6 active torsions:
REMARK  status: ('A' for Active; 'I' for Inactive)
REMARK    1  A    between atoms: C_2  and  N_3 
REMARK    2  A    between atoms: C_11  and  C_12 
REMARK    3  A    between atoms: C_14  and  C_15 
REMARK    4  A    between atoms: C_15  and  O_16 
REMARK    5  A    between atoms: O_16  and  C_17 
REMARK    6  A    between atoms: C_19  and  C_20 
ROOT
HETATM    1  N   UNL     1       0.296  27.918  46.691  1.00  0.00    -0.067 N 
HETATM    2  H   UNL     1      -0.247  27.857  47.562  1.00  0.00     0.280 HD
HETATM    3  C   UNL     1       1.420  26.888  46.818  1.00  0.00     0.281 C 
HETATM    4  C   UNL     1       2.451  27.334  47.798  1.00  0.00     0.018 A 
HETATM    5  C   UNL     1       2.568  28.615  48.306  1.00  0.00    -0.023 A 
HETATM    6  C   UNL     1       3.696  28.724  49.180  1.00  0.00     0.073 A 
HETATM    7  C   UNL     1       4.383  27.538  49.279  1.00  0.00     0.088 A 
HETATM    8  N   UNL     1       5.510  27.395  50.005  1.00  0.00    -0.357 N 
HETATM    9  C   UNL     1       5.857  28.406  50.989  1.00  0.00     0.243 C 
HETATM   10  N   UNL     1       5.361  29.696  50.577  1.00  0.00    -0.330 N 
HETATM   11  C   UNL     1       4.193  29.886  49.896  1.00  0.00     0.256 C 
HETATM   12  O   UNL     1       3.629  30.974  49.859  1.00  0.00    -0.267 OA
HETATM   13  S   UNL     1       3.670  26.292  48.368  1.00  0.00    -0.074 SA
HETATM   14  C   UNL     1       1.605  29.696  47.925  1.00  0.00     0.068 C 
HETATM   15  C   UNL     1       0.854  29.344  46.630  1.00  0.00     0.240 C 
HETATM   16  H   UNL     1       5.891  26.473  50.189  1.00  0.00     0.162 HD
HETATM   17  H   UNL     1       5.642  30.483  51.146  1.00  0.00     0.165 HD
ENDROOT
BRANCH   9  18
HETATM   18  C   UNL     1       5.401  28.146  52.389  1.00  0.00     0.095 A 
HETATM   19  O   UNL     1       5.780  26.947  52.928  1.00  0.00    -0.313 OA
HETATM   20  C   UNL     1       5.241  26.873  54.180  1.00  0.00     0.077 A 
HETATM   21  C   UNL     1       4.529  28.021  54.451  1.00  0.00     0.037 A 
HETATM   22  C   UNL     1       4.635  28.843  53.302  1.00  0.00     0.039 A 
BRANCH  20  23
HETATM   23  C   UNL     1       5.515  25.631  54.951  1.00  0.00     0.240 C 
BRANCH  23  24
HETATM   24  O   UNL     1       6.916  25.389  54.843  1.00  0.00    -0.345 OA
BRANCH  24  25
HETATM   25  C   UNL     1       7.313  24.095  54.645  1.00  0.00     0.070 A 
HETATM   26  C   UNL     1       7.581  23.154  55.642  1.00  0.00     0.052 A 
HETATM   27  C   UNL     1       7.988  21.850  55.304  1.00  0.00     0.050 A 
HETATM   28  C   UNL     1       8.117  21.501  53.951  1.00  0.00     0.016 A 
HETATM   29  C   UNL     1       7.846  22.437  52.955  1.00  0.00     0.004 A 
HETATM   30  C   UNL     1       7.444  23.726  53.304  1.00  0.00     0.037 A 
BRANCH  27  31
HETATM   31  C   UNL     1       8.282  20.826  56.373  1.00  0.00     0.417 C 
HETATM   32  F   UNL     1       9.447  20.148  56.166  1.00  0.00    -0.166 F 
HETATM   33  F   UNL     1       8.389  21.379  57.611  1.00  0.00    -0.166 F 
HETATM   34  F   UNL     1       7.311  19.876  56.466  1.00  0.00    -0.166 F 
ENDBRANCH  27  31
ENDBRANCH  24  25
ENDBRANCH  23  24
ENDBRANCH  20  23
ENDBRANCH   9  18
BRANCH   1  35
HETATM   35  C   UNL     1      -0.635  27.646  45.536  1.00  0.00     0.231 C 
HETATM   36  C   UNL     1      -1.118  28.939  44.905  1.00  0.00     0.034 C 
ENDBRANCH   1  35
TORSDOF 6
ENDMDL
