MODEL 1
REMARK VINA RESULT:      -9.6      0.000      0.000
REMARK  7 active torsions:
REMARK  status: ('A' for Active; 'I' for Inactive)
REMARK    1  A    between atoms: C_2  and  C_3 
REMARK    2  A    between atoms: C_6  and  C_7 
REMARK       I    between atoms: C_7  and  N_8 
REMARK    3  A    between atoms: N_8  and  C_9 
REMARK    4  A    between atoms: C_9  and  C_10 
REMARK    5  A    between atoms: N_19  and  C_20 
REMARK    6  A    between atoms: C_20  and  C_21 
REMARK    7  A    between atoms: C_21  and  C_22 
ROOT
HETATM    1  C   UNL     1       3.766  27.354  48.898  1.00  0.00     0.249 A 
HETATM    2  C   UNL     1       4.794  27.599  47.778  1.00  0.00     0.266 A 
HETATM    3  O   UNL     1       5.416  26.759  47.146  1.00  0.00    -0.270 OA
HETATM    4  N   UNL     1       4.935  28.973  47.625  1.00  0.00    -0.310 N 
HETATM    5  C   UNL     1       4.181  29.646  48.528  1.00  0.00     0.129 A 
HETATM    6  C   UNL     1       3.509  28.777  49.279  1.00  0.00     0.101 A 
HETATM    7  N   UNL     1       4.083  31.002  48.675  1.00  0.00    -0.284 N 
HETATM    8  C   UNL     1       3.212  31.542  49.623  1.00  0.00     0.331 A 
HETATM    9  O   UNL     1       3.017  32.745  49.778  1.00  0.00    -0.246 OA
HETATM   10  N   UNL     1       2.535  30.628  50.399  1.00  0.00    -0.275 N 
HETATM   11  C   UNL     1       2.604  29.264  50.304  1.00  0.00     0.262 A 
HETATM   12  O   UNL     1       1.944  28.505  50.999  1.00  0.00    -0.267 OA
HETATM   13  H   UNL     1       5.592  29.376  46.972  1.00  0.00     0.170 HD
HETATM   14  H   UNL     1       1.910  31.009  51.093  1.00  0.00     0.173 HD
ENDROOT
BRANCH   1  15
HETATM   15  N   UNL     1       4.353  26.534  49.978  1.00  0.00    -0.327 N 
HETATM   16  C   UNL     1       5.401  26.959  50.763  1.00  0.00     0.253 C 
HETATM   17  O   UNL     1       5.904  28.072  50.674  1.00  0.00    -0.268 OA
HETATM   18  H   UNL     1       4.205  25.533  49.908  1.00  0.00     0.164 HD
BRANCH  16  19
HETATM   19  C   UNL     1       5.947  25.959  51.716  1.00  0.00     0.032 A 
HETATM   20  C   UNL     1       7.222  25.442  51.489  1.00  0.00     0.017 A 
HETATM   21  C   UNL     1       7.767  24.501  52.370  1.00  0.00     0.009 A 
HETATM   22  C   UNL     1       7.067  24.073  53.514  1.00  0.00    -0.051 A 
HETATM   23  C   UNL     1       5.780  24.605  53.717  1.00  0.00     0.009 A 
HETATM   24  C   UNL     1       5.226  25.543  52.837  1.00  0.00     0.017 A 
BRANCH  22  25
HETATM   25  C   UNL     1       7.674  23.035  54.478  1.00  0.00    -0.024 C 
HETATM   26  C   UNL     1       7.532  21.590  53.946  1.00  0.00     0.019 C 
HETATM   27  C   UNL     1       6.938  23.139  55.827  1.00  0.00     0.019 C 
HETATM   28  C   UNL     1       9.184  23.260  54.725  1.00  0.00     0.019 C 
ENDBRANCH  22  25
ENDBRANCH  16  19
ENDBRANCH   1  15
BRANCH   1  29
HETATM   29  C   UNL     1       2.557  26.711  48.209  1.00  0.00     0.426 C 
HETATM   30  F   UNL     1       2.533  26.997  46.884  1.00  0.00    -0.167 F 
HETATM   31  F   UNL     1       2.584  25.360  48.299  1.00  0.00    -0.167 F 
HETATM   32  F   UNL     1       1.380  27.118  48.736  1.00  0.00    -0.167 F 
ENDBRANCH   1  29
BRANCH   7  33
HETATM   33  C   UNL     1       4.847  31.918  47.828  1.00  0.00     0.140 C 
BRANCH  33  34
HETATM   34  C   UNL     1       6.029  32.544  48.576  1.00  0.00     0.059 C 
BRANCH  34  35
HETATM   35  C   UNL     1       6.849  33.444  47.685  1.00  0.00    -0.057 A 
HETATM   36  C   UNL     1       7.741  34.374  48.237  1.00  0.00     0.007 A 
HETATM   37  C   UNL     1       8.486  35.217  47.410  1.00  0.00     0.001 A 
HETATM   38  C   UNL     1       8.350  35.134  46.026  1.00  0.00     0.000 A 
HETATM   39  C   UNL     1       7.469  34.210  45.468  1.00  0.00     0.001 A 
HETATM   40  C   UNL     1       6.719  33.370  46.293  1.00  0.00     0.007 A 
ENDBRANCH  34  35
ENDBRANCH  33  34
ENDBRANCH   7  33
TORSDOF 7
ENDMDL
MODEL 2
REMARK VINA RESULT:      -9.5     10.789     13.031
REMARK  7 active torsions:
REMARK  status: ('A' for Active; 'I' for Inactive)
REMARK    1  A    between atoms: C_2  and  C_3 
REMARK    2  A    between atoms: C_6  and  C_7 
REMARK       I    between atoms: C_7  and  N_8 
REMARK    3  A    between atoms: N_8  and  C_9 
REMARK    4  A    between atoms: C_9  and  C_10 
REMARK    5  A    between atoms: N_19  and  C_20 
REMARK    6  A    between atoms: C_20  and  C_21 
REMARK    7  A    between atoms: C_21  and  C_22 
ROOT
HETATM    1  C   UNL     1       8.436  30.843  60.145  1.00  0.00     0.249 A 
HETATM    2  C   UNL     1       8.745  30.404  61.588  1.00  0.00     0.266 A 
HETATM    3  O   UNL     1       9.621  29.639  61.959  1.00  0.00    -0.270 OA
HETATM    4  N   UNL     1       7.811  31.006  62.424  1.00  0.00    -0.310 N 
HETATM    5  C   UNL     1       6.911  31.727  61.712  1.00  0.00     0.129 A 
HETATM    6  C   UNL     1       7.213  31.659  60.417  1.00  0.00     0.101 A 
HETATM    7  N   UNL     1       5.851  32.440  62.201  1.00  0.00    -0.284 N 
HETATM    8  C   UNL     1       5.046  33.180  61.334  1.00  0.00     0.331 A 
HETATM    9  O   UNL     1       4.115  33.896  61.696  1.00  0.00    -0.246 OA
HETATM   10  N   UNL     1       5.365  33.087  59.998  1.00  0.00    -0.275 N 
HETATM   11  C   UNL     1       6.403  32.381  59.453  1.00  0.00     0.262 A 
HETATM   12  O   UNL     1       6.659  32.372  58.257  1.00  0.00    -0.267 OA
HETATM   13  H   UNL     1       7.788  30.831  63.418  1.00  0.00     0.170 HD
HETATM   14  H   UNL     1       4.783  33.612  59.363  1.00  0.00     0.173 HD
ENDROOT
BRANCH   1  15
HETATM   15  N   UNL     1       8.200  29.668  59.280  1.00  0.00    -0.327 N 
HETATM   16  C   UNL     1       8.473  29.657  57.931  1.00  0.00     0.253 C 
HETATM   17  O   UNL     1       8.984  30.598  57.338  1.00  0.00    -0.268 OA
HETATM   18  H   UNL     1       7.522  28.994  59.619  1.00  0.00     0.164 HD
BRANCH  16  19
HETATM   19  C   UNL     1       8.058  28.436  57.192  1.00  0.00     0.032 A 
HETATM   20  C   UNL     1       7.855  28.522  55.816  1.00  0.00     0.017 A 
HETATM   21  C   UNL     1       7.467  27.390  55.090  1.00  0.00     0.009 A 
HETATM   22  C   UNL     1       7.300  26.139  55.713  1.00  0.00    -0.051 A 
HETATM   23  C   UNL     1       7.504  26.081  57.105  1.00  0.00     0.009 A 
HETATM   24  C   UNL     1       7.887  27.211  57.838  1.00  0.00     0.017 A 
BRANCH  22  25
HETATM   25  C   UNL     1       6.870  24.898  54.906  1.00  0.00    -0.024 C 
HETATM   26  C   UNL     1       6.920  23.604  55.751  1.00  0.00     0.019 C 
HETATM   27  C   UNL     1       7.830  24.743  53.711  1.00  0.00     0.019 C 
HETATM   28  C   UNL     1       5.426  25.009  54.364  1.00  0.00     0.019 C 
ENDBRANCH  22  25
ENDBRANCH  16  19
ENDBRANCH   1  15
BRANCH   1  29
HETATM   29  C   UNL     1       9.626  31.708  59.717  1.00  0.00     0.426 C 
HETATM   30  F   UNL     1       9.256  32.645  58.810  1.00  0.00    -0.167 F 
HETATM   31  F   UNL     1      10.158  32.387  60.761  1.00  0.00    -0.167 F 
HETATM   32  F   UNL     1      10.627  30.982  59.168  1.00  0.00    -0.167 F 
ENDBRANCH   1  29
BRANCH   7  33
HETATM   33  C   UNL     1       5.556  32.480  63.633  1.00  0.00     0.140 C 
BRANCH  33  34
HETATM   34  C   UNL     1       6.552  33.355  64.403  1.00  0.00     0.059 C 
BRANCH  34  35
HETATM   35  C   UNL     1       6.010  33.784  65.743  1.00  0.00    -0.057 A 
HETATM   36  C   UNL     1       4.629  33.904  65.950  1.00  0.00     0.007 A 
HETATM   37  C   UNL     1       4.132  34.319  67.187  1.00  0.00     0.001 A 
HETATM   38  C   UNL     1       5.010  34.611  68.228  1.00  0.00     0.000 A 
HETATM   39  C   UNL     1       6.384  34.492  68.034  1.00  0.00     0.001 A 
HETATM   40  C   UNL     1       6.884  34.083  66.797  1.00  0.00     0.007 A 
ENDBRANCH  34  35
ENDBRANCH  33  34
ENDBRANCH   7  33
TORSDOF 7
ENDMDL
MODEL 3
REMARK VINA RESULT:      -9.5      6.418     10.304
REMARK  7 active torsions:
REMARK  status: ('A' for Active; 'I' for Inactive)
REMARK    1  A    between atoms: C_2  and  C_3 
REMARK    2  A    between atoms: C_6  and  C_7 
REMARK       I    between atoms: C_7  and  N_8 
REMARK    3  A    between atoms: N_8  and  C_9 
REMARK    4  A    between atoms: C_9  and  C_10 
REMARK    5  A    between atoms: N_19  and  C_20 
REMARK    6  A    between atoms: C_20  and  C_21 
REMARK    7  A    between atoms: C_21  and  C_22 
ROOT
HETATM    1  C   UNL     1       7.420  28.401  56.165  1.00  0.00     0.249 A 
HETATM    2  C   UNL     1       8.394  28.652  54.999  1.00  0.00     0.266 A 
HETATM    3  O   UNL     1       9.293  29.477  54.948  1.00  0.00    -0.270 OA
HETATM    4  N   UNL     1       8.049  27.789  53.965  1.00  0.00    -0.310 N 
HETATM    5  C   UNL     1       6.955  27.056  54.284  1.00  0.00     0.129 A 
HETATM    6  C   UNL     1       6.553  27.372  55.514  1.00  0.00     0.101 A 
HETATM    7  N   UNL     1       6.332  26.119  53.507  1.00  0.00    -0.284 N 
HETATM    8  C   UNL     1       5.241  25.407  54.008  1.00  0.00     0.331 A 
HETATM    9  O   UNL     1       4.665  24.507  53.401  1.00  0.00    -0.246 OA
HETATM   10  N   UNL     1       4.832  25.756  55.275  1.00  0.00    -0.275 N 
HETATM   11  C   UNL     1       5.408  26.692  56.091  1.00  0.00     0.262 A 
HETATM   12  O   UNL     1       5.021  26.927  57.227  1.00  0.00    -0.267 OA
HETATM   13  H   UNL     1       8.525  27.801  53.075  1.00  0.00     0.170 HD
HETATM   14  H   UNL     1       4.039  25.253  55.642  1.00  0.00     0.173 HD
ENDROOT
BRANCH   1  15
HETATM   15  N   UNL     1       6.712  29.646  56.533  1.00  0.00    -0.327 N 
HETATM   16  C   UNL     1       5.763  30.238  55.732  1.00  0.00     0.253 C 
HETATM   17  O   UNL     1       5.381  29.761  54.670  1.00  0.00    -0.268 OA
HETATM   18  H   UNL     1       7.175  30.237  57.214  1.00  0.00     0.164 HD
BRANCH  16  19
HETATM   19  C   UNL     1       5.244  31.550  56.198  1.00  0.00     0.032 A 
HETATM   20  C   UNL     1       5.512  31.950  57.507  1.00  0.00     0.017 A 
HETATM   21  C   UNL     1       5.039  33.181  57.977  1.00  0.00     0.009 A 
HETATM   22  C   UNL     1       4.314  34.056  57.146  1.00  0.00    -0.051 A 
HETATM   23  C   UNL     1       4.052  33.625  55.832  1.00  0.00     0.009 A 
HETATM   24  C   UNL     1       4.516  32.392  55.357  1.00  0.00     0.017 A 
BRANCH  22  25
HETATM   25  C   UNL     1       3.796  35.408  57.673  1.00  0.00    -0.024 C 
HETATM   26  C   UNL     1       3.892  35.512  59.212  1.00  0.00     0.019 C 
HETATM   27  C   UNL     1       2.318  35.554  57.260  1.00  0.00     0.019 C 
HETATM   28  C   UNL     1       4.584  36.612  57.105  1.00  0.00     0.019 C 
ENDBRANCH  22  25
ENDBRANCH  16  19
ENDBRANCH   1  15
BRANCH   1  29
HETATM   29  C   UNL     1       8.275  27.810  57.292  1.00  0.00     0.426 C 
HETATM   30  F   UNL     1       7.589  27.764  58.460  1.00  0.00    -0.167 F 
HETATM   31  F   UNL     1       8.649  26.536  57.027  1.00  0.00    -0.167 F 
HETATM   32  F   UNL     1       9.408  28.516  57.510  1.00  0.00    -0.167 F 
ENDBRANCH   1  29
BRANCH   7  33
HETATM   33  C   UNL     1       6.808  25.810  52.159  1.00  0.00     0.140 C 
BRANCH  33  34
HETATM   34  C   UNL     1       8.137  25.047  52.177  1.00  0.00     0.059 C 
BRANCH  34  35
HETATM   35  C   UNL     1       8.090  23.851  53.095  1.00  0.00    -0.057 A 
HETATM   36  C   UNL     1       8.431  23.976  54.449  1.00  0.00     0.007 A 
HETATM   37  C   UNL     1       8.403  22.863  55.291  1.00  0.00     0.001 A 
HETATM   38  C   UNL     1       8.028  21.619  54.790  1.00  0.00     0.000 A 
HETATM   39  C   UNL     1       7.684  21.484  53.447  1.00  0.00     0.001 A 
HETATM   40  C   UNL     1       7.716  22.594  52.601  1.00  0.00     0.007 A 
ENDBRANCH  34  35
ENDBRANCH  33  34
ENDBRANCH   7  33
TORSDOF 7
ENDMDL
MODEL 4
REMARK VINA RESULT:      -9.4      1.087      1.514
REMARK  7 active torsions:
REMARK  status: ('A' for Active; 'I' for Inactive)
REMARK    1  A    between atoms: C_2  and  C_3 
REMARK    2  A    between atoms: C_6  and  C_7 
REMARK       I    between atoms: C_7  and  N_8 
REMARK    3  A    between atoms: N_8  and  C_9 
REMARK    4  A    between atoms: C_9  and  C_10 
REMARK    5  A    between atoms: N_19  and  C_20 
REMARK    6  A    between atoms: C_20  and  C_21 
REMARK    7  A    between atoms: C_21  and  C_22 
ROOT
HETATM    1  C   UNL     1       3.624  27.420  48.689  1.00  0.00     0.249 A 
HETATM    2  C   UNL     1       4.791  27.563  47.695  1.00  0.00     0.266 A 
HETATM    3  O   UNL     1       5.570  26.695  47.335  1.00  0.00    -0.270 OA
HETATM    4  N   UNL     1       4.842  28.892  47.289  1.00  0.00    -0.310 N 
HETATM    5  C   UNL     1       3.905  29.635  47.927  1.00  0.00     0.129 A 
HETATM    6  C   UNL     1       3.196  28.852  48.738  1.00  0.00     0.101 A 
HETATM    7  N   UNL     1       3.674  30.975  47.785  1.00  0.00    -0.284 N 
HETATM    8  C   UNL     1       2.626  31.583  48.477  1.00  0.00     0.331 A 
HETATM    9  O   UNL     1       2.312  32.764  48.359  1.00  0.00    -0.246 OA
HETATM   10  N   UNL     1       1.913  30.761  49.320  1.00  0.00    -0.275 N 
HETATM   11  C   UNL     1       2.107  29.419  49.511  1.00  0.00     0.262 A 
HETATM   12  O   UNL     1       1.410  28.735  50.247  1.00  0.00    -0.267 OA
HETATM   13  H   UNL     1       5.558  29.236  46.666  1.00  0.00     0.170 HD
HETATM   14  H   UNL     1       1.158  31.193  49.831  1.00  0.00     0.173 HD
ENDROOT
BRANCH   1  15
HETATM   15  N   UNL     1       4.101  26.886  49.982  1.00  0.00    -0.327 N 
HETATM   16  C   UNL     1       5.084  27.490  50.732  1.00  0.00     0.253 C 
HETATM   17  O   UNL     1       5.612  28.551  50.425  1.00  0.00    -0.268 OA
HETATM   18  H   UNL     1       3.942  25.897  50.141  1.00  0.00     0.164 HD
BRANCH  16  19
HETATM   19  C   UNL     1       5.527  26.751  51.942  1.00  0.00     0.032 A 
HETATM   20  C   UNL     1       6.300  27.419  52.891  1.00  0.00     0.017 A 
HETATM   21  C   UNL     1       6.732  26.752  54.043  1.00  0.00     0.009 A 
HETATM   22  C   UNL     1       6.380  25.412  54.292  1.00  0.00    -0.051 A 
HETATM   23  C   UNL     1       5.605  24.758  53.316  1.00  0.00     0.009 A 
HETATM   24  C   UNL     1       5.175  25.418  52.158  1.00  0.00     0.017 A 
BRANCH  22  25
HETATM   25  C   UNL     1       6.862  24.685  55.563  1.00  0.00    -0.024 C 
HETATM   26  C   UNL     1       7.120  23.181  55.314  1.00  0.00     0.019 C 
HETATM   27  C   UNL     1       5.773  24.827  56.643  1.00  0.00     0.019 C 
HETATM   28  C   UNL     1       8.182  25.267  56.120  1.00  0.00     0.019 C 
ENDBRANCH  22  25
ENDBRANCH  16  19
ENDBRANCH   1  15
BRANCH   1  29
HETATM   29  C   UNL     1       2.594  26.531  47.985  1.00  0.00     0.426 C 
HETATM   30  F   UNL     1       2.660  26.669  46.638  1.00  0.00    -0.167 F 
HETATM   31  F   UNL     1       2.805  25.217  48.236  1.00  0.00    -0.167 F 
HETATM   32  F   UNL     1       1.324  26.805  48.362  1.00  0.00    -0.167 F 
ENDBRANCH   1  29
BRANCH   7  33
HETATM   33  C   UNL     1       4.484  31.795  46.884  1.00  0.00     0.140 C 
BRANCH  33  34
HETATM   34  C   UNL     1       5.629  32.501  47.618  1.00  0.00     0.059 C 
BRANCH  34  35
HETATM   35  C   UNL     1       6.457  33.354  46.690  1.00  0.00    -0.057 A 
HETATM   36  C   UNL     1       6.247  33.313  45.305  1.00  0.00     0.007 A 
HETATM   37  C   UNL     1       7.027  34.091  44.447  1.00  0.00     0.001 A 
HETATM   38  C   UNL     1       8.017  34.921  44.967  1.00  0.00     0.000 A 
HETATM   39  C   UNL     1       8.231  34.973  46.342  1.00  0.00     0.001 A 
HETATM   40  C   UNL     1       7.456  34.191  47.201  1.00  0.00     0.007 A 
ENDBRANCH  34  35
ENDBRANCH  33  34
ENDBRANCH   7  33
TORSDOF 7
ENDMDL
MODEL 5
REMARK VINA RESULT:      -9.3      7.090     10.240
REMARK  7 active torsions:
REMARK  status: ('A' for Active; 'I' for Inactive)
REMARK    1  A    between atoms: C_2  and  C_3 
REMARK    2  A    between atoms: C_6  and  C_7 
REMARK       I    between atoms: C_7  and  N_8 
REMARK    3  A    between atoms: N_8  and  C_9 
REMARK    4  A    between atoms: C_9  and  C_10 
REMARK    5  A    between atoms: N_19  and  C_20 
REMARK    6  A    between atoms: C_20  and  C_21 
REMARK    7  A    between atoms: C_21  and  C_22 
ROOT
HETATM    1  C   UNL     1       6.767  27.636  55.604  1.00  0.00     0.249 A 
HETATM    2  C   UNL     1       5.901  27.632  56.877  1.00  0.00     0.266 A 
HETATM    3  O   UNL     1       4.830  27.070  57.044  1.00  0.00    -0.270 OA
HETATM    4  N   UNL     1       6.535  28.430  57.824  1.00  0.00    -0.310 N 
HETATM    5  C   UNL     1       7.660  28.990  57.317  1.00  0.00     0.129 A 
HETATM    6  C   UNL     1       7.831  28.582  56.061  1.00  0.00     0.101 A 
HETATM    7  N   UNL     1       8.523  29.835  57.957  1.00  0.00    -0.284 N 
HETATM    8  C   UNL     1       9.675  30.283  57.309  1.00  0.00     0.331 A 
HETATM    9  O   UNL     1      10.532  30.992  57.831  1.00  0.00    -0.246 OA
HETATM   10  N   UNL     1       9.829  29.861  56.007  1.00  0.00    -0.275 N 
HETATM   11  C   UNL     1       8.993  29.028  55.314  1.00  0.00     0.262 A 
HETATM   12  O   UNL     1       9.207  28.657  54.169  1.00  0.00    -0.267 OA
HETATM   13  H   UNL     1       6.130  28.613  58.730  1.00  0.00     0.170 HD
HETATM   14  H   UNL     1      10.654  30.187  55.528  1.00  0.00     0.173 HD
ENDROOT
BRANCH   1  15
HETATM   15  N   UNL     1       5.988  28.116  54.443  1.00  0.00    -0.327 N 
HETATM   16  C   UNL     1       5.214  29.253  54.471  1.00  0.00     0.253 C 
HETATM   17  O   UNL     1       5.144  29.998  55.440  1.00  0.00    -0.268 OA
HETATM   18  H   UNL     1       5.760  27.419  53.742  1.00  0.00     0.164 HD
BRANCH  16  19
HETATM   19  C   UNL     1       4.401  29.518  53.256  1.00  0.00     0.032 A 
HETATM   20  C   UNL     1       4.296  28.520  52.288  1.00  0.00     0.017 A 
HETATM   21  C   UNL     1       3.536  28.737  51.134  1.00  0.00     0.009 A 
HETATM   22  C   UNL     1       2.838  29.942  50.928  1.00  0.00    -0.051 A 
HETATM   23  C   UNL     1       2.965  30.936  51.918  1.00  0.00     0.009 A 
HETATM   24  C   UNL     1       3.729  30.728  53.073  1.00  0.00     0.017 A 
BRANCH  22  25
HETATM   25  C   UNL     1       2.004  30.173  49.653  1.00  0.00    -0.024 C 
HETATM   26  C   UNL     1       2.787  30.961  48.577  1.00  0.00     0.019 C 
HETATM   27  C   UNL     1       0.747  30.976  50.036  1.00  0.00     0.019 C 
HETATM   28  C   UNL     1       1.557  28.852  48.985  1.00  0.00     0.019 C 
ENDBRANCH  22  25
ENDBRANCH  16  19
ENDBRANCH   1  15
BRANCH   1  29
HETATM   29  C   UNL     1       7.289  26.202  55.460  1.00  0.00     0.426 C 
HETATM   30  F   UNL     1       6.282  25.299  55.556  1.00  0.00    -0.167 F 
HETATM   31  F   UNL     1       7.865  25.993  54.252  1.00  0.00    -0.167 F 
HETATM   32  F   UNL     1       8.212  25.887  56.397  1.00  0.00    -0.167 F 
ENDBRANCH   1  29
BRANCH   7  33
HETATM   33  C   UNL     1       8.289  30.260  59.338  1.00  0.00     0.140 C 
BRANCH  33  34
HETATM   34  C   UNL     1       7.530  31.589  59.411  1.00  0.00     0.059 C 
BRANCH  34  35
HETATM   35  C   UNL     1       7.454  32.120  60.821  1.00  0.00    -0.057 A 
HETATM   36  C   UNL     1       8.455  31.815  61.754  1.00  0.00     0.007 A 
HETATM   37  C   UNL     1       8.371  32.294  63.063  1.00  0.00     0.001 A 
HETATM   38  C   UNL     1       7.291  33.085  63.448  1.00  0.00     0.000 A 
HETATM   39  C   UNL     1       6.294  33.397  62.528  1.00  0.00     0.001 A 
HETATM   40  C   UNL     1       6.372  32.915  61.220  1.00  0.00     0.007 A 
ENDBRANCH  34  35
ENDBRANCH  33  34
ENDBRANCH   7  33
TORSDOF 7
ENDMDL
MODEL 6
REMARK VINA RESULT:      -9.2      3.538      9.422
REMARK  7 active torsions:
REMARK  status: ('A' for Active; 'I' for Inactive)
REMARK    1  A    between atoms: C_2  and  C_3 
REMARK    2  A    between atoms: C_6  and  C_7 
REMARK       I    between atoms: C_7  and  N_8 
REMARK    3  A    between atoms: N_8  and  C_9 
REMARK    4  A    between atoms: C_9  and  C_10 
REMARK    5  A    between atoms: N_19  and  C_20 
REMARK    6  A    between atoms: C_20  and  C_21 
REMARK    7  A    between atoms: C_21  and  C_22 
ROOT
HETATM    1  C   UNL     1       4.451  28.927  49.187  1.00  0.00     0.249 A 
HETATM    2  C   UNL     1       5.096  27.725  48.473  1.00  0.00     0.266 A 
HETATM    3  O   UNL     1       5.327  27.608  47.279  1.00  0.00    -0.270 OA
HETATM    4  N   UNL     1       5.344  26.747  49.429  1.00  0.00    -0.310 N 
HETATM    5  C   UNL     1       4.898  27.131  50.649  1.00  0.00     0.129 A 
HETATM    6  C   UNL     1       4.374  28.353  50.565  1.00  0.00     0.101 A 
HETATM    7  N   UNL     1       4.964  26.420  51.815  1.00  0.00    -0.284 N 
HETATM    8  C   UNL     1       4.506  26.985  53.007  1.00  0.00     0.331 A 
HETATM    9  O   UNL     1       4.586  26.441  54.105  1.00  0.00    -0.246 OA
HETATM   10  N   UNL     1       3.957  28.243  52.898  1.00  0.00    -0.275 N 
HETATM   11  C   UNL     1       3.854  28.994  51.758  1.00  0.00     0.262 A 
HETATM   12  O   UNL     1       3.390  30.125  51.736  1.00  0.00    -0.267 OA
HETATM   13  H   UNL     1       5.728  25.844  49.187  1.00  0.00     0.170 HD
HETATM   14  H   UNL     1       3.616  28.656  53.753  1.00  0.00     0.173 HD
ENDROOT
BRANCH   1  15
HETATM   15  N   UNL     1       3.137  29.247  48.590  1.00  0.00    -0.327 N 
HETATM   16  C   UNL     1       2.206  28.290  48.258  1.00  0.00     0.253 C 
HETATM   17  O   UNL     1       2.358  27.095  48.477  1.00  0.00    -0.268 OA
HETATM   18  H   UNL     1       3.070  30.141  48.115  1.00  0.00     0.164 HD
BRANCH  16  19
HETATM   19  C   UNL     1       0.992  28.779  47.553  1.00  0.00     0.032 A 
HETATM   20  C   UNL     1       0.629  30.118  47.693  1.00  0.00     0.017 A 
HETATM   21  C   UNL     1      -0.507  30.610  47.040  1.00  0.00     0.009 A 
HETATM   22  C   UNL     1      -1.292  29.788  46.209  1.00  0.00    -0.051 A 
HETATM   23  C   UNL     1      -0.907  28.439  46.091  1.00  0.00     0.009 A 
HETATM   24  C   UNL     1       0.224  27.938  46.746  1.00  0.00     0.017 A 
BRANCH  22  25
HETATM   25  C   UNL     1      -2.542  30.339  45.496  1.00  0.00    -0.024 C 
HETATM   26  C   UNL     1      -3.847  29.985  46.245  1.00  0.00     0.019 C 
HETATM   27  C   UNL     1      -2.602  29.726  44.084  1.00  0.00     0.019 C 
HETATM   28  C   UNL     1      -2.522  31.880  45.360  1.00  0.00     0.019 C 
ENDBRANCH  22  25
ENDBRANCH  16  19
ENDBRANCH   1  15
BRANCH   1  29
HETATM   29  C   UNL     1       5.478  30.060  49.087  1.00  0.00     0.426 C 
HETATM   30  F   UNL     1       5.362  30.730  47.914  1.00  0.00    -0.167 F 
HETATM   31  F   UNL     1       5.307  30.984  50.063  1.00  0.00    -0.167 F 
HETATM   32  F   UNL     1       6.753  29.618  49.182  1.00  0.00    -0.167 F 
ENDBRANCH   1  29
BRANCH   7  33
HETATM   33  C   UNL     1       5.544  25.078  51.856  1.00  0.00     0.140 C 
BRANCH  33  34
HETATM   34  C   UNL     1       7.016  25.098  52.285  1.00  0.00     0.059 C 
BRANCH  34  35
HETATM   35  C   UNL     1       7.346  23.970  53.229  1.00  0.00    -0.057 A 
HETATM   36  C   UNL     1       7.888  22.771  52.747  1.00  0.00     0.007 A 
HETATM   37  C   UNL     1       8.177  21.722  53.623  1.00  0.00     0.001 A 
HETATM   38  C   UNL     1       7.932  21.866  54.986  1.00  0.00     0.000 A 
HETATM   39  C   UNL     1       7.397  23.055  55.476  1.00  0.00     0.001 A 
HETATM   40  C   UNL     1       7.102  24.103  54.602  1.00  0.00     0.007 A 
ENDBRANCH  34  35
ENDBRANCH  33  34
ENDBRANCH   7  33
TORSDOF 7
ENDMDL
MODEL 7
REMARK VINA RESULT:      -8.8      2.141      9.435
REMARK  7 active torsions:
REMARK  status: ('A' for Active; 'I' for Inactive)
REMARK    1  A    between atoms: C_2  and  C_3 
REMARK    2  A    between atoms: C_6  and  C_7 
REMARK       I    between atoms: C_7  and  N_8 
REMARK    3  A    between atoms: N_8  and  C_9 
REMARK    4  A    between atoms: C_9  and  C_10 
REMARK    5  A    between atoms: N_19  and  C_20 
REMARK    6  A    between atoms: C_20  and  C_21 
REMARK    7  A    between atoms: C_21  and  C_22 
ROOT
HETATM    1  C   UNL     1       3.863  29.731  50.700  1.00  0.00     0.249 A 
HETATM    2  C   UNL     1       4.236  30.387  52.042  1.00  0.00     0.266 A 
HETATM    3  O   UNL     1       3.914  31.495  52.442  1.00  0.00    -0.270 OA
HETATM    4  N   UNL     1       5.057  29.502  52.733  1.00  0.00    -0.310 N 
HETATM    5  C   UNL     1       5.308  28.392  51.997  1.00  0.00     0.129 A 
HETATM    6  C   UNL     1       4.665  28.477  50.834  1.00  0.00     0.101 A 
HETATM    7  N   UNL     1       6.081  27.322  52.353  1.00  0.00    -0.284 N 
HETATM    8  C   UNL     1       6.195  26.225  51.498  1.00  0.00     0.331 A 
HETATM    9  O   UNL     1       6.816  25.200  51.767  1.00  0.00    -0.246 OA
HETATM   10  N   UNL     1       5.534  26.335  50.295  1.00  0.00    -0.275 N 
HETATM   11  C   UNL     1       4.758  27.385  49.882  1.00  0.00     0.262 A 
HETATM   12  O   UNL     1       4.163  27.405  48.815  1.00  0.00    -0.267 OA
HETATM   13  H   UNL     1       5.464  29.734  53.628  1.00  0.00     0.170 HD
HETATM   14  H   UNL     1       5.617  25.551  49.667  1.00  0.00     0.173 HD
ENDROOT
BRANCH   1  15
HETATM   15  N   UNL     1       4.268  30.591  49.568  1.00  0.00    -0.327 N 
HETATM   16  C   UNL     1       5.532  31.118  49.435  1.00  0.00     0.253 C 
HETATM   17  O   UNL     1       6.449  30.878  50.210  1.00  0.00    -0.268 OA
HETATM   18  H   UNL     1       3.517  31.064  49.078  1.00  0.00     0.164 HD
BRANCH  16  19
HETATM   19  C   UNL     1       5.729  32.061  48.304  1.00  0.00     0.032 A 
HETATM   20  C   UNL     1       6.688  33.065  48.427  1.00  0.00     0.017 A 
HETATM   21  C   UNL     1       6.900  33.968  47.379  1.00  0.00     0.009 A 
HETATM   22  C   UNL     1       6.183  33.874  46.171  1.00  0.00    -0.051 A 
HETATM   23  C   UNL     1       5.216  32.855  46.075  1.00  0.00     0.009 A 
HETATM   24  C   UNL     1       4.995  31.952  47.122  1.00  0.00     0.017 A 
BRANCH  22  25
HETATM   25  C   UNL     1       6.422  34.874  45.023  1.00  0.00    -0.024 C 
HETATM   26  C   UNL     1       5.100  35.435  44.451  1.00  0.00     0.019 C 
HETATM   27  C   UNL     1       7.176  34.143  43.895  1.00  0.00     0.019 C 
HETATM   28  C   UNL     1       7.261  36.097  45.460  1.00  0.00     0.019 C 
ENDBRANCH  22  25
ENDBRANCH  16  19
ENDBRANCH   1  15
BRANCH   1  29
HETATM   29  C   UNL     1       2.356  29.467  50.779  1.00  0.00     0.426 C 
HETATM   30  F   UNL     1       1.656  30.624  50.875  1.00  0.00    -0.167 F 
HETATM   31  F   UNL     1       1.894  28.842  49.670  1.00  0.00    -0.167 F 
HETATM   32  F   UNL     1       2.017  28.695  51.837  1.00  0.00    -0.167 F 
ENDBRANCH   1  29
BRANCH   7  33
HETATM   33  C   UNL     1       6.773  27.278  53.642  1.00  0.00     0.140 C 
BRANCH  33  34
HETATM   34  C   UNL     1       5.969  26.517  54.702  1.00  0.00     0.059 C 
BRANCH  34  35
HETATM   35  C   UNL     1       6.823  25.532  55.461  1.00  0.00    -0.057 A 
HETATM   36  C   UNL     1       7.649  25.962  56.509  1.00  0.00     0.007 A 
HETATM   37  C   UNL     1       8.451  25.050  57.197  1.00  0.00     0.001 A 
HETATM   38  C   UNL     1       8.429  23.702  56.850  1.00  0.00     0.000 A 
HETATM   39  C   UNL     1       7.609  23.263  55.813  1.00  0.00     0.001 A 
HETATM   40  C   UNL     1       6.810  24.174  55.119  1.00  0.00     0.007 A 
ENDBRANCH  34  35
ENDBRANCH  33  34
ENDBRANCH   7  33
TORSDOF 7
ENDMDL
MODEL 8
REMARK VINA RESULT:      -8.6      2.860      8.905
REMARK  7 active torsions:
REMARK  status: ('A' for Active; 'I' for Inactive)
REMARK    1  A    between atoms: C_2  and  C_3 
REMARK    2  A    between atoms: C_6  and  C_7 
REMARK       I    between atoms: C_7  and  N_8 
REMARK    3  A    between atoms: N_8  and  C_9 
REMARK    4  A    between atoms: C_9  and  C_10 
REMARK    5  A    between atoms: N_19  and  C_20 
REMARK    6  A    between atoms: C_20  and  C_21 
REMARK    7  A    between atoms: C_21  and  C_22 
ROOT
HETATM    1  C   UNL     1       3.587  29.753  50.305  1.00  0.00     0.249 A 
HETATM    2  C   UNL     1       3.725  30.412  51.689  1.00  0.00     0.266 A 
HETATM    3  O   UNL     1       3.320  31.513  52.030  1.00  0.00    -0.270 OA
HETATM    4  N   UNL     1       4.443  29.544  52.503  1.00  0.00    -0.310 N 
HETATM    5  C   UNL     1       4.833  28.441  51.819  1.00  0.00     0.129 A 
HETATM    6  C   UNL     1       4.383  28.515  50.567  1.00  0.00     0.101 A 
HETATM    7  N   UNL     1       5.561  27.387  52.295  1.00  0.00    -0.284 N 
HETATM    8  C   UNL     1       5.834  26.294  51.471  1.00  0.00     0.331 A 
HETATM    9  O   UNL     1       6.425  25.282  51.837  1.00  0.00    -0.246 OA
HETATM   10  N   UNL     1       5.372  26.394  50.177  1.00  0.00    -0.275 N 
HETATM   11  C   UNL     1       4.651  27.427  49.644  1.00  0.00     0.262 A 
HETATM   12  O   UNL     1       4.234  27.437  48.495  1.00  0.00    -0.267 OA
HETATM   13  H   UNL     1       4.696  29.782  53.452  1.00  0.00     0.170 HD
HETATM   14  H   UNL     1       5.572  25.612  49.572  1.00  0.00     0.173 HD
ENDROOT
BRANCH   1  15
HETATM   15  N   UNL     1       4.149  30.623  49.252  1.00  0.00    -0.327 N 
HETATM   16  C   UNL     1       5.406  31.179  49.323  1.00  0.00     0.253 C 
HETATM   17  O   UNL     1       6.191  30.959  50.237  1.00  0.00    -0.268 OA
HETATM   18  H   UNL     1       3.477  31.080  48.645  1.00  0.00     0.164 HD
BRANCH  16  19
HETATM   19  C   UNL     1       5.762  32.128  48.237  1.00  0.00     0.032 A 
HETATM   20  C   UNL     1       6.824  33.009  48.437  1.00  0.00     0.017 A 
HETATM   21  C   UNL     1       7.186  33.914  47.433  1.00  0.00     0.009 A 
HETATM   22  C   UNL     1       6.519  33.943  46.194  1.00  0.00    -0.051 A 
HETATM   23  C   UNL     1       5.446  33.048  46.019  1.00  0.00     0.009 A 
HETATM   24  C   UNL     1       5.075  32.144  47.022  1.00  0.00     0.017 A 
BRANCH  22  25
HETATM   25  C   UNL     1       6.923  34.944  45.094  1.00  0.00    -0.024 C 
HETATM   26  C   UNL     1       7.234  34.245  43.751  1.00  0.00     0.019 C 
HETATM   27  C   UNL     1       8.185  35.694  45.564  1.00  0.00     0.019 C 
HETATM   28  C   UNL     1       5.818  35.985  44.797  1.00  0.00     0.019 C 
ENDBRANCH  22  25
ENDBRANCH  16  19
ENDBRANCH   1  15
BRANCH   1  29
HETATM   29  C   UNL     1       2.092  29.456  50.141  1.00  0.00     0.426 C 
HETATM   30  F   UNL     1       1.629  28.678  51.151  1.00  0.00    -0.167 F 
HETATM   31  F   UNL     1       1.347  30.587  50.169  1.00  0.00    -0.167 F 
HETATM   32  F   UNL     1       1.810  28.826  48.978  1.00  0.00    -0.167 F 
ENDBRANCH   1  29
BRANCH   7  33
HETATM   33  C   UNL     1       6.038  27.354  53.678  1.00  0.00     0.140 C 
BRANCH  33  34
HETATM   34  C   UNL     1       7.426  27.987  53.825  1.00  0.00     0.059 C 
BRANCH  34  35
HETATM   35  C   UNL     1       7.741  28.335  55.258  1.00  0.00    -0.057 A 
HETATM   36  C   UNL     1       8.854  29.128  55.573  1.00  0.00     0.007 A 
HETATM   37  C   UNL     1       9.152  29.433  56.902  1.00  0.00     0.001 A 
HETATM   38  C   UNL     1       8.338  28.955  57.926  1.00  0.00     0.000 A 
HETATM   39  C   UNL     1       7.228  28.170  57.624  1.00  0.00     0.001 A 
HETATM   40  C   UNL     1       6.931  27.858  56.296  1.00  0.00     0.007 A 
ENDBRANCH  34  35
ENDBRANCH  33  34
ENDBRANCH   7  33
TORSDOF 7
ENDMDL
MODEL 9
REMARK VINA RESULT:      -8.4      4.975     10.417
REMARK  7 active torsions:
REMARK  status: ('A' for Active; 'I' for Inactive)
REMARK    1  A    between atoms: C_2  and  C_3 
REMARK    2  A    between atoms: C_6  and  C_7 
REMARK       I    between atoms: C_7  and  N_8 
REMARK    3  A    between atoms: N_8  and  C_9 
REMARK    4  A    between atoms: C_9  and  C_10 
REMARK    5  A    between atoms: N_19  and  C_20 
REMARK    6  A    between atoms: C_20  and  C_21 
REMARK    7  A    between atoms: C_21  and  C_22 
ROOT
HETATM    1  C   UNL     1       5.237  29.287  55.328  1.00  0.00     0.249 A 
HETATM    2  C   UNL     1       6.648  29.025  55.885  1.00  0.00     0.266 A 
HETATM    3  O   UNL     1       7.254  29.687  56.713  1.00  0.00    -0.270 OA
HETATM    4  N   UNL     1       7.155  27.899  55.245  1.00  0.00    -0.310 N 
HETATM    5  C   UNL     1       6.288  27.434  54.314  1.00  0.00     0.129 A 
HETATM    6  C   UNL     1       5.191  28.190  54.313  1.00  0.00     0.101 A 
HETATM    7  N   UNL     1       6.459  26.356  53.491  1.00  0.00    -0.284 N 
HETATM    8  C   UNL     1       5.439  25.971  52.619  1.00  0.00     0.331 A 
HETATM    9  O   UNL     1       5.485  24.981  51.893  1.00  0.00    -0.246 OA
HETATM   10  N   UNL     1       4.318  26.772  52.623  1.00  0.00    -0.275 N 
HETATM   11  C   UNL     1       4.098  27.867  53.414  1.00  0.00     0.262 A 
HETATM   12  O   UNL     1       3.061  28.514  53.398  1.00  0.00    -0.267 OA
HETATM   13  H   UNL     1       8.090  27.558  55.418  1.00  0.00     0.170 HD
HETATM   14  H   UNL     1       3.579  26.506  51.990  1.00  0.00     0.173 HD
ENDROOT
BRANCH   1  15
HETATM   15  N   UNL     1       5.145  30.646  54.755  1.00  0.00    -0.327 N 
HETATM   16  C   UNL     1       5.043  31.783  55.524  1.00  0.00     0.253 C 
HETATM   17  O   UNL     1       5.075  31.776  56.748  1.00  0.00    -0.268 OA
HETATM   18  H   UNL     1       4.815  30.705  53.798  1.00  0.00     0.164 HD
BRANCH  16  19
HETATM   19  C   UNL     1       4.834  33.054  54.783  1.00  0.00     0.032 A 
HETATM   20  C   UNL     1       5.073  34.261  55.439  1.00  0.00     0.017 A 
HETATM   21  C   UNL     1       4.888  35.475  54.769  1.00  0.00     0.009 A 
HETATM   22  C   UNL     1       4.489  35.517  53.419  1.00  0.00    -0.051 A 
HETATM   23  C   UNL     1       4.247  34.285  52.782  1.00  0.00     0.009 A 
HETATM   24  C   UNL     1       4.425  33.066  53.449  1.00  0.00     0.017 A 
BRANCH  22  25
HETATM   25  C   UNL     1       4.286  36.858  52.690  1.00  0.00    -0.024 C 
HETATM   26  C   UNL     1       4.974  38.033  53.422  1.00  0.00     0.019 C 
HETATM   27  C   UNL     1       2.773  37.143  52.613  1.00  0.00     0.019 C 
HETATM   28  C   UNL     1       4.855  36.849  51.252  1.00  0.00     0.019 C 
ENDBRANCH  22  25
ENDBRANCH  16  19
ENDBRANCH   1  15
BRANCH   1  29
HETATM   29  C   UNL     1       4.282  29.033  56.499  1.00  0.00     0.426 C 
HETATM   30  F   UNL     1       3.111  29.697  56.334  1.00  0.00    -0.167 F 
HETATM   31  F   UNL     1       3.956  27.723  56.611  1.00  0.00    -0.167 F 
HETATM   32  F   UNL     1       4.803  29.412  57.688  1.00  0.00    -0.167 F 
ENDBRANCH   1  29
BRANCH   7  33
HETATM   33  C   UNL     1       7.685  25.558  53.525  1.00  0.00     0.140 C 
BRANCH  33  34
HETATM   34  C   UNL     1       7.774  24.692  54.786  1.00  0.00     0.059 C 
BRANCH  34  35
HETATM   35  C   UNL     1       7.823  23.221  54.460  1.00  0.00    -0.057 A 
HETATM   36  C   UNL     1       7.741  22.260  55.478  1.00  0.00     0.007 A 
HETATM   37  C   UNL     1       7.804  20.899  55.173  1.00  0.00     0.001 A 
HETATM   38  C   UNL     1       7.943  20.487  53.850  1.00  0.00     0.000 A 
HETATM   39  C   UNL     1       8.021  21.433  52.831  1.00  0.00     0.001 A 
HETATM   40  C   UNL     1       7.964  22.794  53.133  1.00  0.00     0.007 A 
ENDBRANCH  34  35
ENDBRANCH  33  34
ENDBRANCH   7  33
TORSDOF 7
ENDMDL
MODEL 10
REMARK VINA RESULT:      -8.1      4.861     10.174
REMARK  7 active torsions:
REMARK  status: ('A' for Active; 'I' for Inactive)
REMARK    1  A    between atoms: C_2  and  C_3 
REMARK    2  A    between atoms: C_6  and  C_7 
REMARK       I    between atoms: C_7  and  N_8 
REMARK    3  A    between atoms: N_8  and  C_9 
REMARK    4  A    between atoms: C_9  and  C_10 
REMARK    5  A    between atoms: N_19  and  C_20 
REMARK    6  A    between atoms: C_20  and  C_21 
REMARK    7  A    between atoms: C_21  and  C_22 
ROOT
HETATM    1  C   UNL     1       4.378  31.447  55.029  1.00  0.00     0.249 A 
HETATM    2  C   UNL     1       5.198  31.072  56.277  1.00  0.00     0.266 A 
HETATM    3  O   UNL     1       5.616  31.823  57.144  1.00  0.00    -0.270 OA
HETATM    4  N   UNL     1       5.428  29.701  56.236  1.00  0.00    -0.310 N 
HETATM    5  C   UNL     1       4.917  29.152  55.108  1.00  0.00     0.129 A 
HETATM    6  C   UNL     1       4.322  30.099  54.385  1.00  0.00     0.101 A 
HETATM    7  N   UNL     1       4.967  27.839  54.731  1.00  0.00    -0.284 N 
HETATM    8  C   UNL     1       4.338  27.423  53.557  1.00  0.00     0.331 A 
HETATM    9  O   UNL     1       4.281  26.255  53.179  1.00  0.00    -0.246 OA
HETATM   10  N   UNL     1       3.739  28.417  52.816  1.00  0.00    -0.275 N 
HETATM   11  C   UNL     1       3.670  29.746  53.138  1.00  0.00     0.262 A 
HETATM   12  O   UNL     1       3.086  30.575  52.455  1.00  0.00    -0.267 OA
HETATM   13  H   UNL     1       5.986  29.229  56.934  1.00  0.00     0.170 HD
HETATM   14  H   UNL     1       3.289  28.127  51.962  1.00  0.00     0.173 HD
ENDROOT
BRANCH   1  15
HETATM   15  N   UNL     1       5.082  32.472  54.230  1.00  0.00    -0.327 N 
HETATM   16  C   UNL     1       5.170  33.793  54.606  1.00  0.00     0.253 C 
HETATM   17  O   UNL     1       4.723  34.227  55.660  1.00  0.00    -0.268 OA
HETATM   18  H   UNL     1       5.201  32.264  53.244  1.00  0.00     0.164 HD
BRANCH  16  19
HETATM   19  C   UNL     1       5.806  34.709  53.623  1.00  0.00     0.032 A 
HETATM   20  C   UNL     1       5.800  34.354  52.274  1.00  0.00     0.017 A 
HETATM   21  C   UNL     1       6.387  35.196  51.323  1.00  0.00     0.009 A 
HETATM   22  C   UNL     1       6.969  36.425  51.688  1.00  0.00    -0.051 A 
HETATM   23  C   UNL     1       6.968  36.756  53.056  1.00  0.00     0.009 A 
HETATM   24  C   UNL     1       6.387  35.916  54.014  1.00  0.00     0.017 A 
BRANCH  22  25
HETATM   25  C   UNL     1       7.616  37.344  50.634  1.00  0.00    -0.024 C 
HETATM   26  C   UNL     1       7.831  36.625  49.283  1.00  0.00     0.019 C 
HETATM   27  C   UNL     1       8.984  37.807  51.170  1.00  0.00     0.019 C 
HETATM   28  C   UNL     1       6.761  38.597  50.329  1.00  0.00     0.019 C 
ENDBRANCH  22  25
ENDBRANCH  16  19
ENDBRANCH   1  15
BRANCH   1  29
HETATM   29  C   UNL     1       3.011  31.895  55.558  1.00  0.00     0.426 C 
HETATM   30  F   UNL     1       2.331  32.610  54.628  1.00  0.00    -0.167 F 
HETATM   31  F   UNL     1       2.220  30.840  55.870  1.00  0.00    -0.167 F 
HETATM   32  F   UNL     1       3.107  32.657  56.671  1.00  0.00    -0.167 F 
ENDBRANCH   1  29
BRANCH   7  33
HETATM   33  C   UNL     1       5.638  26.835  55.558  1.00  0.00     0.140 C 
BRANCH  33  34
HETATM   34  C   UNL     1       7.121  26.691  55.199  1.00  0.00     0.059 C 
BRANCH  34  35
HETATM   35  C   UNL     1       7.382  25.470  54.353  1.00  0.00    -0.057 A 
HETATM   36  C   UNL     1       7.275  24.184  54.902  1.00  0.00     0.007 A 
HETATM   37  C   UNL     1       7.535  23.057  54.121  1.00  0.00     0.001 A 
HETATM   38  C   UNL     1       7.898  23.204  52.784  1.00  0.00     0.000 A 
HETATM   39  C   UNL     1       8.004  24.477  52.228  1.00  0.00     0.001 A 
HETATM   40  C   UNL     1       7.751  25.606  53.009  1.00  0.00     0.007 A 
ENDBRANCH  34  35
ENDBRANCH  33  34
ENDBRANCH   7  33
TORSDOF 7
ENDMDL
