MODEL 1
REMARK VINA RESULT:     -10.1      0.000      0.000
REMARK  7 active torsions:
REMARK  status: ('A' for Active; 'I' for Inactive)
REMARK    1  A    between atoms: C_2  and  C_3 
REMARK    2  A    between atoms: C_3  and  N_4 
REMARK       I    between atoms: N_4  and  C_5 
REMARK    3  A    between atoms: C_5  and  C_6 
REMARK    4  A    between atoms: C_7  and  N_8 
REMARK    5  A    between atoms: N_9  and  N_10 
REMARK    6  A    between atoms: C_11  and  C_12 
REMARK    7  A    between atoms: C_13  and  O_14 
ROOT
HETATM    1  C   UNL     1       7.612  26.516  55.858  1.00  0.00     0.110 C 
HETATM    2  C   UNL     1       6.905  27.219  54.898  1.00  0.00     0.143 C 
HETATM    3  N   UNL     1       6.841  26.452  53.738  1.00  0.00    -0.197 N 
HETATM    4  C   UNL     1       7.271  25.171  54.052  1.00  0.00     0.183 A 
HETATM    5  C   UNL     1       7.805  25.216  55.338  1.00  0.00     0.125 A 
HETATM    6  N   UNL     1       8.388  24.127  55.905  1.00  0.00    -0.242 NA
HETATM    7  C   UNL     1       8.329  23.008  55.164  1.00  0.00     0.086 A 
HETATM    8  C   UNL     1       7.755  22.976  53.866  1.00  0.00     0.088 A 
HETATM    9  N   UNL     1       7.236  24.063  53.272  1.00  0.00    -0.225 NA
HETATM   10  C   UNL     1       8.848  21.834  55.697  1.00  0.00     0.034 A 
HETATM   11  C   UNL     1       8.806  20.630  54.992  1.00  0.00     0.002 A 
HETATM   12  C   UNL     1       8.240  20.598  53.725  1.00  0.00     0.002 A 
HETATM   13  C   UNL     1       7.723  21.771  53.175  1.00  0.00     0.034 A 
ENDROOT
BRANCH   3  14
HETATM   14  N   UNL     1       6.500  27.052  52.546  1.00  0.00    -0.176 NA
HETATM   15  C   UNL     1       5.295  26.914  52.105  1.00  0.00     0.153 C 
BRANCH  15  16
HETATM   16  C   UNL     1       4.960  27.373  50.735  1.00  0.00     0.017 A 
HETATM   17  C   UNL     1       5.338  28.642  50.271  1.00  0.00     0.077 A 
HETATM   18  C   UNL     1       5.085  29.017  48.955  1.00  0.00     0.039 A 
HETATM   19  C   UNL     1       4.455  28.123  48.089  1.00  0.00     0.022 A 
HETATM   20  C   UNL     1       4.077  26.861  48.552  1.00  0.00     0.012 A 
HETATM   21 BR   UNL     1       3.235  25.649  47.370  1.00  0.00    -0.051 Br
HETATM   22  C   UNL     1       4.327  26.477  49.870  1.00  0.00     0.034 A 
BRANCH  17  23
HETATM   23  O   UNL     1       5.989  29.558  51.050  1.00  0.00    -0.360 OA
HETATM   24  H   UNL     1       6.564  29.053  51.668  1.00  0.00     0.217 HD
ENDBRANCH  17  23
ENDBRANCH  15  16
ENDBRANCH   3  14
BRANCH   2  25
HETATM   25  N   UNL     1       6.423  28.491  54.934  1.00  0.00    -0.383 N 
HETATM   26  H   UNL     1       6.946  29.190  55.469  1.00  0.00     0.157 HD
HETATM   27  H   UNL     1       5.415  28.638  54.979  1.00  0.00     0.157 HD
ENDBRANCH   2  25
BRANCH   1  28
HETATM   28  C   UNL     1       8.065  27.091  57.107  1.00  0.00     0.258 C 
HETATM   29  N   UNL     1       8.749  28.280  56.950  1.00  0.00    -0.352 N 
HETATM   30  H   UNL     1       8.873  28.613  56.003  1.00  0.00     0.163 HD
HETATM   31  O   UNL     1       7.727  26.641  58.199  1.00  0.00    -0.267 OA
BRANCH  29  32
HETATM   32  C   UNL     1       8.792  29.257  58.029  1.00  0.00     0.080 C 
HETATM   33  C   UNL     1       7.479  30.047  58.075  1.00  0.00     0.032 C 
BRANCH  32  34
HETATM   34  C   UNL     1       9.969  30.226  57.849  1.00  0.00     0.020 C 
HETATM   35  C   UNL     1      11.070  29.661  56.965  1.00  0.00     0.007 C 
ENDBRANCH  32  34
ENDBRANCH  29  32
ENDBRANCH   1  28
TORSDOF 7
ENDMDL
MODEL 2
REMARK VINA RESULT:      -9.9      3.431      7.814
REMARK  7 active torsions:
REMARK  status: ('A' for Active; 'I' for Inactive)
REMARK    1  A    between atoms: C_2  and  C_3 
REMARK    2  A    between atoms: C_3  and  N_4 
REMARK       I    between atoms: N_4  and  C_5 
REMARK    3  A    between atoms: C_5  and  C_6 
REMARK    4  A    between atoms: C_7  and  N_8 
REMARK    5  A    between atoms: N_9  and  N_10 
REMARK    6  A    between atoms: C_11  and  C_12 
REMARK    7  A    between atoms: C_13  and  O_14 
ROOT
HETATM    1  C   UNL     1       7.372  25.026  55.751  1.00  0.00     0.110 C 
HETATM    2  C   UNL     1       7.350  25.905  56.820  1.00  0.00     0.143 C 
HETATM    3  N   UNL     1       7.031  27.175  56.350  1.00  0.00    -0.197 N 
HETATM    4  C   UNL     1       6.593  27.045  55.039  1.00  0.00     0.183 A 
HETATM    5  C   UNL     1       6.857  25.736  54.642  1.00  0.00     0.125 A 
HETATM    6  N   UNL     1       6.615  25.316  53.373  1.00  0.00    -0.242 NA
HETATM    7  C   UNL     1       6.035  26.231  52.577  1.00  0.00     0.086 A 
HETATM    8  C   UNL     1       5.749  27.552  53.010  1.00  0.00     0.088 A 
HETATM    9  N   UNL     1       6.045  27.995  54.243  1.00  0.00    -0.225 NA
HETATM   10  C   UNL     1       5.698  25.862  51.281  1.00  0.00     0.034 A 
HETATM   11  C   UNL     1       5.077  26.754  50.405  1.00  0.00     0.002 A 
HETATM   12  C   UNL     1       4.793  28.044  50.830  1.00  0.00     0.002 A 
HETATM   13  C   UNL     1       5.133  28.429  52.127  1.00  0.00     0.034 A 
ENDROOT
BRANCH   3  14
HETATM   14  N   UNL     1       7.279  28.274  57.141  1.00  0.00    -0.176 NA
HETATM   15  C   UNL     1       8.362  28.949  56.943  1.00  0.00     0.153 C 
BRANCH  15  16
HETATM   16  C   UNL     1       8.751  30.007  57.906  1.00  0.00     0.017 A 
HETATM   17  C   UNL     1      10.004  30.636  57.844  1.00  0.00     0.077 A 
HETATM   18  C   UNL     1      10.313  31.683  58.706  1.00  0.00     0.039 A 
HETATM   19  C   UNL     1       9.368  32.114  59.638  1.00  0.00     0.022 A 
HETATM   20  C   UNL     1       8.123  31.487  59.702  1.00  0.00     0.012 A 
HETATM   21 BR   UNL     1       6.842  32.084  60.958  1.00  0.00    -0.051 Br
HETATM   22  C   UNL     1       7.804  30.436  58.840  1.00  0.00     0.034 A 
BRANCH  17  23
HETATM   23  O   UNL     1      10.967  30.292  56.935  1.00  0.00    -0.360 OA
HETATM   24  H   UNL     1      11.729  29.935  57.445  1.00  0.00     0.217 HD
ENDBRANCH  17  23
ENDBRANCH  15  16
ENDBRANCH   3  14
BRANCH   2  25
HETATM   25  N   UNL     1       7.688  25.695  58.121  1.00  0.00    -0.383 N 
HETATM   26  H   UNL     1       7.128  25.032  58.665  1.00  0.00     0.157 HD
HETATM   27  H   UNL     1       8.016  26.481  58.681  1.00  0.00     0.157 HD
ENDBRANCH   2  25
BRANCH   1  28
HETATM   28  C   UNL     1       7.880  23.673  55.830  1.00  0.00     0.258 C 
HETATM   29  N   UNL     1       7.405  22.848  54.830  1.00  0.00    -0.352 N 
HETATM   30  H   UNL     1       6.758  23.257  54.169  1.00  0.00     0.163 HD
HETATM   31  O   UNL     1       8.767  23.348  56.614  1.00  0.00    -0.267 OA
BRANCH  29  32
HETATM   32  C   UNL     1       8.172  21.685  54.404  1.00  0.00     0.080 C 
HETATM   33  C   UNL     1       7.918  21.403  52.918  1.00  0.00     0.032 C 
BRANCH  32  34
HETATM   34  C   UNL     1       7.802  20.447  55.233  1.00  0.00     0.020 C 
HETATM   35  C   UNL     1       8.868  20.077  56.252  1.00  0.00     0.007 C 
ENDBRANCH  32  34
ENDBRANCH  29  32
ENDBRANCH   1  28
TORSDOF 7
ENDMDL
MODEL 3
REMARK VINA RESULT:      -9.6      1.917      2.343
REMARK  7 active torsions:
REMARK  status: ('A' for Active; 'I' for Inactive)
REMARK    1  A    between atoms: C_2  and  C_3 
REMARK    2  A    between atoms: C_3  and  N_4 
REMARK       I    between atoms: N_4  and  C_5 
REMARK    3  A    between atoms: C_5  and  C_6 
REMARK    4  A    between atoms: C_7  and  N_8 
REMARK    5  A    between atoms: N_9  and  N_10 
REMARK    6  A    between atoms: C_11  and  C_12 
REMARK    7  A    between atoms: C_13  and  O_14 
ROOT
HETATM    1  C   UNL     1       6.077  27.108  54.972  1.00  0.00     0.110 C 
HETATM    2  C   UNL     1       5.114  27.333  54.004  1.00  0.00     0.143 C 
HETATM    3  N   UNL     1       5.278  26.401  52.984  1.00  0.00    -0.197 N 
HETATM    4  C   UNL     1       6.164  25.432  53.432  1.00  0.00     0.183 A 
HETATM    5  C   UNL     1       6.709  25.890  54.630  1.00  0.00     0.125 A 
HETATM    6  N   UNL     1       7.678  25.197  55.282  1.00  0.00    -0.242 NA
HETATM    7  C   UNL     1       7.999  24.018  54.724  1.00  0.00     0.086 A 
HETATM    8  C   UNL     1       7.412  23.555  53.517  1.00  0.00     0.088 A 
HETATM    9  N   UNL     1       6.500  24.265  52.832  1.00  0.00    -0.225 NA
HETATM   10  C   UNL     1       8.939  23.218  55.362  1.00  0.00     0.034 A 
HETATM   11  C   UNL     1       9.307  21.972  54.851  1.00  0.00     0.002 A 
HETATM   12  C   UNL     1       8.730  21.518  53.673  1.00  0.00     0.002 A 
HETATM   13  C   UNL     1       7.790  22.315  53.018  1.00  0.00     0.034 A 
ENDROOT
BRANCH   3  14
HETATM   14  N   UNL     1       4.681  26.620  51.762  1.00  0.00    -0.176 NA
HETATM   15  C   UNL     1       5.415  27.015  50.776  1.00  0.00     0.153 C 
BRANCH  15  16
HETATM   16  C   UNL     1       4.770  27.451  49.514  1.00  0.00     0.017 A 
HETATM   17  C   UNL     1       3.891  26.616  48.808  1.00  0.00     0.077 A 
HETATM   18  C   UNL     1       3.235  27.078  47.672  1.00  0.00     0.039 A 
HETATM   19  C   UNL     1       3.450  28.385  47.233  1.00  0.00     0.022 A 
HETATM   20  C   UNL     1       4.326  29.215  47.932  1.00  0.00     0.012 A 
HETATM   21 BR   UNL     1       4.604  30.989  47.339  1.00  0.00    -0.051 Br
HETATM   22  C   UNL     1       4.989  28.759  49.074  1.00  0.00     0.034 A 
BRANCH  17  23
HETATM   23  O   UNL     1       3.604  25.336  49.198  1.00  0.00    -0.360 OA
HETATM   24  H   UNL     1       2.624  25.244  49.182  1.00  0.00     0.217 HD
ENDBRANCH  17  23
ENDBRANCH  15  16
ENDBRANCH   3  14
BRANCH   2  25
HETATM   25  N   UNL     1       4.201  28.337  53.908  1.00  0.00    -0.383 N 
HETATM   26  H   UNL     1       3.861  28.593  52.976  1.00  0.00     0.157 HD
HETATM   27  H   UNL     1       4.280  29.142  54.529  1.00  0.00     0.157 HD
ENDBRANCH   2  25
BRANCH   1  28
HETATM   28  C   UNL     1       6.349  28.018  56.066  1.00  0.00     0.258 C 
HETATM   29  N   UNL     1       7.693  28.142  56.356  1.00  0.00    -0.352 N 
HETATM   30  H   UNL     1       8.333  27.591  55.801  1.00  0.00     0.163 HD
HETATM   31  O   UNL     1       5.477  28.723  56.567  1.00  0.00    -0.267 OA
BRANCH  29  32
HETATM   32  C   UNL     1       8.203  29.350  56.990  1.00  0.00     0.080 C 
HETATM   33  C   UNL     1       9.673  29.562  56.609  1.00  0.00     0.032 C 
BRANCH  32  34
HETATM   34  C   UNL     1       8.075  29.269  58.518  1.00  0.00     0.020 C 
HETATM   35  C   UNL     1       8.686  30.467  59.228  1.00  0.00     0.007 C 
ENDBRANCH  32  34
ENDBRANCH  29  32
ENDBRANCH   1  28
TORSDOF 7
ENDMDL
MODEL 4
REMARK VINA RESULT:      -9.4      4.114      7.803
REMARK  7 active torsions:
REMARK  status: ('A' for Active; 'I' for Inactive)
REMARK    1  A    between atoms: C_2  and  C_3 
REMARK    2  A    between atoms: C_3  and  N_4 
REMARK       I    between atoms: N_4  and  C_5 
REMARK    3  A    between atoms: C_5  and  C_6 
REMARK    4  A    between atoms: C_7  and  N_8 
REMARK    5  A    between atoms: N_9  and  N_10 
REMARK    6  A    between atoms: C_11  and  C_12 
REMARK    7  A    between atoms: C_13  and  O_14 
ROOT
HETATM    1  C   UNL     1       7.844  31.138  58.406  1.00  0.00     0.110 C 
HETATM    2  C   UNL     1       8.587  30.103  57.867  1.00  0.00     0.143 C 
HETATM    3  N   UNL     1       7.790  29.397  56.972  1.00  0.00    -0.197 N 
HETATM    4  C   UNL     1       6.640  30.142  56.749  1.00  0.00     0.183 A 
HETATM    5  C   UNL     1       6.636  31.185  57.673  1.00  0.00     0.125 A 
HETATM    6  N   UNL     1       5.593  32.050  57.764  1.00  0.00    -0.242 NA
HETATM    7  C   UNL     1       4.626  31.865  56.850  1.00  0.00     0.086 A 
HETATM    8  C   UNL     1       4.662  30.812  55.897  1.00  0.00     0.088 A 
HETATM    9  N   UNL     1       5.658  29.913  55.843  1.00  0.00    -0.225 NA
HETATM   10  C   UNL     1       3.552  32.746  56.834  1.00  0.00     0.034 A 
HETATM   11  C   UNL     1       2.520  32.625  55.902  1.00  0.00     0.002 A 
HETATM   12  C   UNL     1       2.558  31.600  54.968  1.00  0.00     0.002 A 
HETATM   13  C   UNL     1       3.627  30.703  54.977  1.00  0.00     0.034 A 
ENDROOT
BRANCH   3  14
HETATM   14  N   UNL     1       8.173  28.137  56.568  1.00  0.00    -0.176 NA
HETATM   15  C   UNL     1       7.267  27.228  56.433  1.00  0.00     0.153 C 
BRANCH  15  16
HETATM   16  C   UNL     1       7.672  25.820  56.200  1.00  0.00     0.017 A 
HETATM   17  C   UNL     1       8.067  24.983  57.254  1.00  0.00     0.077 A 
HETATM   18  C   UNL     1       8.363  23.643  57.020  1.00  0.00     0.039 A 
HETATM   19  C   UNL     1       8.262  23.128  55.728  1.00  0.00     0.022 A 
HETATM   20  C   UNL     1       7.872  23.962  54.678  1.00  0.00     0.012 A 
HETATM   21 BR   UNL     1       7.724  23.255  52.931  1.00  0.00    -0.051 Br
HETATM   22  C   UNL     1       7.573  25.307  54.904  1.00  0.00     0.034 A 
BRANCH  17  23
HETATM   23  O   UNL     1       8.155  25.407  58.552  1.00  0.00    -0.360 OA
HETATM   24  H   UNL     1       9.109  25.404  58.791  1.00  0.00     0.217 HD
ENDBRANCH  17  23
ENDBRANCH  15  16
ENDBRANCH   3  14
BRANCH   2  25
HETATM   25  N   UNL     1       9.843  29.684  58.180  1.00  0.00    -0.383 N 
HETATM   26  H   UNL     1      10.454  29.376  57.418  1.00  0.00     0.157 HD
HETATM   27  H   UNL     1       9.989  29.151  59.038  1.00  0.00     0.157 HD
ENDBRANCH   2  25
BRANCH   1  28
HETATM   28  C   UNL     1       8.276  31.941  59.532  1.00  0.00     0.258 C 
HETATM   29  N   UNL     1       7.516  31.749  60.668  1.00  0.00    -0.352 N 
HETATM   30  H   UNL     1       6.746  31.096  60.597  1.00  0.00     0.163 HD
HETATM   31  O   UNL     1       9.313  32.598  59.511  1.00  0.00    -0.267 OA
BRANCH  29  32
HETATM   32  C   UNL     1       8.080  32.001  61.986  1.00  0.00     0.080 C 
HETATM   33  C   UNL     1       8.570  30.688  62.608  1.00  0.00     0.032 C 
BRANCH  32  34
HETATM   34  C   UNL     1       7.046  32.655  62.914  1.00  0.00     0.020 C 
HETATM   35  C   UNL     1       7.640  33.104  64.240  1.00  0.00     0.007 C 
ENDBRANCH  32  34
ENDBRANCH  29  32
ENDBRANCH   1  28
TORSDOF 7
ENDMDL
MODEL 5
REMARK VINA RESULT:      -9.3      1.620      2.184
REMARK  7 active torsions:
REMARK  status: ('A' for Active; 'I' for Inactive)
REMARK    1  A    between atoms: C_2  and  C_3 
REMARK    2  A    between atoms: C_3  and  N_4 
REMARK       I    between atoms: N_4  and  C_5 
REMARK    3  A    between atoms: C_5  and  C_6 
REMARK    4  A    between atoms: C_7  and  N_8 
REMARK    5  A    between atoms: N_9  and  N_10 
REMARK    6  A    between atoms: C_11  and  C_12 
REMARK    7  A    between atoms: C_13  and  O_14 
ROOT
HETATM    1  C   UNL     1       6.294  28.470  56.111  1.00  0.00     0.110 C 
HETATM    2  C   UNL     1       5.420  28.730  55.070  1.00  0.00     0.143 C 
HETATM    3  N   UNL     1       5.440  27.653  54.189  1.00  0.00    -0.197 N 
HETATM    4  C   UNL     1       6.117  26.612  54.807  1.00  0.00     0.183 A 
HETATM    5  C   UNL     1       6.699  27.124  55.964  1.00  0.00     0.125 A 
HETATM    6  N   UNL     1       7.503  26.364  56.753  1.00  0.00    -0.242 NA
HETATM    7  C   UNL     1       7.617  25.081  56.370  1.00  0.00     0.086 A 
HETATM    8  C   UNL     1       6.992  24.571  55.202  1.00  0.00     0.088 A 
HETATM    9  N   UNL     1       6.250  25.332  54.382  1.00  0.00    -0.225 NA
HETATM   10  C   UNL     1       8.372  24.221  57.158  1.00  0.00     0.034 A 
HETATM   11  C   UNL     1       8.519  22.871  56.832  1.00  0.00     0.002 A 
HETATM   12  C   UNL     1       7.905  22.371  55.693  1.00  0.00     0.002 A 
HETATM   13  C   UNL     1       7.150  23.226  54.889  1.00  0.00     0.034 A 
ENDROOT
BRANCH   3  14
HETATM   14  N   UNL     1       4.932  27.806  52.917  1.00  0.00    -0.176 NA
HETATM   15  C   UNL     1       5.757  27.912  51.930  1.00  0.00     0.153 C 
BRANCH  15  16
HETATM   16  C   UNL     1       5.246  28.279  50.587  1.00  0.00     0.017 A 
HETATM   17  C   UNL     1       5.503  29.537  50.020  1.00  0.00     0.077 A 
HETATM   18  C   UNL     1       5.084  29.826  48.725  1.00  0.00     0.039 A 
HETATM   19  C   UNL     1       4.406  28.858  47.983  1.00  0.00     0.022 A 
HETATM   20  C   UNL     1       4.149  27.608  48.548  1.00  0.00     0.012 A 
HETATM   21 BR   UNL     1       3.242  26.295  47.534  1.00  0.00    -0.051 Br
HETATM   22  C   UNL     1       4.566  27.308  49.847  1.00  0.00     0.034 A 
BRANCH  17  23
HETATM   23  O   UNL     1       6.190  30.523  50.672  1.00  0.00    -0.360 OA
HETATM   24  H   UNL     1       5.624  30.824  51.417  1.00  0.00     0.217 HD
ENDBRANCH  17  23
ENDBRANCH  15  16
ENDBRANCH   3  14
BRANCH   2  25
HETATM   25  N   UNL     1       4.711  29.858  54.794  1.00  0.00    -0.383 N 
HETATM   26  H   UNL     1       4.904  30.697  55.348  1.00  0.00     0.157 HD
HETATM   27  H   UNL     1       3.727  29.777  54.539  1.00  0.00     0.157 HD
ENDBRANCH   2  25
BRANCH   1  28
HETATM   28  C   UNL     1       6.695  29.458  57.092  1.00  0.00     0.258 C 
HETATM   29  N   UNL     1       7.962  29.248  57.596  1.00  0.00    -0.352 N 
HETATM   30  H   UNL     1       8.464  28.441  57.249  1.00  0.00     0.163 HD
HETATM   31  O   UNL     1       6.030  30.464  57.322  1.00  0.00    -0.267 OA
BRANCH  29  32
HETATM   32  C   UNL     1       8.739  30.359  58.129  1.00  0.00     0.080 C 
HETATM   33  C   UNL     1      10.204  30.232  57.694  1.00  0.00     0.032 C 
BRANCH  32  34
HETATM   34  C   UNL     1       8.660  30.403  59.661  1.00  0.00     0.020 C 
HETATM   35  C   UNL     1       9.358  31.617  60.255  1.00  0.00     0.007 C 
ENDBRANCH  32  34
ENDBRANCH  29  32
ENDBRANCH   1  28
TORSDOF 7
ENDMDL
MODEL 6
REMARK VINA RESULT:      -9.2      3.056      7.148
REMARK  7 active torsions:
REMARK  status: ('A' for Active; 'I' for Inactive)
REMARK    1  A    between atoms: C_2  and  C_3 
REMARK    2  A    between atoms: C_3  and  N_4 
REMARK       I    between atoms: N_4  and  C_5 
REMARK    3  A    between atoms: C_5  and  C_6 
REMARK    4  A    between atoms: C_7  and  N_8 
REMARK    5  A    between atoms: N_9  and  N_10 
REMARK    6  A    between atoms: C_11  and  C_12 
REMARK    7  A    between atoms: C_13  and  O_14 
ROOT
HETATM    1  C   UNL     1       4.720  29.045  52.341  1.00  0.00     0.110 C 
HETATM    2  C   UNL     1       5.866  28.375  52.729  1.00  0.00     0.143 C 
HETATM    3  N   UNL     1       5.978  27.207  51.981  1.00  0.00    -0.197 N 
HETATM    4  C   UNL     1       5.055  27.276  50.946  1.00  0.00     0.183 A 
HETATM    5  C   UNL     1       4.235  28.375  51.194  1.00  0.00     0.125 A 
HETATM    6  N   UNL     1       3.174  28.665  50.398  1.00  0.00    -0.242 NA
HETATM    7  C   UNL     1       3.039  27.865  49.326  1.00  0.00     0.086 A 
HETATM    8  C   UNL     1       3.903  26.767  49.076  1.00  0.00     0.088 A 
HETATM    9  N   UNL     1       4.915  26.434  49.894  1.00  0.00    -0.225 NA
HETATM   10  C   UNL     1       2.015  28.131  48.427  1.00  0.00     0.034 A 
HETATM   11  C   UNL     1       1.825  27.354  47.283  1.00  0.00     0.002 A 
HETATM   12  C   UNL     1       2.673  26.283  47.035  1.00  0.00     0.002 A 
HETATM   13  C   UNL     1       3.701  26.000  47.935  1.00  0.00     0.034 A 
ENDROOT
BRANCH   3  14
HETATM   14  N   UNL     1       6.826  26.207  52.404  1.00  0.00    -0.176 NA
HETATM   15  C   UNL     1       6.336  25.229  53.090  1.00  0.00     0.153 C 
BRANCH  15  16
HETATM   16  C   UNL     1       7.252  24.253  53.727  1.00  0.00     0.017 A 
HETATM   17  C   UNL     1       7.866  24.515  54.962  1.00  0.00     0.077 A 
HETATM   18  C   UNL     1       8.655  23.549  55.578  1.00  0.00     0.039 A 
HETATM   19  C   UNL     1       8.834  22.308  54.966  1.00  0.00     0.022 A 
HETATM   20  C   UNL     1       8.226  22.048  53.737  1.00  0.00     0.012 A 
HETATM   21 BR   UNL     1       8.463  20.360  52.918  1.00  0.00    -0.051 Br
HETATM   22  C   UNL     1       7.433  23.012  53.111  1.00  0.00     0.034 A 
BRANCH  17  23
HETATM   23  O   UNL     1       7.708  25.694  55.638  1.00  0.00    -0.360 OA
HETATM   24  H   UNL     1       7.690  25.475  56.597  1.00  0.00     0.217 HD
ENDBRANCH  17  23
ENDBRANCH  15  16
ENDBRANCH   3  14
BRANCH   2  25
HETATM   25  N   UNL     1       6.734  28.655  53.739  1.00  0.00    -0.383 N 
HETATM   26  H   UNL     1       7.618  28.140  53.773  1.00  0.00     0.157 HD
HETATM   27  H   UNL     1       6.365  28.858  54.668  1.00  0.00     0.157 HD
ENDBRANCH   2  25
BRANCH   1  28
HETATM   28  C   UNL     1       4.169  30.180  53.053  1.00  0.00     0.258 C 
HETATM   29  N   UNL     1       3.842  29.899  54.364  1.00  0.00    -0.352 N 
HETATM   30  H   UNL     1       4.003  28.953  54.683  1.00  0.00     0.163 HD
HETATM   31  O   UNL     1       4.151  31.311  52.575  1.00  0.00    -0.267 OA
BRANCH  29  32
HETATM   32  C   UNL     1       3.812  30.960  55.362  1.00  0.00     0.080 C 
HETATM   33  C   UNL     1       5.232  31.250  55.864  1.00  0.00     0.032 C 
BRANCH  32  34
HETATM   34  C   UNL     1       2.916  30.577  56.548  1.00  0.00     0.020 C 
HETATM   35  C   UNL     1       3.525  30.944  57.892  1.00  0.00     0.007 C 
ENDBRANCH  32  34
ENDBRANCH  29  32
ENDBRANCH   1  28
TORSDOF 7
ENDMDL
MODEL 7
REMARK VINA RESULT:      -9.1      2.792      8.238
REMARK  7 active torsions:
REMARK  status: ('A' for Active; 'I' for Inactive)
REMARK    1  A    between atoms: C_2  and  C_3 
REMARK    2  A    between atoms: C_3  and  N_4 
REMARK       I    between atoms: N_4  and  C_5 
REMARK    3  A    between atoms: C_5  and  C_6 
REMARK    4  A    between atoms: C_7  and  N_8 
REMARK    5  A    between atoms: N_9  and  N_10 
REMARK    6  A    between atoms: C_11  and  C_12 
REMARK    7  A    between atoms: C_13  and  O_14 
ROOT
HETATM    1  C   UNL     1       4.229  28.096  53.193  1.00  0.00     0.110 C 
HETATM    2  C   UNL     1       4.427  26.792  53.613  1.00  0.00     0.143 C 
HETATM    3  N   UNL     1       5.102  26.811  54.829  1.00  0.00    -0.197 N 
HETATM    4  C   UNL     1       5.092  28.116  55.300  1.00  0.00     0.183 A 
HETATM    5  C   UNL     1       4.611  28.924  54.272  1.00  0.00     0.125 A 
HETATM    6  N   UNL     1       4.556  30.276  54.396  1.00  0.00    -0.242 NA
HETATM    7  C   UNL     1       4.921  30.746  55.601  1.00  0.00     0.086 A 
HETATM    8  C   UNL     1       5.382  29.902  56.646  1.00  0.00     0.088 A 
HETATM    9  N   UNL     1       5.501  28.572  56.509  1.00  0.00    -0.225 NA
HETATM   10  C   UNL     1       4.835  32.113  55.832  1.00  0.00     0.034 A 
HETATM   11  C   UNL     1       5.180  32.670  57.065  1.00  0.00     0.002 A 
HETATM   12  C   UNL     1       5.627  31.845  58.087  1.00  0.00     0.002 A 
HETATM   13  C   UNL     1       5.725  30.471  57.867  1.00  0.00     0.034 A 
ENDROOT
BRANCH   3  14
HETATM   14  N   UNL     1       5.716  25.664  55.283  1.00  0.00    -0.176 NA
HETATM   15  C   UNL     1       6.909  25.395  54.869  1.00  0.00     0.153 C 
BRANCH  15  16
HETATM   16  C   UNL     1       7.509  24.075  55.178  1.00  0.00     0.017 A 
HETATM   17  C   UNL     1       7.870  23.718  56.487  1.00  0.00     0.077 A 
HETATM   18  C   UNL     1       8.354  22.443  56.764  1.00  0.00     0.039 A 
HETATM   19  C   UNL     1       8.478  21.511  55.734  1.00  0.00     0.022 A 
HETATM   20  C   UNL     1       8.121  21.866  54.432  1.00  0.00     0.012 A 
HETATM   21 BR   UNL     1       8.279  20.594  53.042  1.00  0.00    -0.051 Br
HETATM   22  C   UNL     1       7.634  23.143  54.145  1.00  0.00     0.034 A 
BRANCH  17  23
HETATM   23  O   UNL     1       7.744  24.566  57.553  1.00  0.00    -0.360 OA
HETATM   24  H   UNL     1       7.126  25.281  57.281  1.00  0.00     0.217 HD
ENDBRANCH  17  23
ENDBRANCH  15  16
ENDBRANCH   3  14
BRANCH   2  25
HETATM   25  N   UNL     1       4.160  25.624  52.968  1.00  0.00    -0.383 N 
HETATM   26  H   UNL     1       3.389  25.609  52.295  1.00  0.00     0.157 HD
HETATM   27  H   UNL     1       4.252  24.744  53.476  1.00  0.00     0.157 HD
ENDBRANCH   2  25
BRANCH   1  28
HETATM   28  C   UNL     1       3.758  28.454  51.871  1.00  0.00     0.258 C 
HETATM   29  N   UNL     1       4.593  28.029  50.856  1.00  0.00    -0.352 N 
HETATM   30  H   UNL     1       5.432  27.536  51.132  1.00  0.00     0.163 HD
HETATM   31  O   UNL     1       2.648  28.943  51.677  1.00  0.00    -0.267 OA
BRANCH  29  32
HETATM   32  C   UNL     1       4.068  27.792  49.518  1.00  0.00     0.080 C 
HETATM   33  C   UNL     1       4.284  26.326  49.122  1.00  0.00     0.032 C 
BRANCH  32  34
HETATM   34  C   UNL     1       4.747  28.708  48.489  1.00  0.00     0.020 C 
HETATM   35  C   UNL     1       5.408  27.937  47.357  1.00  0.00     0.007 C 
ENDBRANCH  32  34
ENDBRANCH  29  32
ENDBRANCH   1  28
TORSDOF 7
ENDMDL
MODEL 8
REMARK VINA RESULT:      -9.1      3.506      7.643
REMARK  7 active torsions:
REMARK  status: ('A' for Active; 'I' for Inactive)
REMARK    1  A    between atoms: C_2  and  C_3 
REMARK    2  A    between atoms: C_3  and  N_4 
REMARK       I    between atoms: N_4  and  C_5 
REMARK    3  A    between atoms: C_5  and  C_6 
REMARK    4  A    between atoms: C_7  and  N_8 
REMARK    5  A    between atoms: N_9  and  N_10 
REMARK    6  A    between atoms: C_11  and  C_12 
REMARK    7  A    between atoms: C_13  and  O_14 
ROOT
HETATM    1  C   UNL     1       4.723  29.043  51.883  1.00  0.00     0.110 C 
HETATM    2  C   UNL     1       5.790  28.321  52.386  1.00  0.00     0.143 C 
HETATM    3  N   UNL     1       5.808  27.067  51.783  1.00  0.00    -0.197 N 
HETATM    4  C   UNL     1       4.922  27.098  50.715  1.00  0.00     0.183 A 
HETATM    5  C   UNL     1       4.204  28.289  50.805  1.00  0.00     0.125 A 
HETATM    6  N   UNL     1       3.195  28.578  49.943  1.00  0.00    -0.242 NA
HETATM    7  C   UNL     1       3.011  27.672  48.968  1.00  0.00     0.086 A 
HETATM    8  C   UNL     1       3.772  26.478  48.877  1.00  0.00     0.088 A 
HETATM    9  N   UNL     1       4.727  26.153  49.764  1.00  0.00    -0.225 NA
HETATM   10  C   UNL     1       2.039  27.923  48.008  1.00  0.00     0.034 A 
HETATM   11  C   UNL     1       1.804  27.036  46.956  1.00  0.00     0.002 A 
HETATM   12  C   UNL     1       2.551  25.870  46.864  1.00  0.00     0.002 A 
HETATM   13  C   UNL     1       3.525  25.603  47.826  1.00  0.00     0.034 A 
ENDROOT
BRANCH   3  14
HETATM   14  N   UNL     1       6.545  26.051  52.349  1.00  0.00    -0.176 NA
HETATM   15  C   UNL     1       5.928  25.136  53.019  1.00  0.00     0.153 C 
BRANCH  15  16
HETATM   16  C   UNL     1       6.711  24.151  53.804  1.00  0.00     0.017 A 
HETATM   17  C   UNL     1       6.899  24.294  55.187  1.00  0.00     0.077 A 
HETATM   18  C   UNL     1       7.566  23.313  55.915  1.00  0.00     0.039 A 
HETATM   19  C   UNL     1       8.048  22.177  55.265  1.00  0.00     0.022 A 
HETATM   20  C   UNL     1       7.863  22.036  53.889  1.00  0.00     0.012 A 
HETATM   21 BR   UNL     1       8.508  20.488  53.015  1.00  0.00    -0.051 Br
HETATM   22  C   UNL     1       7.195  23.015  53.151  1.00  0.00     0.034 A 
BRANCH  17  23
HETATM   23  O   UNL     1       6.424  25.362  55.898  1.00  0.00    -0.360 OA
HETATM   24  H   UNL     1       7.080  25.549  56.608  1.00  0.00     0.217 HD
ENDBRANCH  17  23
ENDBRANCH  15  16
ENDBRANCH   3  14
BRANCH   2  25
HETATM   25  N   UNL     1       6.656  28.638  53.387  1.00  0.00    -0.383 N 
HETATM   26  H   UNL     1       6.267  28.912  54.294  1.00  0.00     0.157 HD
HETATM   27  H   UNL     1       7.512  29.143  53.161  1.00  0.00     0.157 HD
ENDBRANCH   2  25
BRANCH   1  28
HETATM   28  C   UNL     1       4.266  30.300  52.438  1.00  0.00     0.258 C 
HETATM   29  N   UNL     1       3.923  31.233  51.480  1.00  0.00    -0.352 N 
HETATM   30  H   UNL     1       4.035  30.957  50.514  1.00  0.00     0.163 HD
HETATM   31  O   UNL     1       4.055  30.451  53.639  1.00  0.00    -0.267 OA
BRANCH  29  32
HETATM   32  C   UNL     1       2.963  32.286  51.783  1.00  0.00     0.080 C 
HETATM   33  C   UNL     1       1.801  32.241  50.784  1.00  0.00     0.032 C 
BRANCH  32  34
HETATM   34  C   UNL     1       3.629  33.669  51.736  1.00  0.00     0.020 C 
HETATM   35  C   UNL     1       5.078  33.612  51.278  1.00  0.00     0.007 C 
ENDBRANCH  32  34
ENDBRANCH  29  32
ENDBRANCH   1  28
TORSDOF 7
ENDMDL
MODEL 9
REMARK VINA RESULT:      -8.9      3.981      8.310
REMARK  7 active torsions:
REMARK  status: ('A' for Active; 'I' for Inactive)
REMARK    1  A    between atoms: C_2  and  C_3 
REMARK    2  A    between atoms: C_3  and  N_4 
REMARK       I    between atoms: N_4  and  C_5 
REMARK    3  A    between atoms: C_5  and  C_6 
REMARK    4  A    between atoms: C_7  and  N_8 
REMARK    5  A    between atoms: N_9  and  N_10 
REMARK    6  A    between atoms: C_11  and  C_12 
REMARK    7  A    between atoms: C_13  and  O_14 
ROOT
HETATM    1  C   UNL     1       5.629  29.039  54.852  1.00  0.00     0.110 C 
HETATM    2  C   UNL     1       5.758  30.047  55.791  1.00  0.00     0.143 C 
HETATM    3  N   UNL     1       6.286  29.507  56.960  1.00  0.00    -0.197 N 
HETATM    4  C   UNL     1       6.736  28.226  56.669  1.00  0.00     0.183 A 
HETATM    5  C   UNL     1       6.281  27.907  55.392  1.00  0.00     0.125 A 
HETATM    6  N   UNL     1       6.490  26.679  54.849  1.00  0.00    -0.242 NA
HETATM    7  C   UNL     1       7.229  25.848  55.603  1.00  0.00     0.086 A 
HETATM    8  C   UNL     1       7.707  26.203  56.892  1.00  0.00     0.088 A 
HETATM    9  N   UNL     1       7.449  27.391  57.463  1.00  0.00    -0.225 NA
HETATM   10  C   UNL     1       7.541  24.594  55.094  1.00  0.00     0.034 A 
HETATM   11  C   UNL     1       8.319  23.685  55.814  1.00  0.00     0.002 A 
HETATM   12  C   UNL     1       8.790  24.034  57.072  1.00  0.00     0.002 A 
HETATM   13  C   UNL     1       8.478  25.288  57.598  1.00  0.00     0.034 A 
ENDROOT
BRANCH   3  14
HETATM   14  N   UNL     1       6.191  30.213  58.138  1.00  0.00    -0.176 NA
HETATM   15  C   UNL     1       7.230  30.850  58.565  1.00  0.00     0.153 C 
BRANCH  15  16
HETATM   16  C   UNL     1       7.216  31.445  59.923  1.00  0.00     0.017 A 
HETATM   17  C   UNL     1       8.107  31.022  60.922  1.00  0.00     0.077 A 
HETATM   18  C   UNL     1       8.130  31.654  62.162  1.00  0.00     0.039 A 
HETATM   19  C   UNL     1       7.263  32.718  62.412  1.00  0.00     0.022 A 
HETATM   20  C   UNL     1       6.376  33.137  61.420  1.00  0.00     0.012 A 
HETATM   21 BR   UNL     1       5.213  34.588  61.761  1.00  0.00    -0.051 Br
HETATM   22  C   UNL     1       6.346  32.509  60.173  1.00  0.00     0.034 A 
BRANCH  17  23
HETATM   23  O   UNL     1       9.009  30.010  60.738  1.00  0.00    -0.360 OA
HETATM   24  H   UNL     1       9.672  30.331  60.087  1.00  0.00     0.217 HD
ENDBRANCH  17  23
ENDBRANCH  15  16
ENDBRANCH   3  14
BRANCH   2  25
HETATM   25  N   UNL     1       5.354  31.345  55.730  1.00  0.00    -0.383 N 
HETATM   26  H   UNL     1       5.948  32.013  55.230  1.00  0.00     0.157 HD
HETATM   27  H   UNL     1       4.895  31.761  56.541  1.00  0.00     0.157 HD
ENDBRANCH   2  25
BRANCH   1  28
HETATM   28  C   UNL     1       4.913  29.188  53.603  1.00  0.00     0.258 C 
HETATM   29  N   UNL     1       5.678  28.895  52.492  1.00  0.00    -0.352 N 
HETATM   30  H   UNL     1       6.639  28.626  52.657  1.00  0.00     0.163 HD
HETATM   31  O   UNL     1       3.703  29.397  53.558  1.00  0.00    -0.267 OA
BRANCH  29  32
HETATM   32  C   UNL     1       5.047  28.452  51.256  1.00  0.00     0.080 C 
HETATM   33  C   UNL     1       5.422  26.993  50.968  1.00  0.00     0.032 C 
BRANCH  32  34
HETATM   34  C   UNL     1       5.472  29.334  50.073  1.00  0.00     0.020 C 
HETATM   35  C   UNL     1       5.495  28.581  48.752  1.00  0.00     0.007 C 
ENDBRANCH  32  34
ENDBRANCH  29  32
ENDBRANCH   1  28
TORSDOF 7
ENDMDL
MODEL 10
REMARK VINA RESULT:      -8.8      4.052      8.201
REMARK  7 active torsions:
REMARK  status: ('A' for Active; 'I' for Inactive)
REMARK    1  A    between atoms: C_2  and  C_3 
REMARK    2  A    between atoms: C_3  and  N_4 
REMARK       I    between atoms: N_4  and  C_5 
REMARK    3  A    between atoms: C_5  and  C_6 
REMARK    4  A    between atoms: C_7  and  N_8 
REMARK    5  A    between atoms: N_9  and  N_10 
REMARK    6  A    between atoms: C_11  and  C_12 
REMARK    7  A    between atoms: C_13  and  O_14 
ROOT
HETATM    1  C   UNL     1       5.223  31.307  56.997  1.00  0.00     0.110 C 
HETATM    2  C   UNL     1       5.270  30.044  56.434  1.00  0.00     0.143 C 
HETATM    3  N   UNL     1       6.391  29.378  56.920  1.00  0.00    -0.197 N 
HETATM    4  C   UNL     1       6.896  30.116  57.982  1.00  0.00     0.183 A 
HETATM    5  C   UNL     1       6.221  31.335  57.998  1.00  0.00     0.125 A 
HETATM    6  N   UNL     1       6.547  32.317  58.878  1.00  0.00    -0.242 NA
HETATM    7  C   UNL     1       7.500  31.984  59.765  1.00  0.00     0.086 A 
HETATM    8  C   UNL     1       8.157  30.726  59.750  1.00  0.00     0.088 A 
HETATM    9  N   UNL     1       7.886  29.774  58.841  1.00  0.00    -0.225 NA
HETATM   10  C   UNL     1       7.849  32.911  60.740  1.00  0.00     0.034 A 
HETATM   11  C   UNL     1       8.818  32.628  61.705  1.00  0.00     0.002 A 
HETATM   12  C   UNL     1       9.456  31.396  61.692  1.00  0.00     0.002 A 
HETATM   13  C   UNL     1       9.120  30.459  60.714  1.00  0.00     0.034 A 
ENDROOT
BRANCH   3  14
HETATM   14  N   UNL     1       6.851  28.257  56.267  1.00  0.00    -0.176 NA
HETATM   15  C   UNL     1       6.787  27.118  56.871  1.00  0.00     0.153 C 
BRANCH  15  16
HETATM   16  C   UNL     1       7.457  25.936  56.276  1.00  0.00     0.017 A 
HETATM   17  C   UNL     1       8.130  24.994  57.070  1.00  0.00     0.077 A 
HETATM   18  C   UNL     1       8.679  23.850  56.497  1.00  0.00     0.039 A 
HETATM   19  C   UNL     1       8.555  23.637  55.124  1.00  0.00     0.022 A 
HETATM   20  C   UNL     1       7.888  24.575  54.334  1.00  0.00     0.012 A 
HETATM   21 BR   UNL     1       7.713  24.274  52.476  1.00  0.00    -0.051 Br
HETATM   22  C   UNL     1       7.335  25.725  54.901  1.00  0.00     0.034 A 
BRANCH  17  23
HETATM   23  O   UNL     1       8.261  25.117  58.426  1.00  0.00    -0.360 OA
HETATM   24  H   UNL     1       8.644  26.006  58.598  1.00  0.00     0.217 HD
ENDBRANCH  17  23
ENDBRANCH  15  16
ENDBRANCH   3  14
BRANCH   2  25
HETATM   25  N   UNL     1       4.482  29.495  55.471  1.00  0.00    -0.383 N 
HETATM   26  H   UNL     1       4.913  28.848  54.804  1.00  0.00     0.157 HD
HETATM   27  H   UNL     1       3.749  30.063  55.046  1.00  0.00     0.157 HD
ENDBRANCH   2  25
BRANCH   1  28
HETATM   28  C   UNL     1       4.323  32.353  56.557  1.00  0.00     0.258 C 
HETATM   29  N   UNL     1       4.858  33.621  56.666  1.00  0.00    -0.352 N 
HETATM   30  H   UNL     1       5.794  33.691  57.045  1.00  0.00     0.163 HD
HETATM   31  O   UNL     1       3.258  32.111  55.995  1.00  0.00    -0.267 OA
BRANCH  29  32
HETATM   32  C   UNL     1       4.385  34.699  55.808  1.00  0.00     0.080 C 
HETATM   33  C   UNL     1       5.515  35.168  54.883  1.00  0.00     0.032 C 
BRANCH  32  34
HETATM   34  C   UNL     1       3.878  35.885  56.642  1.00  0.00     0.020 C 
HETATM   35  C   UNL     1       4.178  35.736  58.125  1.00  0.00     0.007 C 
ENDBRANCH  32  34
ENDBRANCH  29  32
ENDBRANCH   1  28
TORSDOF 7
ENDMDL
