MODEL 1
REMARK VINA RESULT:      -9.9      0.000      0.000
REMARK  10 active torsions:
REMARK  status: ('A' for Active; 'I' for Inactive)
REMARK       I    between atoms: C_2  and  N_3 
REMARK    1  A    between atoms: N_3  and  C_4 
REMARK    2  A    between atoms: C_6  and  O_7 
REMARK    3  A    between atoms: O_7  and  C_8 
REMARK    4  A    between atoms: C_8  and  C_9 
REMARK    5  A    between atoms: C_9  and  C_10 
REMARK    6  A    between atoms: C_10  and  C_11 
REMARK    7  A    between atoms: C_11  and  N_12 
REMARK       I    between atoms: N_12  and  C_13 
REMARK    8  A    between atoms: C_13  and  C_14 
REMARK    9  A    between atoms: C_18  and  C_19 
REMARK   10  A    between atoms: C_21  and  O_22 
ROOT
HETATM    1  N   UNL     1       9.321  30.100  58.254  1.00  0.00    -0.345 N 
HETATM    2  C   UNL     1       9.590  31.275  58.909  1.00  0.00     0.270 C 
HETATM    3  O   UNL     1      10.292  32.155  58.421  1.00  0.00    -0.266 OA
HETATM    4  H   UNL     1       8.763  29.386  58.697  1.00  0.00     0.163 HD
ENDROOT
BRANCH   1   5
HETATM    5  C   UNL     1       9.869  29.835  56.951  1.00  0.00     0.217 C 
BRANCH   5   6
HETATM    6  C   UNL     1       8.834  29.276  56.082  1.00  0.00    -0.085 C 
BRANCH   6   7
HETATM    7  C   UNL     1       7.911  28.769  55.313  1.00  0.00    -0.078 C 
BRANCH   7   8
HETATM    8  C   UNL     1       6.833  28.178  54.417  1.00  0.00     0.269 C 
BRANCH   8   9
HETATM    9  O   UNL     1       6.390  26.935  54.955  1.00  0.00    -0.339 OA
BRANCH   9  10
HETATM   10  C   UNL     1       6.867  25.809  54.333  1.00  0.00     0.072 A 
HETATM   11  C   UNL     1       6.939  24.529  54.896  1.00  0.00     0.066 A 
HETATM   12  C   UNL     1       7.438  23.449  54.160  1.00  0.00     0.037 A 
HETATM   13  C   UNL     1       7.873  23.666  52.847  1.00  0.00     0.029 A 
HETATM   14  C   UNL     1       7.808  24.940  52.280  1.00  0.00     0.005 A 
HETATM   15  C   UNL     1       7.305  26.006  53.023  1.00  0.00     0.037 A 
BRANCH  12  16
HETATM   16  N   UNL     1       7.530  22.131  54.661  1.00  0.00    -0.327 N 
HETATM   17  C   UNL     1       8.655  21.490  55.147  1.00  0.00     0.218 C 
HETATM   18  C   UNL     1       8.368  20.080  55.604  1.00  0.00     0.117 C 
HETATM   19  O   UNL     1       9.795  21.940  55.204  1.00  0.00    -0.274 OA
HETATM   20  H   UNL     1       6.668  21.600  54.660  1.00  0.00     0.169 HD
ENDBRANCH  12  16
ENDBRANCH   9  10
ENDBRANCH   8   9
ENDBRANCH   7   8
ENDBRANCH   6   7
ENDBRANCH   5   6
ENDBRANCH   1   5
BRANCH   2  21
HETATM   21  C   UNL     1       9.001  31.400  60.213  1.00  0.00     0.120 A 
HETATM   22  N   UNL     1       9.112  30.410  61.147  1.00  0.00    -0.272 N 
HETATM   23  H   UNL     1       9.601  29.526  61.038  1.00  0.00     0.189 HD
HETATM   24  N   UNL     1       8.483  30.666  62.303  1.00  0.00    -0.174 NA
HETATM   25  C   UNL     1       7.961  31.892  62.139  1.00  0.00     0.089 A 
HETATM   26  C   UNL     1       8.263  32.386  60.837  1.00  0.00     0.071 A 
BRANCH  25  27
HETATM   27  C   UNL     1       7.188  32.550  63.197  1.00  0.00    -0.003 A 
HETATM   28  C   UNL     1       5.785  32.601  63.121  1.00  0.00     0.050 A 
HETATM   29  C   UNL     1       5.037  33.239  64.113  1.00  0.00     0.069 A 
HETATM   30  C   UNL     1       5.694  33.824  65.195  1.00  0.00     0.037 A 
HETATM   31  C   UNL     1       7.084  33.776  65.291  1.00  0.00     0.004 A 
HETATM   32  C   UNL     1       7.829  33.143  64.294  1.00  0.00     0.014 A 
BRANCH  29  33
HETATM   33  O   UNL     1       3.674  33.359  64.141  1.00  0.00    -0.356 OA
HETATM   34  C   UNL     1       3.121  34.516  63.524  1.00  0.00     0.210 C 
ENDBRANCH  29  33
ENDBRANCH  25  27
ENDBRANCH   2  21
TORSDOF 10
ENDMDL
MODEL 2
REMARK VINA RESULT:      -9.1      2.184      3.074
REMARK  10 active torsions:
REMARK  status: ('A' for Active; 'I' for Inactive)
REMARK       I    between atoms: C_2  and  N_3 
REMARK    1  A    between atoms: N_3  and  C_4 
REMARK    2  A    between atoms: C_6  and  O_7 
REMARK    3  A    between atoms: O_7  and  C_8 
REMARK    4  A    between atoms: C_8  and  C_9 
REMARK    5  A    between atoms: C_9  and  C_10 
REMARK    6  A    between atoms: C_10  and  C_11 
REMARK    7  A    between atoms: C_11  and  N_12 
REMARK       I    between atoms: N_12  and  C_13 
REMARK    8  A    between atoms: C_13  and  C_14 
REMARK    9  A    between atoms: C_18  and  C_19 
REMARK   10  A    between atoms: C_21  and  O_22 
ROOT
HETATM    1  N   UNL     1       7.741  30.870  60.427  1.00  0.00    -0.345 N 
HETATM    2  C   UNL     1       8.139  31.199  61.697  1.00  0.00     0.270 C 
HETATM    3  O   UNL     1       9.290  31.042  62.090  1.00  0.00    -0.266 OA
HETATM    4  H   UNL     1       6.780  30.986  60.147  1.00  0.00     0.163 HD
ENDROOT
BRANCH   1   5
HETATM    5  C   UNL     1       8.668  30.303  59.485  1.00  0.00     0.217 C 
BRANCH   5   6
HETATM    6  C   UNL     1       7.961  29.402  58.574  1.00  0.00    -0.085 C 
BRANCH   6   7
HETATM    7  C   UNL     1       7.338  28.594  57.763  1.00  0.00    -0.078 C 
BRANCH   7   8
HETATM    8  C   UNL     1       6.613  27.651  56.815  1.00  0.00     0.269 C 
BRANCH   8   9
HETATM    9  O   UNL     1       7.557  26.998  55.970  1.00  0.00    -0.339 OA
BRANCH   9  10
HETATM   10  C   UNL     1       7.035  26.116  55.058  1.00  0.00     0.072 A 
HETATM   11  C   UNL     1       7.652  24.944  54.605  1.00  0.00     0.066 A 
HETATM   12  C   UNL     1       7.018  24.113  53.675  1.00  0.00     0.037 A 
HETATM   13  C   UNL     1       5.753  24.474  53.194  1.00  0.00     0.029 A 
HETATM   14  C   UNL     1       5.133  25.643  53.638  1.00  0.00     0.005 A 
HETATM   15  C   UNL     1       5.775  26.460  54.568  1.00  0.00     0.037 A 
BRANCH  12  16
HETATM   16  N   UNL     1       7.577  22.912  53.183  1.00  0.00    -0.327 N 
HETATM   17  C   UNL     1       7.792  21.736  53.879  1.00  0.00     0.218 C 
HETATM   18  C   UNL     1       8.404  20.657  53.019  1.00  0.00     0.117 C 
HETATM   19  O   UNL     1       7.562  21.528  55.066  1.00  0.00    -0.274 OA
HETATM   20  H   UNL     1       7.851  22.922  52.209  1.00  0.00     0.169 HD
ENDBRANCH  12  16
ENDBRANCH   9  10
ENDBRANCH   8   9
ENDBRANCH   7   8
ENDBRANCH   6   7
ENDBRANCH   5   6
ENDBRANCH   1   5
BRANCH   2  21
HETATM   21  C   UNL     1       7.108  31.733  62.544  1.00  0.00     0.120 A 
HETATM   22  N   UNL     1       5.895  31.117  62.670  1.00  0.00    -0.272 N 
HETATM   23  H   UNL     1       5.601  30.258  62.215  1.00  0.00     0.189 HD
HETATM   24  N   UNL     1       5.032  31.756  63.474  1.00  0.00    -0.174 NA
HETATM   25  C   UNL     1       5.714  32.821  63.925  1.00  0.00     0.089 A 
HETATM   26  C   UNL     1       7.021  32.843  63.361  1.00  0.00     0.071 A 
BRANCH  25  27
HETATM   27  C   UNL     1       5.114  33.785  64.852  1.00  0.00    -0.003 A 
HETATM   28  C   UNL     1       5.701  34.017  66.109  1.00  0.00     0.050 A 
HETATM   29  C   UNL     1       5.132  34.919  67.009  1.00  0.00     0.069 A 
HETATM   30  C   UNL     1       3.970  35.604  66.650  1.00  0.00     0.037 A 
HETATM   31  C   UNL     1       3.379  35.392  65.405  1.00  0.00     0.004 A 
HETATM   32  C   UNL     1       3.948  34.484  64.510  1.00  0.00     0.014 A 
BRANCH  29  33
HETATM   33  O   UNL     1       5.606  35.218  68.258  1.00  0.00    -0.356 OA
HETATM   34  C   UNL     1       6.703  34.443  68.728  1.00  0.00     0.210 C 
ENDBRANCH  29  33
ENDBRANCH  25  27
ENDBRANCH   2  21
TORSDOF 10
ENDMDL
MODEL 3
REMARK VINA RESULT:      -9.0      1.843      2.479
REMARK  10 active torsions:
REMARK  status: ('A' for Active; 'I' for Inactive)
REMARK       I    between atoms: C_2  and  N_3 
REMARK    1  A    between atoms: N_3  and  C_4 
REMARK    2  A    between atoms: C_6  and  O_7 
REMARK    3  A    between atoms: O_7  and  C_8 
REMARK    4  A    between atoms: C_8  and  C_9 
REMARK    5  A    between atoms: C_9  and  C_10 
REMARK    6  A    between atoms: C_10  and  C_11 
REMARK    7  A    between atoms: C_11  and  N_12 
REMARK       I    between atoms: N_12  and  C_13 
REMARK    8  A    between atoms: C_13  and  C_14 
REMARK    9  A    between atoms: C_18  and  C_19 
REMARK   10  A    between atoms: C_21  and  O_22 
ROOT
HETATM    1  N   UNL     1       8.361  30.984  59.523  1.00  0.00    -0.345 N 
HETATM    2  C   UNL     1       8.557  30.803  60.868  1.00  0.00     0.270 C 
HETATM    3  O   UNL     1       9.448  30.087  61.314  1.00  0.00    -0.266 OA
HETATM    4  H   UNL     1       7.601  31.558  59.191  1.00  0.00     0.163 HD
ENDROOT
BRANCH   1   5
HETATM    5  C   UNL     1       9.195  30.321  58.557  1.00  0.00     0.217 C 
BRANCH   5   6
HETATM    6  C   UNL     1       8.408  29.331  57.820  1.00  0.00    -0.085 C 
BRANCH   6   7
HETATM    7  C   UNL     1       7.701  28.450  57.170  1.00  0.00    -0.078 C 
BRANCH   7   8
HETATM    8  C   UNL     1       6.874  27.422  56.412  1.00  0.00     0.269 C 
BRANCH   8   9
HETATM    9  O   UNL     1       7.272  27.399  55.044  1.00  0.00    -0.339 OA
BRANCH   9  10
HETATM   10  C   UNL     1       7.411  26.155  54.482  1.00  0.00     0.072 A 
HETATM   11  C   UNL     1       7.332  24.934  55.163  1.00  0.00     0.066 A 
HETATM   12  C   UNL     1       7.482  23.722  54.481  1.00  0.00     0.037 A 
HETATM   13  C   UNL     1       7.720  23.744  53.101  1.00  0.00     0.029 A 
HETATM   14  C   UNL     1       7.804  24.958  52.416  1.00  0.00     0.005 A 
HETATM   15  C   UNL     1       7.649  26.158  53.107  1.00  0.00     0.037 A 
BRANCH  12  16
HETATM   16  N   UNL     1       7.404  22.455  55.102  1.00  0.00    -0.327 N 
HETATM   17  C   UNL     1       8.446  21.594  55.396  1.00  0.00     0.218 C 
HETATM   18  C   UNL     1       7.979  20.327  56.071  1.00  0.00     0.117 C 
HETATM   19  O   UNL     1       9.634  21.760  55.143  1.00  0.00    -0.274 OA
HETATM   20  H   UNL     1       6.474  22.148  55.357  1.00  0.00     0.169 HD
ENDBRANCH  12  16
ENDBRANCH   9  10
ENDBRANCH   8   9
ENDBRANCH   7   8
ENDBRANCH   6   7
ENDBRANCH   5   6
ENDBRANCH   1   5
BRANCH   2  21
HETATM   21  C   UNL     1       7.639  31.504  61.723  1.00  0.00     0.120 A 
HETATM   22  N   UNL     1       6.391  31.858  61.294  1.00  0.00    -0.272 N 
HETATM   23  H   UNL     1       5.988  31.672  60.380  1.00  0.00     0.189 HD
HETATM   24  N   UNL     1       5.667  32.532  62.199  1.00  0.00    -0.174 NA
HETATM   25  C   UNL     1       6.456  32.597  63.284  1.00  0.00     0.089 A 
HETATM   26  C   UNL     1       7.705  31.965  63.022  1.00  0.00     0.071 A 
BRANCH  25  27
HETATM   27  C   UNL     1       6.020  33.260  64.517  1.00  0.00    -0.003 A 
HETATM   28  C   UNL     1       6.953  33.560  65.526  1.00  0.00     0.050 A 
HETATM   29  C   UNL     1       6.549  34.176  66.712  1.00  0.00     0.069 A 
HETATM   30  C   UNL     1       5.204  34.503  66.891  1.00  0.00     0.037 A 
HETATM   31  C   UNL     1       4.268  34.220  65.897  1.00  0.00     0.004 A 
HETATM   32  C   UNL     1       4.674  33.599  64.715  1.00  0.00     0.014 A 
BRANCH  29  33
HETATM   33  O   UNL     1       7.360  34.506  67.764  1.00  0.00    -0.356 OA
HETATM   34  C   UNL     1       6.815  34.343  69.068  1.00  0.00     0.210 C 
ENDBRANCH  29  33
ENDBRANCH  25  27
ENDBRANCH   2  21
TORSDOF 10
ENDMDL
MODEL 4
REMARK VINA RESULT:      -9.0      2.939     12.742
REMARK  10 active torsions:
REMARK  status: ('A' for Active; 'I' for Inactive)
REMARK       I    between atoms: C_2  and  N_3 
REMARK    1  A    between atoms: N_3  and  C_4 
REMARK    2  A    between atoms: C_6  and  O_7 
REMARK    3  A    between atoms: O_7  and  C_8 
REMARK    4  A    between atoms: C_8  and  C_9 
REMARK    5  A    between atoms: C_9  and  C_10 
REMARK    6  A    between atoms: C_10  and  C_11 
REMARK    7  A    between atoms: C_11  and  N_12 
REMARK       I    between atoms: N_12  and  C_13 
REMARK    8  A    between atoms: C_13  and  C_14 
REMARK    9  A    between atoms: C_18  and  C_19 
REMARK   10  A    between atoms: C_21  and  O_22 
ROOT
HETATM    1  N   UNL     1       8.020  30.321  60.384  1.00  0.00    -0.345 N 
HETATM    2  C   UNL     1       7.947  30.535  59.031  1.00  0.00     0.270 C 
HETATM    3  O   UNL     1       8.199  31.621  58.521  1.00  0.00    -0.266 OA
HETATM    4  H   UNL     1       7.777  29.423  60.773  1.00  0.00     0.163 HD
ENDROOT
BRANCH   1   5
HETATM    5  C   UNL     1       8.389  31.382  61.282  1.00  0.00     0.217 C 
BRANCH   5   6
HETATM    6  C   UNL     1       7.189  31.954  61.893  1.00  0.00    -0.085 C 
BRANCH   6   7
HETATM    7  C   UNL     1       6.114  32.462  62.429  1.00  0.00    -0.078 C 
BRANCH   7   8
HETATM    8  C   UNL     1       4.861  33.055  63.055  1.00  0.00     0.269 C 
BRANCH   8   9
HETATM    9  O   UNL     1       4.775  32.664  64.423  1.00  0.00    -0.339 OA
BRANCH   9  10
HETATM   10  C   UNL     1       4.736  33.686  65.337  1.00  0.00     0.072 A 
HETATM   11  C   UNL     1       5.700  33.947  66.318  1.00  0.00     0.066 A 
HETATM   12  C   UNL     1       5.559  35.027  67.194  1.00  0.00     0.037 A 
HETATM   13  C   UNL     1       4.429  35.847  67.082  1.00  0.00     0.029 A 
HETATM   14  C   UNL     1       3.461  35.592  66.110  1.00  0.00     0.005 A 
HETATM   15  C   UNL     1       3.617  34.514  65.241  1.00  0.00     0.037 A 
BRANCH  12  16
HETATM   16  N   UNL     1       6.497  35.354  68.198  1.00  0.00    -0.327 N 
HETATM   17  C   UNL     1       6.432  35.046  69.545  1.00  0.00     0.218 C 
HETATM   18  C   UNL     1       7.627  35.556  70.315  1.00  0.00     0.117 C 
HETATM   19  O   UNL     1       5.528  34.454  70.125  1.00  0.00    -0.274 OA
HETATM   20  H   UNL     1       7.307  35.876  67.889  1.00  0.00     0.169 HD
ENDBRANCH  12  16
ENDBRANCH   9  10
ENDBRANCH   8   9
ENDBRANCH   7   8
ENDBRANCH   6   7
ENDBRANCH   5   6
ENDBRANCH   1   5
BRANCH   2  21
HETATM   21  C   UNL     1       7.541  29.398  58.251  1.00  0.00     0.120 A 
HETATM   22  N   UNL     1       6.258  29.257  57.804  1.00  0.00    -0.272 N 
HETATM   23  H   UNL     1       5.489  29.904  57.955  1.00  0.00     0.189 HD
HETATM   24  N   UNL     1       6.033  28.128  57.116  1.00  0.00    -0.174 NA
HETATM   25  C   UNL     1       7.226  27.512  57.078  1.00  0.00     0.089 A 
HETATM   26  C   UNL     1       8.198  28.278  57.783  1.00  0.00     0.071 A 
BRANCH  25  27
HETATM   27  C   UNL     1       7.408  26.226  56.398  1.00  0.00    -0.003 A 
HETATM   28  C   UNL     1       6.702  25.946  55.214  1.00  0.00     0.050 A 
HETATM   29  C   UNL     1       6.853  24.719  54.565  1.00  0.00     0.069 A 
HETATM   30  C   UNL     1       7.722  23.766  55.097  1.00  0.00     0.037 A 
HETATM   31  C   UNL     1       8.436  24.030  56.265  1.00  0.00     0.004 A 
HETATM   32  C   UNL     1       8.278  25.255  56.915  1.00  0.00     0.014 A 
BRANCH  29  33
HETATM   33  O   UNL     1       6.215  24.331  53.418  1.00  0.00    -0.356 OA
HETATM   34  C   UNL     1       4.942  24.916  53.166  1.00  0.00     0.210 C 
ENDBRANCH  29  33
ENDBRANCH  25  27
ENDBRANCH   2  21
TORSDOF 10
ENDMDL
MODEL 5
REMARK VINA RESULT:      -9.0      1.885      3.001
REMARK  10 active torsions:
REMARK  status: ('A' for Active; 'I' for Inactive)
REMARK       I    between atoms: C_2  and  N_3 
REMARK    1  A    between atoms: N_3  and  C_4 
REMARK    2  A    between atoms: C_6  and  O_7 
REMARK    3  A    between atoms: O_7  and  C_8 
REMARK    4  A    between atoms: C_8  and  C_9 
REMARK    5  A    between atoms: C_9  and  C_10 
REMARK    6  A    between atoms: C_10  and  C_11 
REMARK    7  A    between atoms: C_11  and  N_12 
REMARK       I    between atoms: N_12  and  C_13 
REMARK    8  A    between atoms: C_13  and  C_14 
REMARK    9  A    between atoms: C_18  and  C_19 
REMARK   10  A    between atoms: C_21  and  O_22 
ROOT
HETATM    1  N   UNL     1       8.768  29.694  58.495  1.00  0.00    -0.345 N 
HETATM    2  C   UNL     1       7.757  30.578  58.772  1.00  0.00     0.270 C 
HETATM    3  O   UNL     1       6.942  30.935  57.927  1.00  0.00    -0.266 OA
HETATM    4  H   UNL     1       9.437  29.445  59.207  1.00  0.00     0.163 HD
ENDROOT
BRANCH   1   5
HETATM    5  C   UNL     1       8.930  29.146  57.176  1.00  0.00     0.217 C 
BRANCH   5   6
HETATM    6  C   UNL     1       8.539  27.736  57.173  1.00  0.00    -0.085 C 
BRANCH   6   7
HETATM    7  C   UNL     1       8.199  26.477  57.172  1.00  0.00    -0.078 C 
BRANCH   7   8
HETATM    8  C   UNL     1       7.802  25.009  57.171  1.00  0.00     0.269 C 
BRANCH   8   9
HETATM    9  O   UNL     1       8.778  24.248  56.465  1.00  0.00    -0.339 OA
BRANCH   9  10
HETATM   10  C   UNL     1       8.439  23.875  55.189  1.00  0.00     0.072 A 
HETATM   11  C   UNL     1       7.766  24.670  54.254  1.00  0.00     0.066 A 
HETATM   12  C   UNL     1       7.480  24.186  52.974  1.00  0.00     0.037 A 
HETATM   13  C   UNL     1       7.871  22.883  52.638  1.00  0.00     0.029 A 
HETATM   14  C   UNL     1       8.539  22.083  53.566  1.00  0.00     0.005 A 
HETATM   15  C   UNL     1       8.821  22.580  54.837  1.00  0.00     0.037 A 
BRANCH  12  16
HETATM   16  N   UNL     1       6.814  24.937  51.978  1.00  0.00    -0.327 N 
HETATM   17  C   UNL     1       5.467  25.244  51.914  1.00  0.00     0.218 C 
HETATM   18  C   UNL     1       5.120  26.075  50.702  1.00  0.00     0.117 C 
HETATM   19  O   UNL     1       4.592  24.894  52.698  1.00  0.00    -0.274 OA
HETATM   20  H   UNL     1       7.398  25.285  51.228  1.00  0.00     0.169 HD
ENDBRANCH  12  16
ENDBRANCH   9  10
ENDBRANCH   8   9
ENDBRANCH   7   8
ENDBRANCH   6   7
ENDBRANCH   5   6
ENDBRANCH   1   5
BRANCH   2  21
HETATM   21  C   UNL     1       7.723  31.070  60.122  1.00  0.00     0.120 A 
HETATM   22  N   UNL     1       8.576  30.595  61.078  1.00  0.00    -0.272 N 
HETATM   23  H   UNL     1       9.295  29.889  60.952  1.00  0.00     0.189 HD
HETATM   24  N   UNL     1       8.398  31.132  62.294  1.00  0.00    -0.174 NA
HETATM   25  C   UNL     1       7.408  32.024  62.128  1.00  0.00     0.089 A 
HETATM   26  C   UNL     1       6.955  32.012  60.777  1.00  0.00     0.071 A 
BRANCH  25  27
HETATM   27  C   UNL     1       6.912  32.843  63.239  1.00  0.00    -0.003 A 
HETATM   28  C   UNL     1       5.604  33.359  63.208  1.00  0.00     0.050 A 
HETATM   29  C   UNL     1       5.124  34.154  64.251  1.00  0.00     0.069 A 
HETATM   30  C   UNL     1       5.954  34.429  65.339  1.00  0.00     0.037 A 
HETATM   31  C   UNL     1       7.250  33.919  65.389  1.00  0.00     0.004 A 
HETATM   32  C   UNL     1       7.729  33.129  64.342  1.00  0.00     0.014 A 
BRANCH  29  33
HETATM   33  O   UNL     1       3.880  34.717  64.326  1.00  0.00    -0.356 OA
HETATM   34  C   UNL     1       3.268  34.748  65.610  1.00  0.00     0.210 C 
ENDBRANCH  29  33
ENDBRANCH  25  27
ENDBRANCH   2  21
TORSDOF 10
ENDMDL
MODEL 6
REMARK VINA RESULT:      -8.8      2.768     12.804
REMARK  10 active torsions:
REMARK  status: ('A' for Active; 'I' for Inactive)
REMARK       I    between atoms: C_2  and  N_3 
REMARK    1  A    between atoms: N_3  and  C_4 
REMARK    2  A    between atoms: C_6  and  O_7 
REMARK    3  A    between atoms: O_7  and  C_8 
REMARK    4  A    between atoms: C_8  and  C_9 
REMARK    5  A    between atoms: C_9  and  C_10 
REMARK    6  A    between atoms: C_10  and  C_11 
REMARK    7  A    between atoms: C_11  and  N_12 
REMARK       I    between atoms: N_12  and  C_13 
REMARK    8  A    between atoms: C_13  and  C_14 
REMARK    9  A    between atoms: C_18  and  C_19 
REMARK   10  A    between atoms: C_21  and  O_22 
ROOT
HETATM    1  N   UNL     1       7.536  30.533  59.908  1.00  0.00    -0.345 N 
HETATM    2  C   UNL     1       8.330  30.033  58.908  1.00  0.00     0.270 C 
HETATM    3  O   UNL     1       9.467  30.444  58.701  1.00  0.00    -0.266 OA
HETATM    4  H   UNL     1       6.596  30.192  60.031  1.00  0.00     0.163 HD
ENDROOT
BRANCH   1   5
HETATM    5  C   UNL     1       8.003  31.590  60.765  1.00  0.00     0.217 C 
BRANCH   5   6
HETATM    6  C   UNL     1       6.869  32.205  61.455  1.00  0.00    -0.085 C 
BRANCH   6   7
HETATM    7  C   UNL     1       5.852  32.748  62.065  1.00  0.00    -0.078 C 
BRANCH   7   8
HETATM    8  C   UNL     1       4.667  33.383  62.776  1.00  0.00     0.269 C 
BRANCH   8   9
HETATM    9  O   UNL     1       4.553  32.848  64.092  1.00  0.00    -0.339 OA
BRANCH   9  10
HETATM   10  C   UNL     1       4.599  33.760  65.115  1.00  0.00     0.072 A 
HETATM   11  C   UNL     1       5.630  33.888  66.054  1.00  0.00     0.066 A 
HETATM   12  C   UNL     1       5.574  34.865  67.053  1.00  0.00     0.037 A 
HETATM   13  C   UNL     1       4.463  35.717  67.107  1.00  0.00     0.029 A 
HETATM   14  C   UNL     1       3.430  35.593  66.177  1.00  0.00     0.005 A 
HETATM   15  C   UNL     1       3.500  34.617  65.185  1.00  0.00     0.037 A 
BRANCH  12  16
HETATM   16  N   UNL     1       6.582  35.057  68.024  1.00  0.00    -0.327 N 
HETATM   17  C   UNL     1       6.542  34.704  69.361  1.00  0.00     0.218 C 
HETATM   18  C   UNL     1       7.813  35.061  70.093  1.00  0.00     0.117 C 
HETATM   19  O   UNL     1       5.606  34.185  69.960  1.00  0.00    -0.274 OA
HETATM   20  H   UNL     1       7.427  35.505  67.697  1.00  0.00     0.169 HD
ENDBRANCH  12  16
ENDBRANCH   9  10
ENDBRANCH   8   9
ENDBRANCH   7   8
ENDBRANCH   6   7
ENDBRANCH   5   6
ENDBRANCH   1   5
BRANCH   2  21
HETATM   21  C   UNL     1       7.733  28.998  58.109  1.00  0.00     0.120 A 
HETATM   22  N   UNL     1       6.399  29.000  57.818  1.00  0.00    -0.272 N 
HETATM   23  H   UNL     1       5.716  29.694  58.106  1.00  0.00     0.189 HD
HETATM   24  N   UNL     1       5.992  27.951  57.088  1.00  0.00    -0.174 NA
HETATM   25  C   UNL     1       7.110  27.243  56.859  1.00  0.00     0.089 A 
HETATM   26  C   UNL     1       8.224  27.868  57.487  1.00  0.00     0.071 A 
BRANCH  25  27
HETATM   27  C   UNL     1       7.092  26.004  56.076  1.00  0.00    -0.003 A 
HETATM   28  C   UNL     1       8.045  24.999  56.320  1.00  0.00     0.050 A 
HETATM   29  C   UNL     1       8.051  23.821  55.571  1.00  0.00     0.069 A 
HETATM   30  C   UNL     1       7.091  23.639  54.574  1.00  0.00     0.037 A 
HETATM   31  C   UNL     1       6.134  24.621  54.324  1.00  0.00     0.004 A 
HETATM   32  C   UNL     1       6.135  25.801  55.071  1.00  0.00     0.014 A 
BRANCH  29  33
HETATM   33  O   UNL     1       8.931  22.782  55.711  1.00  0.00    -0.356 OA
HETATM   34  C   UNL     1       8.463  21.638  56.413  1.00  0.00     0.210 C 
ENDBRANCH  29  33
ENDBRANCH  25  27
ENDBRANCH   2  21
TORSDOF 10
ENDMDL
MODEL 7
REMARK VINA RESULT:      -8.7      2.815     12.250
REMARK  10 active torsions:
REMARK  status: ('A' for Active; 'I' for Inactive)
REMARK       I    between atoms: C_2  and  N_3 
REMARK    1  A    between atoms: N_3  and  C_4 
REMARK    2  A    between atoms: C_6  and  O_7 
REMARK    3  A    between atoms: O_7  and  C_8 
REMARK    4  A    between atoms: C_8  and  C_9 
REMARK    5  A    between atoms: C_9  and  C_10 
REMARK    6  A    between atoms: C_10  and  C_11 
REMARK    7  A    between atoms: C_11  and  N_12 
REMARK       I    between atoms: N_12  and  C_13 
REMARK    8  A    between atoms: C_13  and  C_14 
REMARK    9  A    between atoms: C_18  and  C_19 
REMARK   10  A    between atoms: C_21  and  O_22 
ROOT
HETATM    1  N   UNL     1       5.510  29.915  55.301  1.00  0.00    -0.345 N 
HETATM    2  C   UNL     1       4.634  28.864  55.401  1.00  0.00     0.270 C 
HETATM    3  O   UNL     1       3.530  28.974  55.926  1.00  0.00    -0.266 OA
HETATM    4  H   UNL     1       6.421  29.781  54.889  1.00  0.00     0.163 HD
ENDROOT
BRANCH   1   5
HETATM    5  C   UNL     1       5.176  31.211  55.827  1.00  0.00     0.217 C 
BRANCH   5   6
HETATM    6  C   UNL     1       5.769  31.375  57.155  1.00  0.00    -0.085 C 
BRANCH   6   7
HETATM    7  C   UNL     1       6.301  31.530  58.335  1.00  0.00    -0.078 C 
BRANCH   7   8
HETATM    8  C   UNL     1       6.920  31.712  59.712  1.00  0.00     0.269 C 
BRANCH   8   9
HETATM    9  O   UNL     1       5.955  32.265  60.604  1.00  0.00    -0.339 OA
BRANCH   9  10
HETATM   10  C   UNL     1       6.432  32.675  61.823  1.00  0.00     0.072 A 
HETATM   11  C   UNL     1       5.857  33.655  62.641  1.00  0.00     0.066 A 
HETATM   12  C   UNL     1       6.429  33.987  63.873  1.00  0.00     0.037 A 
HETATM   13  C   UNL     1       7.596  33.327  64.279  1.00  0.00     0.029 A 
HETATM   14  C   UNL     1       8.177  32.352  63.467  1.00  0.00     0.005 A 
HETATM   15  C   UNL     1       7.595  32.029  62.243  1.00  0.00     0.037 A 
BRANCH  12  16
HETATM   16  N   UNL     1       5.897  34.957  64.753  1.00  0.00    -0.327 N 
HETATM   17  C   UNL     1       4.795  34.830  65.579  1.00  0.00     0.218 C 
HETATM   18  C   UNL     1       4.528  36.078  66.385  1.00  0.00     0.117 C 
HETATM   19  O   UNL     1       4.055  33.857  65.680  1.00  0.00    -0.274 OA
HETATM   20  H   UNL     1       6.382  35.844  64.773  1.00  0.00     0.169 HD
ENDBRANCH  12  16
ENDBRANCH   9  10
ENDBRANCH   8   9
ENDBRANCH   7   8
ENDBRANCH   6   7
ENDBRANCH   5   6
ENDBRANCH   1   5
BRANCH   2  21
HETATM   21  C   UNL     1       5.102  27.619  54.858  1.00  0.00     0.120 A 
HETATM   22  N   UNL     1       4.449  26.995  53.834  1.00  0.00    -0.272 N 
HETATM   23  H   UNL     1       3.612  27.321  53.359  1.00  0.00     0.189 HD
HETATM   24  N   UNL     1       4.995  25.828  53.461  1.00  0.00    -0.174 NA
HETATM   25  C   UNL     1       6.073  25.691  54.249  1.00  0.00     0.089 A 
HETATM   26  C   UNL     1       6.173  26.795  55.143  1.00  0.00     0.071 A 
BRANCH  25  27
HETATM   27  C   UNL     1       6.960  24.528  54.149  1.00  0.00    -0.003 A 
HETATM   28  C   UNL     1       7.474  23.928  55.312  1.00  0.00     0.050 A 
HETATM   29  C   UNL     1       8.333  22.830  55.231  1.00  0.00     0.069 A 
HETATM   30  C   UNL     1       8.677  22.321  53.978  1.00  0.00     0.037 A 
HETATM   31  C   UNL     1       8.170  22.899  52.815  1.00  0.00     0.004 A 
HETATM   32  C   UNL     1       7.316  24.000  52.899  1.00  0.00     0.014 A 
BRANCH  29  33
HETATM   33  O   UNL     1       8.900  22.172  56.289  1.00  0.00    -0.356 OA
HETATM   34  C   UNL     1       8.263  20.973  56.712  1.00  0.00     0.210 C 
ENDBRANCH  29  33
ENDBRANCH  25  27
ENDBRANCH   2  21
TORSDOF 10
ENDMDL
MODEL 8
REMARK VINA RESULT:      -8.6      2.238      3.630
REMARK  10 active torsions:
REMARK  status: ('A' for Active; 'I' for Inactive)
REMARK       I    between atoms: C_2  and  N_3 
REMARK    1  A    between atoms: N_3  and  C_4 
REMARK    2  A    between atoms: C_6  and  O_7 
REMARK    3  A    between atoms: O_7  and  C_8 
REMARK    4  A    between atoms: C_8  and  C_9 
REMARK    5  A    between atoms: C_9  and  C_10 
REMARK    6  A    between atoms: C_10  and  C_11 
REMARK    7  A    between atoms: C_11  and  N_12 
REMARK       I    between atoms: N_12  and  C_13 
REMARK    8  A    between atoms: C_13  and  C_14 
REMARK    9  A    between atoms: C_18  and  C_19 
REMARK   10  A    between atoms: C_21  and  O_22 
ROOT
HETATM    1  N   UNL     1       8.087  29.643  56.884  1.00  0.00    -0.345 N 
HETATM    2  C   UNL     1       9.183  29.873  57.676  1.00  0.00     0.270 C 
HETATM    3  O   UNL     1      10.270  29.344  57.468  1.00  0.00    -0.266 OA
HETATM    4  H   UNL     1       7.201  30.073  57.102  1.00  0.00     0.163 HD
ENDROOT
BRANCH   1   5
HETATM    5  C   UNL     1       8.159  28.746  55.763  1.00  0.00     0.217 C 
BRANCH   5   6
HETATM    6  C   UNL     1       7.274  27.602  55.985  1.00  0.00    -0.085 C 
BRANCH   6   7
HETATM    7  C   UNL     1       6.489  26.579  56.176  1.00  0.00    -0.078 C 
BRANCH   7   8
HETATM    8  C   UNL     1       5.572  25.385  56.396  1.00  0.00     0.269 C 
BRANCH   8   9
HETATM    9  O   UNL     1       6.047  24.270  55.646  1.00  0.00    -0.339 OA
BRANCH   9  10
HETATM   10  C   UNL     1       6.314  24.509  54.322  1.00  0.00     0.072 A 
HETATM   11  C   UNL     1       5.433  25.086  53.398  1.00  0.00     0.066 A 
HETATM   12  C   UNL     1       5.818  25.290  52.070  1.00  0.00     0.037 A 
HETATM   13  C   UNL     1       7.103  24.901  51.669  1.00  0.00     0.029 A 
HETATM   14  C   UNL     1       7.985  24.322  52.582  1.00  0.00     0.005 A 
HETATM   15  C   UNL     1       7.589  24.128  53.904  1.00  0.00     0.037 A 
BRANCH  12  16
HETATM   16  N   UNL     1       4.986  25.876  51.090  1.00  0.00    -0.327 N 
HETATM   17  C   UNL     1       4.911  27.211  50.736  1.00  0.00     0.218 C 
HETATM   18  C   UNL     1       3.907  27.465  49.638  1.00  0.00     0.117 C 
HETATM   19  O   UNL     1       5.537  28.142  51.232  1.00  0.00    -0.274 OA
HETATM   20  H   UNL     1       4.375  25.239  50.595  1.00  0.00     0.169 HD
ENDBRANCH  12  16
ENDBRANCH   9  10
ENDBRANCH   8   9
ENDBRANCH   7   8
ENDBRANCH   6   7
ENDBRANCH   5   6
ENDBRANCH   1   5
BRANCH   2  21
HETATM   21  C   UNL     1       8.968  30.771  58.778  1.00  0.00     0.120 A 
HETATM   22  N   UNL     1       9.815  31.812  59.028  1.00  0.00    -0.272 N 
HETATM   23  H   UNL     1      10.641  32.065  58.493  1.00  0.00     0.189 HD
HETATM   24  N   UNL     1       9.494  32.539  60.109  1.00  0.00    -0.174 NA
HETATM   25  C   UNL     1       8.368  31.973  60.574  1.00  0.00     0.089 A 
HETATM   26  C   UNL     1       8.007  30.858  59.765  1.00  0.00     0.071 A 
BRANCH  25  27
HETATM   27  C   UNL     1       7.680  32.487  61.763  1.00  0.00    -0.003 A 
HETATM   28  C   UNL     1       6.409  33.077  61.644  1.00  0.00     0.050 A 
HETATM   29  C   UNL     1       5.750  33.586  62.765  1.00  0.00     0.069 A 
HETATM   30  C   UNL     1       6.361  33.498  64.017  1.00  0.00     0.037 A 
HETATM   31  C   UNL     1       7.617  32.910  64.153  1.00  0.00     0.004 A 
HETATM   32  C   UNL     1       8.276  32.407  63.029  1.00  0.00     0.014 A 
BRANCH  29  33
HETATM   33  O   UNL     1       4.521  34.188  62.771  1.00  0.00    -0.356 OA
HETATM   34  C   UNL     1       3.493  33.550  62.023  1.00  0.00     0.210 C 
ENDBRANCH  29  33
ENDBRANCH  25  27
ENDBRANCH   2  21
TORSDOF 10
ENDMDL
MODEL 9
REMARK VINA RESULT:      -8.4      2.609     10.524
REMARK  10 active torsions:
REMARK  status: ('A' for Active; 'I' for Inactive)
REMARK       I    between atoms: C_2  and  N_3 
REMARK    1  A    between atoms: N_3  and  C_4 
REMARK    2  A    between atoms: C_6  and  O_7 
REMARK    3  A    between atoms: O_7  and  C_8 
REMARK    4  A    between atoms: C_8  and  C_9 
REMARK    5  A    between atoms: C_9  and  C_10 
REMARK    6  A    between atoms: C_10  and  C_11 
REMARK    7  A    between atoms: C_11  and  N_12 
REMARK       I    between atoms: N_12  and  C_13 
REMARK    8  A    between atoms: C_13  and  C_14 
REMARK    9  A    between atoms: C_18  and  C_19 
REMARK   10  A    between atoms: C_21  and  O_22 
ROOT
HETATM    1  N   UNL     1       5.289  29.807  56.147  1.00  0.00    -0.345 N 
HETATM    2  C   UNL     1       4.583  28.899  55.400  1.00  0.00     0.270 C 
HETATM    3  O   UNL     1       3.581  29.207  54.762  1.00  0.00    -0.266 OA
HETATM    4  H   UNL     1       6.091  29.514  56.682  1.00  0.00     0.163 HD
ENDROOT
BRANCH   1   5
HETATM    5  C   UNL     1       4.874  31.182  56.228  1.00  0.00     0.217 C 
BRANCH   5   6
HETATM    6  C   UNL     1       4.818  31.601  57.629  1.00  0.00    -0.085 C 
BRANCH   6   7
HETATM    7  C   UNL     1       4.773  31.966  58.880  1.00  0.00    -0.078 C 
BRANCH   7   8
HETATM    8  C   UNL     1       4.721  32.391  60.339  1.00  0.00     0.269 C 
BRANCH   8   9
HETATM    9  O   UNL     1       5.927  33.064  60.687  1.00  0.00    -0.339 OA
BRANCH   9  10
HETATM   10  C   UNL     1       7.052  32.282  60.753  1.00  0.00     0.072 A 
HETATM   11  C   UNL     1       7.890  31.958  59.678  1.00  0.00     0.066 A 
HETATM   12  C   UNL     1       9.019  31.154  59.865  1.00  0.00     0.037 A 
HETATM   13  C   UNL     1       9.301  30.670  61.149  1.00  0.00     0.029 A 
HETATM   14  C   UNL     1       8.469  30.985  62.224  1.00  0.00     0.005 A 
HETATM   15  C   UNL     1       7.349  31.789  62.024  1.00  0.00     0.037 A 
BRANCH  12  16
HETATM   16  N   UNL     1       9.912  30.798  58.830  1.00  0.00    -0.327 N 
HETATM   17  C   UNL     1       9.728  29.837  57.852  1.00  0.00     0.218 C 
HETATM   18  C   UNL     1      10.901  29.739  56.907  1.00  0.00     0.117 C 
HETATM   19  O   UNL     1       8.763  29.092  57.722  1.00  0.00    -0.274 OA
HETATM   20  H   UNL     1      10.785  31.308  58.808  1.00  0.00     0.169 HD
ENDBRANCH  12  16
ENDBRANCH   9  10
ENDBRANCH   8   9
ENDBRANCH   7   8
ENDBRANCH   6   7
ENDBRANCH   5   6
ENDBRANCH   1   5
BRANCH   2  21
HETATM   21  C   UNL     1       5.091  27.555  55.426  1.00  0.00     0.120 A 
HETATM   22  N   UNL     1       4.815  26.706  56.459  1.00  0.00    -0.272 N 
HETATM   23  H   UNL     1       4.248  26.909  57.277  1.00  0.00     0.189 HD
HETATM   24  N   UNL     1       5.387  25.498  56.349  1.00  0.00    -0.174 NA
HETATM   25  C   UNL     1       6.041  25.539  55.177  1.00  0.00     0.089 A 
HETATM   26  C   UNL     1       5.881  26.816  54.569  1.00  0.00     0.071 A 
BRANCH  25  27
HETATM   27  C   UNL     1       6.803  24.389  54.678  1.00  0.00    -0.003 A 
HETATM   28  C   UNL     1       7.235  23.388  55.566  1.00  0.00     0.050 A 
HETATM   29  C   UNL     1       7.975  22.297  55.107  1.00  0.00     0.069 A 
HETATM   30  C   UNL     1       8.279  22.198  53.749  1.00  0.00     0.037 A 
HETATM   31  C   UNL     1       7.852  23.178  52.853  1.00  0.00     0.004 A 
HETATM   32  C   UNL     1       7.117  24.271  53.316  1.00  0.00     0.014 A 
BRANCH  29  33
HETATM   33  O   UNL     1       8.456  21.271  55.875  1.00  0.00    -0.356 OA
HETATM   34  C   UNL     1       8.674  20.028  55.217  1.00  0.00     0.210 C 
ENDBRANCH  29  33
ENDBRANCH  25  27
ENDBRANCH   2  21
TORSDOF 10
ENDMDL
MODEL 10
REMARK VINA RESULT:      -8.2      3.568     10.250
REMARK  10 active torsions:
REMARK  status: ('A' for Active; 'I' for Inactive)
REMARK       I    between atoms: C_2  and  N_3 
REMARK    1  A    between atoms: N_3  and  C_4 
REMARK    2  A    between atoms: C_6  and  O_7 
REMARK    3  A    between atoms: O_7  and  C_8 
REMARK    4  A    between atoms: C_8  and  C_9 
REMARK    5  A    between atoms: C_9  and  C_10 
REMARK    6  A    between atoms: C_10  and  C_11 
REMARK    7  A    between atoms: C_11  and  N_12 
REMARK       I    between atoms: N_12  and  C_13 
REMARK    8  A    between atoms: C_13  and  C_14 
REMARK    9  A    between atoms: C_18  and  C_19 
REMARK   10  A    between atoms: C_21  and  O_22 
ROOT
HETATM    1  N   UNL     1       4.245  28.369  53.615  1.00  0.00    -0.345 N 
HETATM    2  C   UNL     1       5.463  27.881  53.216  1.00  0.00     0.270 C 
HETATM    3  O   UNL     1       6.229  28.522  52.504  1.00  0.00    -0.266 OA
HETATM    4  H   UNL     1       3.628  27.804  54.177  1.00  0.00     0.163 HD
ENDROOT
BRANCH   1   5
HETATM    5  C   UNL     1       3.797  29.671  53.199  1.00  0.00     0.217 C 
BRANCH   5   6
HETATM    6  C   UNL     1       4.141  30.663  54.218  1.00  0.00    -0.085 C 
BRANCH   6   7
HETATM    7  C   UNL     1       4.445  31.540  55.134  1.00  0.00    -0.078 C 
BRANCH   7   8
HETATM    8  C   UNL     1       4.800  32.564  56.201  1.00  0.00     0.269 C 
BRANCH   8   9
HETATM    9  O   UNL     1       4.654  31.981  57.493  1.00  0.00    -0.339 OA
BRANCH   9  10
HETATM   10  C   UNL     1       5.772  31.371  58.004  1.00  0.00     0.072 A 
HETATM   11  C   UNL     1       6.285  30.131  57.604  1.00  0.00     0.066 A 
HETATM   12  C   UNL     1       7.441  29.609  58.193  1.00  0.00     0.037 A 
HETATM   13  C   UNL     1       8.080  30.343  59.199  1.00  0.00     0.029 A 
HETATM   14  C   UNL     1       7.573  31.578  59.606  1.00  0.00     0.005 A 
HETATM   15  C   UNL     1       6.422  32.088  59.009  1.00  0.00     0.037 A 
BRANCH  12  16
HETATM   16  N   UNL     1       8.019  28.371  57.830  1.00  0.00    -0.327 N 
HETATM   17  C   UNL     1       7.364  27.222  57.425  1.00  0.00     0.218 C 
HETATM   18  C   UNL     1       8.316  26.093  57.111  1.00  0.00     0.117 C 
HETATM   19  O   UNL     1       6.152  27.056  57.334  1.00  0.00    -0.274 OA
HETATM   20  H   UNL     1       9.029  28.328  57.876  1.00  0.00     0.169 HD
ENDBRANCH  12  16
ENDBRANCH   9  10
ENDBRANCH   8   9
ENDBRANCH   7   8
ENDBRANCH   6   7
ENDBRANCH   5   6
ENDBRANCH   1   5
BRANCH   2  21
HETATM   21  C   UNL     1       5.776  26.558  53.681  1.00  0.00     0.120 A 
HETATM   22  N   UNL     1       5.131  26.004  54.750  1.00  0.00    -0.272 N 
HETATM   23  H   UNL     1       4.394  26.432  55.302  1.00  0.00     0.189 HD
HETATM   24  N   UNL     1       5.559  24.776  55.078  1.00  0.00    -0.174 NA
HETATM   25  C   UNL     1       6.504  24.493  54.167  1.00  0.00     0.089 A 
HETATM   26  C   UNL     1       6.671  25.590  53.274  1.00  0.00     0.071 A 
BRANCH  25  27
HETATM   27  C   UNL     1       7.225  23.216  54.174  1.00  0.00    -0.003 A 
HETATM   28  C   UNL     1       7.568  22.604  55.393  1.00  0.00     0.050 A 
HETATM   29  C   UNL     1       8.269  21.397  55.415  1.00  0.00     0.069 A 
HETATM   30  C   UNL     1       8.623  20.789  54.210  1.00  0.00     0.037 A 
HETATM   31  C   UNL     1       8.285  21.378  52.993  1.00  0.00     0.004 A 
HETATM   32  C   UNL     1       7.589  22.588  52.974  1.00  0.00     0.014 A 
BRANCH  29  33
HETATM   33  O   UNL     1       8.663  20.716  56.535  1.00  0.00    -0.356 OA
HETATM   34  C   UNL     1       8.382  21.328  57.788  1.00  0.00     0.210 C 
ENDBRANCH  29  33
ENDBRANCH  25  27
ENDBRANCH   2  21
TORSDOF 10
ENDMDL
