MODEL 1
REMARK VINA RESULT:      -7.1      0.000      0.000
REMARK  10 active torsions:
REMARK  status: ('A' for Active; 'I' for Inactive)
REMARK    1  A    between atoms: C_6  and  C_7 
REMARK    2  A    between atoms: C_7  and  C_8 
REMARK       I    between atoms: C_8  and  N_9 
REMARK    3  A    between atoms: N_9  and  C_10 
REMARK    4  A    between atoms: C_10  and  C_11 
REMARK    5  A    between atoms: C_11  and  N_12 
REMARK    6  A    between atoms: C_17  and  C_18 
REMARK    7  A    between atoms: C_27  and  C_28 
REMARK    8  A    between atoms: C_28  and  O_29 
REMARK    9  A    between atoms: O_29  and  C_30 
REMARK   10  A    between atoms: C_30  and  C_31 
ROOT
HETATM    1  C   UNL     1       4.146  28.218  54.745  1.00  0.00     0.071 C 
HETATM    2  C   UNL     1       4.299  28.961  53.436  1.00  0.00     0.048 C 
HETATM    3  N   UNL     1       3.683  30.203  53.448  1.00  0.00    -0.229 NA
HETATM    4  C   UNL     1       4.078  31.056  52.565  1.00  0.00     0.170 C 
HETATM    5  N   UNL     1       4.934  30.695  51.317  1.00  0.00    -0.318 N 
HETATM    6  C   UNL     1       5.357  31.747  50.702  1.00  0.00     0.011 C 
HETATM    7  C   UNL     1       4.938  29.242  51.046  1.00  0.00     0.168 C 
HETATM    8  S   UNL     1       3.755  32.754  52.630  1.00  0.00    -0.086 SA
HETATM    9  C   UNL     1       5.053  33.061  51.385  1.00  0.00     0.135 C 
HETATM   10  C   UNL     1       5.075  28.570  52.397  1.00  0.00     0.069 C 
ENDROOT
BRANCH   6  11
HETATM   11  C   UNL     1       6.084  31.665  49.396  1.00  0.00     0.156 C 
BRANCH  11  12
HETATM   12  C   UNL     1       5.308  32.145  48.188  1.00  0.00     0.223 C 
HETATM   13  N   UNL     1       4.288  31.302  47.819  1.00  0.00    -0.359 N 
HETATM   14  H   UNL     1       4.202  30.419  48.318  1.00  0.00     0.162 HD
HETATM   15  O   UNL     1       5.589  33.178  47.592  1.00  0.00    -0.273 OA
BRANCH  13  16
HETATM   16  C   UNL     1       3.563  31.346  46.549  1.00  0.00     0.150 C 
BRANCH  16  17
HETATM   17  C   UNL     1       2.538  30.228  46.279  1.00  0.00     0.253 C 
BRANCH  17  18
HETATM   18  N   UNL     1       1.316  30.696  45.517  1.00  0.00    -0.077 N 
HETATM   19  H   UNL     1       1.359  30.262  44.574  1.00  0.00     0.279 HD
HETATM   20  C   UNL     1       0.006  30.274  46.126  1.00  0.00     0.269 C 
HETATM   21  C   UNL     1       1.351  32.188  45.320  1.00  0.00     0.269 C 
ENDBRANCH  17  18
ENDBRANCH  16  17
ENDBRANCH  13  16
ENDBRANCH  11  12
ENDBRANCH   6  11
BRANCH   7  22
HETATM   22  C   UNL     1       3.688  28.791  50.250  1.00  0.00    -0.009 A 
HETATM   23  C   UNL     1       3.756  27.748  49.296  1.00  0.00     0.042 A 
HETATM   24 CL   UNL     1       5.230  26.944  48.899  1.00  0.00    -0.084 Cl
HETATM   25  C   UNL     1       2.620  27.321  48.594  1.00  0.00     0.024 A 
HETATM   26  C   UNL     1       1.391  27.937  48.797  1.00  0.00     0.002 A 
HETATM   27  C   UNL     1       1.294  28.986  49.699  1.00  0.00     0.001 A 
HETATM   28  C   UNL     1       2.421  29.407  50.414  1.00  0.00     0.011 A 
ENDBRANCH   7  22
BRANCH  10  29
HETATM   29  C   UNL     1       6.355  27.809  52.567  1.00  0.00     0.294 C 
HETATM   30  O   UNL     1       7.161  28.106  53.437  1.00  0.00    -0.259 OA
BRANCH  29  31
HETATM   31  O   UNL     1       6.294  26.625  51.925  1.00  0.00    -0.313 OA
BRANCH  31  32
HETATM   32  C   UNL     1       5.499  25.593  52.531  1.00  0.00     0.217 C 
BRANCH  32  33
HETATM   33  C   UNL     1       6.376  24.633  53.314  1.00  0.00    -0.034 A 
HETATM   34  C   UNL     1       7.349  23.831  52.692  1.00  0.00     0.009 A 
HETATM   35  C   UNL     1       8.176  22.990  53.441  1.00  0.00     0.001 A 
HETATM   36  C   UNL     1       8.070  22.970  54.828  1.00  0.00     0.000 A 
HETATM   37  C   UNL     1       7.141  23.791  55.463  1.00  0.00     0.001 A 
HETATM   38  C   UNL     1       6.291  24.608  54.713  1.00  0.00     0.009 A 
ENDBRANCH  32  33
ENDBRANCH  31  32
ENDBRANCH  29  31
ENDBRANCH  10  29
TORSDOF 10
ENDMDL
MODEL 2
REMARK VINA RESULT:      -7.1      2.048      3.076
REMARK  10 active torsions:
REMARK  status: ('A' for Active; 'I' for Inactive)
REMARK    1  A    between atoms: C_6  and  C_7 
REMARK    2  A    between atoms: C_7  and  C_8 
REMARK       I    between atoms: C_8  and  N_9 
REMARK    3  A    between atoms: N_9  and  C_10 
REMARK    4  A    between atoms: C_10  and  C_11 
REMARK    5  A    between atoms: C_11  and  N_12 
REMARK    6  A    between atoms: C_17  and  C_18 
REMARK    7  A    between atoms: C_27  and  C_28 
REMARK    8  A    between atoms: C_28  and  O_29 
REMARK    9  A    between atoms: O_29  and  C_30 
REMARK   10  A    between atoms: C_30  and  C_31 
ROOT
HETATM    1  C   UNL     1       3.872  28.583  54.786  1.00  0.00     0.071 C 
HETATM    2  C   UNL     1       4.122  29.243  53.448  1.00  0.00     0.048 C 
HETATM    3  N   UNL     1       3.581  30.517  53.366  1.00  0.00    -0.229 NA
HETATM    4  C   UNL     1       4.062  31.295  52.458  1.00  0.00     0.170 C 
HETATM    5  N   UNL     1       4.946  30.817  51.270  1.00  0.00    -0.318 N 
HETATM    6  C   UNL     1       5.456  31.808  50.620  1.00  0.00     0.011 C 
HETATM    7  C   UNL     1       4.876  29.354  51.077  1.00  0.00     0.168 C 
HETATM    8  S   UNL     1       3.838  33.010  52.418  1.00  0.00    -0.086 SA
HETATM    9  C   UNL     1       5.202  33.173  51.218  1.00  0.00     0.135 C 
HETATM   10  C   UNL     1       4.917  28.751  52.466  1.00  0.00     0.069 C 
ENDROOT
BRANCH   6  11
HETATM   11  C   UNL     1       6.231  31.612  49.354  1.00  0.00     0.156 C 
BRANCH  11  12
HETATM   12  C   UNL     1       6.097  32.721  48.332  1.00  0.00     0.223 C 
HETATM   13  N   UNL     1       7.188  33.554  48.279  1.00  0.00    -0.359 N 
HETATM   14  H   UNL     1       7.925  33.410  48.965  1.00  0.00     0.162 HD
HETATM   15  O   UNL     1       5.095  32.864  47.641  1.00  0.00    -0.273 OA
BRANCH  13  16
HETATM   16  C   UNL     1       7.235  34.857  47.613  1.00  0.00     0.150 C 
BRANCH  16  17
HETATM   17  C   UNL     1       8.546  35.244  46.903  1.00  0.00     0.253 C 
BRANCH  17  18
HETATM   18  N   UNL     1       8.439  35.253  45.393  1.00  0.00    -0.077 N 
HETATM   19  H   UNL     1       9.380  35.016  45.019  1.00  0.00     0.279 HD
HETATM   20  C   UNL     1       7.484  34.234  44.832  1.00  0.00     0.269 C 
HETATM   21  C   UNL     1       8.098  36.630  44.892  1.00  0.00     0.269 C 
ENDBRANCH  17  18
ENDBRANCH  16  17
ENDBRANCH  13  16
ENDBRANCH  11  12
ENDBRANCH   6  11
BRANCH   7  22
HETATM   22  C   UNL     1       3.635  28.931  50.251  1.00  0.00    -0.009 A 
HETATM   23  C   UNL     1       3.656  27.784  49.422  1.00  0.00     0.042 A 
HETATM   24 CL   UNL     1       5.064  26.809  49.216  1.00  0.00    -0.084 Cl
HETATM   25  C   UNL     1       2.526  27.385  48.695  1.00  0.00     0.024 A 
HETATM   26  C   UNL     1       1.354  28.130  48.745  1.00  0.00     0.002 A 
HETATM   27  C   UNL     1       1.309  29.279  49.520  1.00  0.00     0.001 A 
HETATM   28  C   UNL     1       2.429  29.675  50.260  1.00  0.00     0.011 A 
ENDBRANCH   7  22
BRANCH  10  29
HETATM   29  C   UNL     1       6.141  27.929  52.734  1.00  0.00     0.294 C 
HETATM   30  O   UNL     1       7.054  28.354  53.428  1.00  0.00    -0.259 OA
BRANCH  29  31
HETATM   31  O   UNL     1       5.918  26.633  52.439  1.00  0.00    -0.313 OA
BRANCH  31  32
HETATM   32  C   UNL     1       5.516  25.776  53.519  1.00  0.00     0.217 C 
BRANCH  32  33
HETATM   33  C   UNL     1       6.543  24.682  53.746  1.00  0.00    -0.034 A 
HETATM   34  C   UNL     1       6.790  24.138  55.019  1.00  0.00     0.009 A 
HETATM   35  C   UNL     1       7.705  23.098  55.193  1.00  0.00     0.001 A 
HETATM   36  C   UNL     1       8.358  22.557  54.090  1.00  0.00     0.000 A 
HETATM   37  C   UNL     1       8.093  23.055  52.816  1.00  0.00     0.001 A 
HETATM   38  C   UNL     1       7.201  24.117  52.645  1.00  0.00     0.009 A 
ENDBRANCH  32  33
ENDBRANCH  31  32
ENDBRANCH  29  31
ENDBRANCH  10  29
TORSDOF 10
ENDMDL
MODEL 3
REMARK VINA RESULT:      -7.1      2.261      3.499
REMARK  10 active torsions:
REMARK  status: ('A' for Active; 'I' for Inactive)
REMARK    1  A    between atoms: C_6  and  C_7 
REMARK    2  A    between atoms: C_7  and  C_8 
REMARK       I    between atoms: C_8  and  N_9 
REMARK    3  A    between atoms: N_9  and  C_10 
REMARK    4  A    between atoms: C_10  and  C_11 
REMARK    5  A    between atoms: C_11  and  N_12 
REMARK    6  A    between atoms: C_17  and  C_18 
REMARK    7  A    between atoms: C_27  and  C_28 
REMARK    8  A    between atoms: C_28  and  O_29 
REMARK    9  A    between atoms: O_29  and  C_30 
REMARK   10  A    between atoms: C_30  and  C_31 
ROOT
HETATM    1  C   UNL     1       3.253  28.226  53.175  1.00  0.00     0.071 C 
HETATM    2  C   UNL     1       3.319  28.873  51.809  1.00  0.00     0.048 C 
HETATM    3  N   UNL     1       2.378  29.880  51.645  1.00  0.00    -0.229 NA
HETATM    4  C   UNL     1       2.603  30.736  50.708  1.00  0.00     0.170 C 
HETATM    5  N   UNL     1       3.645  30.540  49.570  1.00  0.00    -0.318 N 
HETATM    6  C   UNL     1       3.812  31.617  48.879  1.00  0.00     0.011 C 
HETATM    7  C   UNL     1       4.086  29.135  49.455  1.00  0.00     0.168 C 
HETATM    8  S   UNL     1       1.808  32.267  50.569  1.00  0.00    -0.086 SA
HETATM    9  C   UNL     1       3.084  32.836  49.396  1.00  0.00     0.135 C 
HETATM   10  C   UNL     1       4.273  28.642  50.876  1.00  0.00     0.069 C 
ENDROOT
BRANCH   6  11
HETATM   11  C   UNL     1       4.660  31.645  47.645  1.00  0.00     0.156 C 
BRANCH  11  12
HETATM   12  C   UNL     1       5.839  32.593  47.687  1.00  0.00     0.223 C 
HETATM   13  N   UNL     1       6.141  33.149  46.468  1.00  0.00    -0.359 N 
HETATM   14  H   UNL     1       5.622  32.820  45.658  1.00  0.00     0.162 HD
HETATM   15  O   UNL     1       6.468  32.817  48.714  1.00  0.00    -0.273 OA
BRANCH  13  16
HETATM   16  C   UNL     1       7.377  33.861  46.139  1.00  0.00     0.150 C 
BRANCH  16  17
HETATM   17  C   UNL     1       7.319  35.400  46.100  1.00  0.00     0.253 C 
BRANCH  17  18
HETATM   18  N   UNL     1       7.840  36.060  47.359  1.00  0.00    -0.077 N 
HETATM   19  H   UNL     1       8.246  36.975  47.079  1.00  0.00     0.279 HD
HETATM   20  C   UNL     1       6.783  36.354  48.389  1.00  0.00     0.269 C 
HETATM   21  C   UNL     1       8.955  35.248  47.962  1.00  0.00     0.269 C 
ENDBRANCH  17  18
ENDBRANCH  16  17
ENDBRANCH  13  16
ENDBRANCH  11  12
ENDBRANCH   6  11
BRANCH   7  22
HETATM   22  C   UNL     1       3.100  28.276  48.623  1.00  0.00    -0.009 A 
HETATM   23  C   UNL     1       3.560  27.273  47.738  1.00  0.00     0.042 A 
HETATM   24 CL   UNL     1       5.235  26.966  47.467  1.00  0.00    -0.084 Cl
HETATM   25  C   UNL     1       2.667  26.478  47.005  1.00  0.00     0.024 A 
HETATM   26  C   UNL     1       1.296  26.678  47.106  1.00  0.00     0.002 A 
HETATM   27  C   UNL     1       0.811  27.676  47.937  1.00  0.00     0.001 A 
HETATM   28  C   UNL     1       1.696  28.463  48.684  1.00  0.00     0.011 A 
ENDBRANCH   7  22
BRANCH  10  29
HETATM   29  C   UNL     1       5.692  28.303  51.217  1.00  0.00     0.294 C 
HETATM   30  O   UNL     1       6.278  28.862  52.133  1.00  0.00    -0.259 OA
BRANCH  29  31
HETATM   31  O   UNL     1       6.047  27.127  50.661  1.00  0.00    -0.313 OA
BRANCH  31  32
HETATM   32  C   UNL     1       5.357  25.953  51.118  1.00  0.00     0.217 C 
BRANCH  32  33
HETATM   33  C   UNL     1       6.132  25.276  52.233  1.00  0.00    -0.034 A 
HETATM   34  C   UNL     1       5.582  25.074  53.511  1.00  0.00     0.009 A 
HETATM   35  C   UNL     1       6.298  24.404  54.506  1.00  0.00     0.001 A 
HETATM   36  C   UNL     1       7.560  23.890  54.225  1.00  0.00     0.000 A 
HETATM   37  C   UNL     1       8.101  24.043  52.951  1.00  0.00     0.001 A 
HETATM   38  C   UNL     1       7.399  24.740  51.964  1.00  0.00     0.009 A 
ENDBRANCH  32  33
ENDBRANCH  31  32
ENDBRANCH  29  31
ENDBRANCH  10  29
TORSDOF 10
ENDMDL
MODEL 4
REMARK VINA RESULT:      -7.1      2.485      3.064
REMARK  10 active torsions:
REMARK  status: ('A' for Active; 'I' for Inactive)
REMARK    1  A    between atoms: C_6  and  C_7 
REMARK    2  A    between atoms: C_7  and  C_8 
REMARK       I    between atoms: C_8  and  N_9 
REMARK    3  A    between atoms: N_9  and  C_10 
REMARK    4  A    between atoms: C_10  and  C_11 
REMARK    5  A    between atoms: C_11  and  N_12 
REMARK    6  A    between atoms: C_17  and  C_18 
REMARK    7  A    between atoms: C_27  and  C_28 
REMARK    8  A    between atoms: C_28  and  O_29 
REMARK    9  A    between atoms: O_29  and  C_30 
REMARK   10  A    between atoms: C_30  and  C_31 
ROOT
HETATM    1  C   UNL     1       3.182  28.380  53.087  1.00  0.00     0.071 C 
HETATM    2  C   UNL     1       3.314  28.968  51.700  1.00  0.00     0.048 C 
HETATM    3  N   UNL     1       2.451  30.033  51.482  1.00  0.00    -0.229 NA
HETATM    4  C   UNL     1       2.750  30.834  50.518  1.00  0.00     0.170 C 
HETATM    5  N   UNL     1       3.791  30.520  49.405  1.00  0.00    -0.318 N 
HETATM    6  C   UNL     1       4.046  31.554  48.678  1.00  0.00     0.011 C 
HETATM    7  C   UNL     1       4.131  29.083  49.351  1.00  0.00     0.168 C 
HETATM    8  S   UNL     1       2.071  32.411  50.309  1.00  0.00    -0.086 SA
HETATM    9  C   UNL     1       3.401  32.842  49.137  1.00  0.00     0.135 C 
HETATM   10  C   UNL     1       4.262  28.633  50.792  1.00  0.00     0.069 C 
ENDROOT
BRANCH   6  11
HETATM   11  C   UNL     1       4.910  31.473  47.457  1.00  0.00     0.156 C 
BRANCH  11  12
HETATM   12  C   UNL     1       4.173  31.261  46.152  1.00  0.00     0.223 C 
HETATM   13  N   UNL     1       4.915  31.585  45.043  1.00  0.00    -0.359 N 
HETATM   14  H   UNL     1       5.829  32.005  45.193  1.00  0.00     0.162 HD
HETATM   15  O   UNL     1       3.016  30.859  46.106  1.00  0.00    -0.273 OA
BRANCH  13  16
HETATM   16  C   UNL     1       4.391  31.758  43.688  1.00  0.00     0.150 C 
BRANCH  16  17
HETATM   17  C   UNL     1       4.697  33.089  42.974  1.00  0.00     0.253 C 
BRANCH  17  18
HETATM   18  N   UNL     1       6.033  33.102  42.261  1.00  0.00    -0.077 N 
HETATM   19  H   UNL     1       6.452  32.158  42.381  1.00  0.00     0.279 HD
HETATM   20  C   UNL     1       5.944  33.350  40.780  1.00  0.00     0.269 C 
HETATM   21  C   UNL     1       6.970  34.086  42.907  1.00  0.00     0.269 C 
ENDBRANCH  17  18
ENDBRANCH  16  17
ENDBRANCH  13  16
ENDBRANCH  11  12
ENDBRANCH   6  11
BRANCH   7  22
HETATM   22  C   UNL     1       3.096  28.267  48.535  1.00  0.00    -0.009 A 
HETATM   23  C   UNL     1       3.490  27.179  47.721  1.00  0.00     0.042 A 
HETATM   24 CL   UNL     1       5.139  26.715  47.519  1.00  0.00    -0.084 Cl
HETATM   25  C   UNL     1       2.552  26.423  47.003  1.00  0.00     0.024 A 
HETATM   26  C   UNL     1       1.201  26.745  47.050  1.00  0.00     0.002 A 
HETATM   27  C   UNL     1       0.783  27.827  47.810  1.00  0.00     0.001 A 
HETATM   28  C   UNL     1       1.713  28.576  48.541  1.00  0.00     0.011 A 
ENDBRANCH   7  22
BRANCH  10  29
HETATM   29  C   UNL     1       5.647  28.205  51.169  1.00  0.00     0.294 C 
HETATM   30  O   UNL     1       6.266  28.766  52.063  1.00  0.00    -0.259 OA
BRANCH  29  31
HETATM   31  O   UNL     1       5.917  26.979  50.679  1.00  0.00    -0.313 OA
BRANCH  31  32
HETATM   32  C   UNL     1       5.213  25.872  51.264  1.00  0.00     0.217 C 
BRANCH  32  33
HETATM   33  C   UNL     1       6.057  25.206  52.334  1.00  0.00    -0.034 A 
HETATM   34  C   UNL     1       5.568  24.960  53.629  1.00  0.00     0.009 A 
HETATM   35  C   UNL     1       6.348  24.301  54.582  1.00  0.00     0.001 A 
HETATM   36  C   UNL     1       7.617  23.841  54.241  1.00  0.00     0.000 A 
HETATM   37  C   UNL     1       8.100  24.038  52.949  1.00  0.00     0.001 A 
HETATM   38  C   UNL     1       7.332  24.725  52.005  1.00  0.00     0.009 A 
ENDBRANCH  32  33
ENDBRANCH  31  32
ENDBRANCH  29  31
ENDBRANCH  10  29
TORSDOF 10
ENDMDL
MODEL 5
REMARK VINA RESULT:      -6.8      4.101      8.501
REMARK  10 active torsions:
REMARK  status: ('A' for Active; 'I' for Inactive)
REMARK    1  A    between atoms: C_6  and  C_7 
REMARK    2  A    between atoms: C_7  and  C_8 
REMARK       I    between atoms: C_8  and  N_9 
REMARK    3  A    between atoms: N_9  and  C_10 
REMARK    4  A    between atoms: C_10  and  C_11 
REMARK    5  A    between atoms: C_11  and  N_12 
REMARK    6  A    between atoms: C_17  and  C_18 
REMARK    7  A    between atoms: C_27  and  C_28 
REMARK    8  A    between atoms: C_28  and  O_29 
REMARK    9  A    between atoms: O_29  and  C_30 
REMARK   10  A    between atoms: C_30  and  C_31 
ROOT
HETATM    1  C   UNL     1       2.389  28.693  51.619  1.00  0.00     0.071 C 
HETATM    2  C   UNL     1       3.546  28.708  52.593  1.00  0.00     0.048 C 
HETATM    3  N   UNL     1       3.693  27.507  53.272  1.00  0.00    -0.229 NA
HETATM    4  C   UNL     1       4.843  27.279  53.806  1.00  0.00     0.170 C 
HETATM    5  N   UNL     1       5.942  28.360  54.021  1.00  0.00    -0.318 N 
HETATM    6  C   UNL     1       7.063  27.840  54.392  1.00  0.00     0.011 C 
HETATM    7  C   UNL     1       5.406  29.731  53.894  1.00  0.00     0.168 C 
HETATM    8  S   UNL     1       5.382  25.727  54.347  1.00  0.00    -0.086 SA
HETATM    9  C   UNL     1       7.103  26.329  54.403  1.00  0.00     0.135 C 
HETATM   10  C   UNL     1       4.463  29.699  52.709  1.00  0.00     0.069 C 
ENDROOT
BRANCH   6  11
HETATM   11  C   UNL     1       8.234  28.682  54.795  1.00  0.00     0.156 C 
BRANCH  11  12
HETATM   12  C   UNL     1       8.493  28.764  56.284  1.00  0.00     0.223 C 
HETATM   13  N   UNL     1       8.073  29.942  56.851  1.00  0.00    -0.359 N 
HETATM   14  H   UNL     1       7.717  30.665  56.229  1.00  0.00     0.162 HD
HETATM   15  O   UNL     1       9.048  27.866  56.907  1.00  0.00    -0.273 OA
BRANCH  13  16
HETATM   16  C   UNL     1       8.439  30.426  58.183  1.00  0.00     0.150 C 
BRANCH  16  17
HETATM   17  C   UNL     1       7.338  31.107  59.018  1.00  0.00     0.253 C 
BRANCH  17  18
HETATM   18  N   UNL     1       7.499  30.912  60.510  1.00  0.00    -0.077 N 
HETATM   19  H   UNL     1       6.945  30.071  60.770  1.00  0.00     0.279 HD
HETATM   20  C   UNL     1       8.913  30.650  60.953  1.00  0.00     0.269 C 
HETATM   21  C   UNL     1       6.915  32.076  61.265  1.00  0.00     0.269 C 
ENDBRANCH  17  18
ENDBRANCH  16  17
ENDBRANCH  13  16
ENDBRANCH  11  12
ENDBRANCH   6  11
BRANCH   7  22
HETATM   22  C   UNL     1       4.743  30.224  55.205  1.00  0.00    -0.009 A 
HETATM   23  C   UNL     1       4.493  31.598  55.434  1.00  0.00     0.042 A 
HETATM   24 CL   UNL     1       4.957  32.829  54.318  1.00  0.00    -0.084 Cl
HETATM   25  C   UNL     1       3.869  32.043  56.608  1.00  0.00     0.024 A 
HETATM   26  C   UNL     1       3.503  31.141  57.600  1.00  0.00     0.002 A 
HETATM   27  C   UNL     1       3.764  29.791  57.424  1.00  0.00     0.001 A 
HETATM   28  C   UNL     1       4.373  29.338  56.248  1.00  0.00     0.011 A 
ENDBRANCH   7  22
BRANCH  10  29
HETATM   29  C   UNL     1       4.911  30.543  51.555  1.00  0.00     0.294 C 
HETATM   30  O   UNL     1       4.600  31.723  51.472  1.00  0.00    -0.259 OA
BRANCH  29  31
HETATM   31  O   UNL     1       5.929  29.952  50.899  1.00  0.00    -0.313 OA
BRANCH  31  32
HETATM   32  C   UNL     1       5.845  29.909  49.466  1.00  0.00     0.217 C 
BRANCH  32  33
HETATM   33  C   UNL     1       5.079  28.681  49.010  1.00  0.00    -0.034 A 
HETATM   34  C   UNL     1       5.180  27.446  49.675  1.00  0.00     0.009 A 
HETATM   35  C   UNL     1       4.428  26.343  49.265  1.00  0.00     0.001 A 
HETATM   36  C   UNL     1       3.531  26.470  48.209  1.00  0.00     0.000 A 
HETATM   37  C   UNL     1       3.386  27.698  47.567  1.00  0.00     0.001 A 
HETATM   38  C   UNL     1       4.162  28.794  47.956  1.00  0.00     0.009 A 
ENDBRANCH  32  33
ENDBRANCH  31  32
ENDBRANCH  29  31
ENDBRANCH  10  29
TORSDOF 10
ENDMDL
MODEL 6
REMARK VINA RESULT:      -6.4      7.385     10.625
REMARK  10 active torsions:
REMARK  status: ('A' for Active; 'I' for Inactive)
REMARK    1  A    between atoms: C_6  and  C_7 
REMARK    2  A    between atoms: C_7  and  C_8 
REMARK       I    between atoms: C_8  and  N_9 
REMARK    3  A    between atoms: N_9  and  C_10 
REMARK    4  A    between atoms: C_10  and  C_11 
REMARK    5  A    between atoms: C_11  and  N_12 
REMARK    6  A    between atoms: C_17  and  C_18 
REMARK    7  A    between atoms: C_27  and  C_28 
REMARK    8  A    between atoms: C_28  and  O_29 
REMARK    9  A    between atoms: O_29  and  C_30 
REMARK   10  A    between atoms: C_30  and  C_31 
ROOT
HETATM    1  C   UNL     1       4.740  30.380  55.557  1.00  0.00     0.071 C 
HETATM    2  C   UNL     1       4.208  31.793  55.643  1.00  0.00     0.048 C 
HETATM    3  N   UNL     1       3.189  32.041  54.735  1.00  0.00    -0.229 NA
HETATM    4  C   UNL     1       2.419  33.043  54.986  1.00  0.00     0.170 C 
HETATM    5  N   UNL     1       2.739  34.160  56.022  1.00  0.00    -0.318 N 
HETATM    6  C   UNL     1       1.727  34.935  56.223  1.00  0.00     0.011 C 
HETATM    7  C   UNL     1       4.162  34.159  56.418  1.00  0.00     0.168 C 
HETATM    8  S   UNL     1       0.880  33.308  54.241  1.00  0.00    -0.086 SA
HETATM    9  C   UNL     1       0.448  34.520  55.534  1.00  0.00     0.135 C 
HETATM   10  C   UNL     1       4.544  32.703  56.590  1.00  0.00     0.069 C 
ENDROOT
BRANCH   6  11
HETATM   11  C   UNL     1       1.826  36.165  57.071  1.00  0.00     0.156 C 
BRANCH  11  12
HETATM   12  C   UNL     1       1.594  35.954  58.552  1.00  0.00     0.223 C 
HETATM   13  N   UNL     1       2.743  35.693  59.257  1.00  0.00    -0.359 N 
HETATM   14  H   UNL     1       3.605  35.582  58.729  1.00  0.00     0.162 HD
HETATM   15  O   UNL     1       0.477  35.992  59.056  1.00  0.00    -0.273 OA
BRANCH  13  16
HETATM   16  C   UNL     1       2.805  35.171  60.623  1.00  0.00     0.150 C 
BRANCH  16  17
HETATM   17  C   UNL     1       3.058  36.182  61.757  1.00  0.00     0.253 C 
BRANCH  17  18
HETATM   18  N   UNL     1       2.754  35.636  63.136  1.00  0.00    -0.077 N 
HETATM   19  H   UNL     1       1.874  36.088  63.456  1.00  0.00     0.279 HD
HETATM   20  C   UNL     1       2.514  34.151  63.177  1.00  0.00     0.269 C 
HETATM   21  C   UNL     1       3.831  36.025  64.112  1.00  0.00     0.269 C 
ENDBRANCH  17  18
ENDBRANCH  16  17
ENDBRANCH  13  16
ENDBRANCH  11  12
ENDBRANCH   6  11
BRANCH   7  22
HETATM   22  C   UNL     1       5.053  34.921  55.406  1.00  0.00    -0.009 A 
HETATM   23  C   UNL     1       5.520  36.230  55.672  1.00  0.00     0.042 A 
HETATM   24 CL   UNL     1       5.091  37.101  57.097  1.00  0.00    -0.084 Cl
HETATM   25  C   UNL     1       6.348  36.911  54.767  1.00  0.00     0.024 A 
HETATM   26  C   UNL     1       6.711  36.323  53.561  1.00  0.00     0.002 A 
HETATM   27  C   UNL     1       6.243  35.055  53.252  1.00  0.00     0.001 A 
HETATM   28  C   UNL     1       5.428  34.364  54.157  1.00  0.00     0.011 A 
ENDBRANCH   7  22
BRANCH  10  29
HETATM   29  C   UNL     1       4.899  32.331  57.997  1.00  0.00     0.294 C 
HETATM   30  O   UNL     1       4.125  31.701  58.704  1.00  0.00    -0.259 OA
BRANCH  29  31
HETATM   31  O   UNL     1       6.226  32.453  58.200  1.00  0.00    -0.313 OA
BRANCH  31  32
HETATM   32  C   UNL     1       6.908  31.318  58.759  1.00  0.00     0.217 C 
BRANCH  32  33
HETATM   33  C   UNL     1       7.485  31.657  60.121  1.00  0.00    -0.034 A 
HETATM   34  C   UNL     1       6.807  32.479  61.038  1.00  0.00     0.009 A 
HETATM   35  C   UNL     1       7.338  32.737  62.304  1.00  0.00     0.001 A 
HETATM   36  C   UNL     1       8.536  32.142  62.688  1.00  0.00     0.000 A 
HETATM   37  C   UNL     1       9.198  31.290  61.808  1.00  0.00     0.001 A 
HETATM   38  C   UNL     1       8.684  31.057  60.529  1.00  0.00     0.009 A 
ENDBRANCH  32  33
ENDBRANCH  31  32
ENDBRANCH  29  31
ENDBRANCH  10  29
TORSDOF 10
ENDMDL
MODEL 7
REMARK VINA RESULT:      -6.3      3.187      4.478
REMARK  10 active torsions:
REMARK  status: ('A' for Active; 'I' for Inactive)
REMARK    1  A    between atoms: C_6  and  C_7 
REMARK    2  A    between atoms: C_7  and  C_8 
REMARK       I    between atoms: C_8  and  N_9 
REMARK    3  A    between atoms: N_9  and  C_10 
REMARK    4  A    between atoms: C_10  and  C_11 
REMARK    5  A    between atoms: C_11  and  N_12 
REMARK    6  A    between atoms: C_17  and  C_18 
REMARK    7  A    between atoms: C_27  and  C_28 
REMARK    8  A    between atoms: C_28  and  O_29 
REMARK    9  A    between atoms: O_29  and  C_30 
REMARK   10  A    between atoms: C_30  and  C_31 
ROOT
HETATM    1  C   UNL     1       3.021  30.591  51.760  1.00  0.00     0.071 C 
HETATM    2  C   UNL     1       3.157  30.643  50.254  1.00  0.00     0.048 C 
HETATM    3  N   UNL     1       2.300  31.562  49.668  1.00  0.00    -0.229 NA
HETATM    4  C   UNL     1       2.603  31.965  48.482  1.00  0.00     0.170 C 
HETATM    5  N   UNL     1       3.644  31.270  47.558  1.00  0.00    -0.318 N 
HETATM    6  C   UNL     1       3.904  31.975  46.509  1.00  0.00     0.011 C 
HETATM    7  C   UNL     1       3.978  29.907  48.022  1.00  0.00     0.168 C 
HETATM    8  S   UNL     1       1.931  33.365  47.720  1.00  0.00    -0.086 SA
HETATM    9  C   UNL     1       3.264  33.343  46.475  1.00  0.00     0.135 C 
HETATM   10  C   UNL     1       4.105  30.002  49.529  1.00  0.00     0.069 C 
ENDROOT
BRANCH   6  11
HETATM   11  C   UNL     1       4.769  31.460  45.401  1.00  0.00     0.156 C 
BRANCH  11  12
HETATM   12  C   UNL     1       4.730  32.263  44.118  1.00  0.00     0.223 C 
HETATM   13  N   UNL     1       5.801  33.109  43.966  1.00  0.00    -0.359 N 
HETATM   14  H   UNL     1       6.457  33.182  44.740  1.00  0.00     0.162 HD
HETATM   15  O   UNL     1       3.810  32.174  43.312  1.00  0.00    -0.273 OA
BRANCH  13  16
HETATM   16  C   UNL     1       5.895  34.199  42.995  1.00  0.00     0.150 C 
BRANCH  16  17
HETATM   17  C   UNL     1       6.091  35.625  43.546  1.00  0.00     0.253 C 
BRANCH  17  18
HETATM   18  N   UNL     1       7.536  36.077  43.562  1.00  0.00    -0.077 N 
HETATM   19  H   UNL     1       8.057  35.455  42.912  1.00  0.00     0.279 HD
HETATM   20  C   UNL     1       7.751  37.485  43.076  1.00  0.00     0.269 C 
HETATM   21  C   UNL     1       8.136  35.891  44.929  1.00  0.00     0.269 C 
ENDBRANCH  17  18
ENDBRANCH  16  17
ENDBRANCH  13  16
ENDBRANCH  11  12
ENDBRANCH   6  11
BRANCH   7  22
HETATM   22  C   UNL     1       2.941  28.857  47.550  1.00  0.00    -0.009 A 
HETATM   23  C   UNL     1       3.282  27.490  47.420  1.00  0.00     0.042 A 
HETATM   24 CL   UNL     1       4.874  26.894  47.711  1.00  0.00    -0.084 Cl
HETATM   25  C   UNL     1       2.337  26.534  47.018  1.00  0.00     0.024 A 
HETATM   26  C   UNL     1       1.037  26.914  46.704  1.00  0.00     0.002 A 
HETATM   27  C   UNL     1       0.678  28.250  46.786  1.00  0.00     0.001 A 
HETATM   28  C   UNL     1       1.612  29.207  47.201  1.00  0.00     0.011 A 
ENDBRANCH   7  22
BRANCH  10  29
HETATM   29  C   UNL     1       5.488  29.733  50.038  1.00  0.00     0.294 C 
HETATM   30  O   UNL     1       6.288  30.641  50.219  1.00  0.00    -0.259 OA
BRANCH  29  31
HETATM   31  O   UNL     1       5.565  28.500  50.577  1.00  0.00    -0.313 OA
BRANCH  31  32
HETATM   32  C   UNL     1       5.839  28.418  51.985  1.00  0.00     0.217 C 
BRANCH  32  33
HETATM   33  C   UNL     1       6.048  26.976  52.407  1.00  0.00    -0.034 A 
HETATM   34  C   UNL     1       7.158  26.572  53.169  1.00  0.00     0.009 A 
HETATM   35  C   UNL     1       7.302  25.247  53.587  1.00  0.00     0.001 A 
HETATM   36  C   UNL     1       6.316  24.313  53.282  1.00  0.00     0.000 A 
HETATM   37  C   UNL     1       5.189  24.706  52.565  1.00  0.00     0.001 A 
HETATM   38  C   UNL     1       5.059  26.025  52.120  1.00  0.00     0.009 A 
ENDBRANCH  32  33
ENDBRANCH  31  32
ENDBRANCH  29  31
ENDBRANCH  10  29
TORSDOF 10
ENDMDL
MODEL 8
REMARK VINA RESULT:      -6.2      2.402      5.763
REMARK  10 active torsions:
REMARK  status: ('A' for Active; 'I' for Inactive)
REMARK    1  A    between atoms: C_6  and  C_7 
REMARK    2  A    between atoms: C_7  and  C_8 
REMARK       I    between atoms: C_8  and  N_9 
REMARK    3  A    between atoms: N_9  and  C_10 
REMARK    4  A    between atoms: C_10  and  C_11 
REMARK    5  A    between atoms: C_11  and  N_12 
REMARK    6  A    between atoms: C_17  and  C_18 
REMARK    7  A    between atoms: C_27  and  C_28 
REMARK    8  A    between atoms: C_28  and  O_29 
REMARK    9  A    between atoms: O_29  and  C_30 
REMARK   10  A    between atoms: C_30  and  C_31 
ROOT
HETATM    1  C   UNL     1       1.726  27.213  47.211  1.00  0.00     0.071 C 
HETATM    2  C   UNL     1       2.211  28.477  47.885  1.00  0.00     0.048 C 
HETATM    3  N   UNL     1       1.213  29.432  48.019  1.00  0.00    -0.229 NA
HETATM    4  C   UNL     1       1.403  30.349  48.905  1.00  0.00     0.170 C 
HETATM    5  N   UNL     1       2.771  30.647  49.582  1.00  0.00    -0.318 N 
HETATM    6  C   UNL     1       2.653  31.474  50.565  1.00  0.00     0.011 C 
HETATM    7  C   UNL     1       3.899  30.031  48.852  1.00  0.00     0.168 C 
HETATM    8  S   UNL     1       0.164  31.387  49.521  1.00  0.00    -0.086 SA
HETATM    9  C   UNL     1       1.235  31.855  50.921  1.00  0.00     0.135 C 
HETATM   10  C   UNL     1       3.428  28.647  48.455  1.00  0.00     0.069 C 
ENDROOT
BRANCH   6  11
HETATM   11  C   UNL     1       3.843  32.024  51.288  1.00  0.00     0.156 C 
BRANCH  11  12
HETATM   12  C   UNL     1       4.061  31.484  52.685  1.00  0.00     0.223 C 
HETATM   13  N   UNL     1       4.078  30.112  52.749  1.00  0.00    -0.359 N 
HETATM   14  H   UNL     1       3.863  29.598  51.897  1.00  0.00     0.162 HD
HETATM   15  O   UNL     1       4.187  32.214  53.662  1.00  0.00    -0.273 OA
BRANCH  13  16
HETATM   16  C   UNL     1       3.980  29.314  53.971  1.00  0.00     0.150 C 
BRANCH  16  17
HETATM   17  C   UNL     1       5.295  28.953  54.689  1.00  0.00     0.253 C 
BRANCH  17  18
HETATM   18  N   UNL     1       5.827  30.060  55.576  1.00  0.00    -0.077 N 
HETATM   19  H   UNL     1       6.023  30.875  54.961  1.00  0.00     0.279 HD
HETATM   20  C   UNL     1       4.858  30.534  56.625  1.00  0.00     0.269 C 
HETATM   21  C   UNL     1       7.132  29.656  56.205  1.00  0.00     0.269 C 
ENDBRANCH  17  18
ENDBRANCH  16  17
ENDBRANCH  13  16
ENDBRANCH  11  12
ENDBRANCH   6  11
BRANCH   7  22
HETATM   22  C   UNL     1       4.366  30.898  47.656  1.00  0.00    -0.009 A 
HETATM   23  C   UNL     1       5.395  31.858  47.797  1.00  0.00     0.042 A 
HETATM   24 CL   UNL     1       6.162  32.187  49.306  1.00  0.00    -0.084 Cl
HETATM   25  C   UNL     1       5.836  32.625  46.708  1.00  0.00     0.024 A 
HETATM   26  C   UNL     1       5.248  32.480  45.457  1.00  0.00     0.002 A 
HETATM   27  C   UNL     1       4.213  31.572  45.291  1.00  0.00     0.001 A 
HETATM   28  C   UNL     1       3.777  30.794  46.370  1.00  0.00     0.011 A 
ENDBRANCH   7  22
BRANCH  10  29
HETATM   29  C   UNL     1       4.190  27.536  49.111  1.00  0.00     0.294 C 
HETATM   30  O   UNL     1       4.803  26.708  48.451  1.00  0.00    -0.259 OA
BRANCH  29  31
HETATM   31  O   UNL     1       4.390  27.802  50.417  1.00  0.00    -0.313 OA
BRANCH  31  32
HETATM   32  C   UNL     1       5.732  27.675  50.912  1.00  0.00     0.217 C 
BRANCH  32  33
HETATM   33  C   UNL     1       5.877  26.418  51.750  1.00  0.00    -0.034 A 
HETATM   34  C   UNL     1       7.077  25.687  51.803  1.00  0.00     0.009 A 
HETATM   35  C   UNL     1       7.200  24.561  52.620  1.00  0.00     0.001 A 
HETATM   36  C   UNL     1       6.136  24.172  53.428  1.00  0.00     0.000 A 
HETATM   37  C   UNL     1       4.955  24.910  53.420  1.00  0.00     0.001 A 
HETATM   38  C   UNL     1       4.820  26.018  52.579  1.00  0.00     0.009 A 
ENDBRANCH  32  33
ENDBRANCH  31  32
ENDBRANCH  29  31
ENDBRANCH  10  29
TORSDOF 10
ENDMDL
MODEL 9
REMARK VINA RESULT:      -6.2      8.318     10.894
REMARK  10 active torsions:
REMARK  status: ('A' for Active; 'I' for Inactive)
REMARK    1  A    between atoms: C_6  and  C_7 
REMARK    2  A    between atoms: C_7  and  C_8 
REMARK       I    between atoms: C_8  and  N_9 
REMARK    3  A    between atoms: N_9  and  C_10 
REMARK    4  A    between atoms: C_10  and  C_11 
REMARK    5  A    between atoms: C_11  and  N_12 
REMARK    6  A    between atoms: C_17  and  C_18 
REMARK    7  A    between atoms: C_27  and  C_28 
REMARK    8  A    between atoms: C_28  and  O_29 
REMARK    9  A    between atoms: O_29  and  C_30 
REMARK   10  A    between atoms: C_30  and  C_31 
ROOT
HETATM    1  C   UNL     1       8.883  30.239  62.314  1.00  0.00     0.071 C 
HETATM    2  C   UNL     1       7.891  31.376  62.206  1.00  0.00     0.048 C 
HETATM    3  N   UNL     1       7.303  31.694  63.421  1.00  0.00    -0.229 NA
HETATM    4  C   UNL     1       6.768  32.862  63.519  1.00  0.00     0.170 C 
HETATM    5  N   UNL     1       6.452  33.788  62.310  1.00  0.00    -0.318 N 
HETATM    6  C   UNL     1       6.103  34.972  62.687  1.00  0.00     0.011 C 
HETATM    7  C   UNL     1       6.483  33.057  61.027  1.00  0.00     0.168 C 
HETATM    8  S   UNL     1       6.338  33.621  65.014  1.00  0.00    -0.086 SA
HETATM    9  C   UNL     1       6.207  35.234  64.172  1.00  0.00     0.135 C 
HETATM   10  C   UNL     1       7.684  32.136  61.104  1.00  0.00     0.069 C 
ENDROOT
BRANCH   6  11
HETATM   11  C   UNL     1       5.617  36.003  61.716  1.00  0.00     0.156 C 
BRANCH  11  12
HETATM   12  C   UNL     1       4.171  35.865  61.291  1.00  0.00     0.223 C 
HETATM   13  N   UNL     1       4.007  35.733  59.934  1.00  0.00    -0.359 N 
HETATM   14  H   UNL     1       4.834  35.825  59.348  1.00  0.00     0.162 HD
HETATM   15  O   UNL     1       3.242  35.892  62.091  1.00  0.00    -0.273 OA
BRANCH  13  16
HETATM   16  C   UNL     1       2.742  35.869  59.211  1.00  0.00     0.150 C 
BRANCH  16  17
HETATM   17  C   UNL     1       2.522  34.957  57.989  1.00  0.00     0.253 C 
BRANCH  17  18
HETATM   18  N   UNL     1       2.106  35.704  56.740  1.00  0.00    -0.077 N 
HETATM   19  H   UNL     1       2.726  35.381  55.970  1.00  0.00     0.279 HD
HETATM   20  C   UNL     1       0.693  35.435  56.297  1.00  0.00     0.269 C 
HETATM   21  C   UNL     1       2.337  37.182  56.903  1.00  0.00     0.269 C 
ENDBRANCH  17  18
ENDBRANCH  16  17
ENDBRANCH  13  16
ENDBRANCH  11  12
ENDBRANCH   6  11
BRANCH   7  22
HETATM   22  C   UNL     1       5.150  32.321  60.739  1.00  0.00    -0.009 A 
HETATM   23  C   UNL     1       4.661  32.166  59.420  1.00  0.00     0.042 A 
HETATM   24 CL   UNL     1       5.464  32.830  58.045  1.00  0.00    -0.084 Cl
HETATM   25  C   UNL     1       3.469  31.478  59.157  1.00  0.00     0.024 A 
HETATM   26  C   UNL     1       2.714  30.949  60.197  1.00  0.00     0.002 A 
HETATM   27  C   UNL     1       3.145  31.112  61.505  1.00  0.00     0.001 A 
HETATM   28  C   UNL     1       4.342  31.786  61.773  1.00  0.00     0.011 A 
ENDBRANCH   7  22
BRANCH  10  29
HETATM   29  C   UNL     1       8.761  32.461  60.115  1.00  0.00     0.294 C 
HETATM   30  O   UNL     1       9.882  32.790  60.479  1.00  0.00    -0.259 OA
BRANCH  29  31
HETATM   31  O   UNL     1       8.438  32.000  58.890  1.00  0.00    -0.313 OA
BRANCH  31  32
HETATM   32  C   UNL     1       9.272  30.968  58.340  1.00  0.00     0.217 C 
BRANCH  32  33
HETATM   33  C   UNL     1       8.437  29.777  57.908  1.00  0.00    -0.034 A 
HETATM   34  C   UNL     1       7.032  29.791  57.957  1.00  0.00     0.009 A 
HETATM   35  C   UNL     1       6.283  28.701  57.507  1.00  0.00     0.001 A 
HETATM   36  C   UNL     1       6.929  27.594  56.964  1.00  0.00     0.000 A 
HETATM   37  C   UNL     1       8.319  27.582  56.867  1.00  0.00     0.001 A 
HETATM   38  C   UNL     1       9.069  28.660  57.346  1.00  0.00     0.009 A 
ENDBRANCH  32  33
ENDBRANCH  31  32
ENDBRANCH  29  31
ENDBRANCH  10  29
TORSDOF 10
ENDMDL
MODEL 10
REMARK VINA RESULT:      -6.2      3.012      8.619
REMARK  10 active torsions:
REMARK  status: ('A' for Active; 'I' for Inactive)
REMARK    1  A    between atoms: C_6  and  C_7 
REMARK    2  A    between atoms: C_7  and  C_8 
REMARK       I    between atoms: C_8  and  N_9 
REMARK    3  A    between atoms: N_9  and  C_10 
REMARK    4  A    between atoms: C_10  and  C_11 
REMARK    5  A    between atoms: C_11  and  N_12 
REMARK    6  A    between atoms: C_17  and  C_18 
REMARK    7  A    between atoms: C_27  and  C_28 
REMARK    8  A    between atoms: C_28  and  O_29 
REMARK    9  A    between atoms: O_29  and  C_30 
REMARK   10  A    between atoms: C_30  and  C_31 
ROOT
HETATM    1  C   UNL     1       1.367  31.680  45.053  1.00  0.00     0.071 C 
HETATM    2  C   UNL     1       2.028  30.816  46.104  1.00  0.00     0.048 C 
HETATM    3  N   UNL     1       1.235  29.747  46.497  1.00  0.00    -0.229 NA
HETATM    4  C   UNL     1       1.835  28.758  47.065  1.00  0.00     0.170 C 
HETATM    5  N   UNL     1       3.287  28.813  47.622  1.00  0.00    -0.318 N 
HETATM    6  C   UNL     1       3.717  27.645  47.962  1.00  0.00     0.011 C 
HETATM    7  C   UNL     1       3.774  30.200  47.768  1.00  0.00     0.168 C 
HETATM    8  S   UNL     1       1.145  27.186  47.278  1.00  0.00    -0.086 SA
HETATM    9  C   UNL     1       2.797  26.495  47.627  1.00  0.00     0.135 C 
HETATM   10  C   UNL     1       3.309  30.936  46.528  1.00  0.00     0.069 C 
ENDROOT
BRANCH   6  11
HETATM   11  C   UNL     1       5.032  27.454  48.653  1.00  0.00     0.156 C 
BRANCH  11  12
HETATM   12  C   UNL     1       4.954  27.235  50.148  1.00  0.00     0.223 C 
HETATM   13  N   UNL     1       5.597  26.098  50.572  1.00  0.00    -0.359 N 
HETATM   14  H   UNL     1       5.980  25.480  49.860  1.00  0.00     0.162 HD
HETATM   15  O   UNL     1       4.352  27.997  50.896  1.00  0.00    -0.273 OA
BRANCH  13  16
HETATM   16  C   UNL     1       5.454  25.477  51.889  1.00  0.00     0.150 C 
BRANCH  16  17
HETATM   17  C   UNL     1       6.665  24.705  52.445  1.00  0.00     0.253 C 
BRANCH  17  18
HETATM   18  N   UNL     1       6.576  24.422  53.930  1.00  0.00    -0.077 N 
HETATM   19  H   UNL     1       6.129  23.490  54.037  1.00  0.00     0.279 HD
HETATM   20  C   UNL     1       7.908  24.344  54.627  1.00  0.00     0.269 C 
HETATM   21  C   UNL     1       5.682  25.424  54.609  1.00  0.00     0.269 C 
ENDBRANCH  17  18
ENDBRANCH  16  17
ENDBRANCH  13  16
ENDBRANCH  11  12
ENDBRANCH   6  11
BRANCH   7  22
HETATM   22  C   UNL     1       3.300  30.852  49.092  1.00  0.00    -0.009 A 
HETATM   23  C   UNL     1       4.224  31.306  50.064  1.00  0.00     0.042 A 
HETATM   24 CL   UNL     1       5.929  31.118  49.887  1.00  0.00    -0.084 Cl
HETATM   25  C   UNL     1       3.797  31.919  51.250  1.00  0.00     0.024 A 
HETATM   26  C   UNL     1       2.442  32.071  51.519  1.00  0.00     0.002 A 
HETATM   27  C   UNL     1       1.508  31.606  50.606  1.00  0.00     0.001 A 
HETATM   28  C   UNL     1       1.928  31.006  49.412  1.00  0.00     0.011 A 
ENDBRANCH   7  22
BRANCH  10  29
HETATM   29  C   UNL     1       4.426  31.403  45.646  1.00  0.00     0.294 C 
HETATM   30  O   UNL     1       4.340  31.353  44.427  1.00  0.00    -0.259 OA
BRANCH  29  31
HETATM   31  O   UNL     1       5.291  32.170  46.340  1.00  0.00    -0.313 OA
BRANCH  31  32
HETATM   32  C   UNL     1       6.137  33.050  45.583  1.00  0.00     0.217 C 
BRANCH  32  33
HETATM   33  C   UNL     1       6.984  33.906  46.507  1.00  0.00    -0.034 A 
HETATM   34  C   UNL     1       8.093  34.636  46.044  1.00  0.00     0.009 A 
HETATM   35  C   UNL     1       8.827  35.455  46.905  1.00  0.00     0.001 A 
HETATM   36  C   UNL     1       8.437  35.589  48.234  1.00  0.00     0.000 A 
HETATM   37  C   UNL     1       7.315  34.907  48.699  1.00  0.00     0.001 A 
HETATM   38  C   UNL     1       6.599  34.062  47.845  1.00  0.00     0.009 A 
ENDBRANCH  32  33
ENDBRANCH  31  32
ENDBRANCH  29  31
ENDBRANCH  10  29
TORSDOF 10
ENDMDL
