MODEL 1
REMARK VINA RESULT:      -8.8      0.000      0.000
REMARK  6 active torsions:
REMARK  status: ('A' for Active; 'I' for Inactive)
REMARK    1  A    between atoms: C_2  and  C_3 
REMARK    2  A    between atoms: C_3  and  O_4 
REMARK    3  A    between atoms: O_4  and  C_5 
REMARK    4  A    between atoms: C_9  and  C_10 
REMARK       I    between atoms: C_10  and  N_11 
REMARK    5  A    between atoms: N_11  and  C_12 
REMARK    6  A    between atoms: C_25  and  O_26 
ROOT
HETATM    1  C   UNL     1       7.320  27.276  56.954  1.00  0.00     0.256 C 
HETATM    2  N   UNL     1       8.356  26.358  56.886  1.00  0.00    -0.323 N 
HETATM    3  O   UNL     1       6.165  27.084  56.590  1.00  0.00    -0.267 OA
HETATM    4  H   UNL     1       9.282  26.684  57.138  1.00  0.00     0.169 HD
ENDROOT
BRANCH   1   5
HETATM    5  C   UNL     1       7.672  28.621  57.495  1.00  0.00     0.036 A 
HETATM    6  C   UNL     1       9.013  29.021  57.454  1.00  0.00     0.044 A 
HETATM    7  C   UNL     1       9.399  30.269  57.957  1.00  0.00     0.071 A 
HETATM    8  C   UNL     1       8.446  31.131  58.521  1.00  0.00     0.123 A 
HETATM    9 CL   UNL     1      11.064  30.696  57.796  1.00  0.00    -0.081 Cl
HETATM   10  C   UNL     1       7.093  30.760  58.472  1.00  0.00     0.104 A 
HETATM   11  C   UNL     1       6.710  29.504  57.990  1.00  0.00     0.056 A 
BRANCH   8  12
HETATM   12  O   UNL     1       8.758  32.346  59.074  1.00  0.00    -0.346 OA
BRANCH  12  13
HETATM   13  C   UNL     1       9.473  32.247  60.314  1.00  0.00     0.179 C 
BRANCH  13  14
HETATM   14  C   UNL     1       8.656  31.472  61.360  1.00  0.00     0.002 C 
HETATM   15  C   UNL     1       8.168  32.388  62.482  1.00  0.00     0.011 C 
HETATM   16  C   UNL     1       9.445  30.299  61.940  1.00  0.00     0.011 C 
ENDBRANCH  13  14
ENDBRANCH  12  13
ENDBRANCH   8  12
BRANCH  10  17
HETATM   17  O   UNL     1       6.063  31.540  58.934  1.00  0.00    -0.353 OA
HETATM   18  C   UNL     1       5.435  32.295  57.894  1.00  0.00     0.210 C 
ENDBRANCH  10  17
ENDBRANCH   1   5
BRANCH   2  19
HETATM   19  C   UNL     1       8.281  25.025  56.431  1.00  0.00     0.035 A 
HETATM   20  C   UNL     1       8.119  24.674  55.087  1.00  0.00     0.039 A 
HETATM   21  C   UNL     1       8.062  23.331  54.745  1.00  0.00    -0.022 A 
HETATM   22  C   UNL     1       8.160  22.329  55.711  1.00  0.00    -0.025 A 
HETATM   23  C   UNL     1       7.937  22.739  53.382  1.00  0.00     0.274 C 
HETATM   24  C   UNL     1       8.103  20.984  55.071  1.00  0.00     0.273 C 
HETATM   25  C   UNL     1       8.322  22.651  57.047  1.00  0.00     0.012 A 
HETATM   26  N   UNL     1       7.664  21.262  53.638  1.00  0.00    -0.067 N 
HETATM   27  H   UNL     1       6.641  21.165  53.633  1.00  0.00     0.280 HD
HETATM   28  C   UNL     1       8.236  20.343  52.621  1.00  0.00     0.270 C 
HETATM   29  C   UNL     1       8.380  24.006  57.401  1.00  0.00     0.030 A 
ENDBRANCH   2  19
TORSDOF 6
ENDMDL
MODEL 2
REMARK VINA RESULT:      -8.7      3.844     10.119
REMARK  6 active torsions:
REMARK  status: ('A' for Active; 'I' for Inactive)
REMARK    1  A    between atoms: C_2  and  C_3 
REMARK    2  A    between atoms: C_3  and  O_4 
REMARK    3  A    between atoms: O_4  and  C_5 
REMARK    4  A    between atoms: C_9  and  C_10 
REMARK       I    between atoms: C_10  and  N_11 
REMARK    5  A    between atoms: N_11  and  C_12 
REMARK    6  A    between atoms: C_25  and  O_26 
ROOT
HETATM    1  C   UNL     1       7.683  31.632  59.921  1.00  0.00     0.256 C 
HETATM    2  N   UNL     1       7.006  31.225  61.059  1.00  0.00    -0.323 N 
HETATM    3  O   UNL     1       8.244  32.711  59.766  1.00  0.00    -0.267 OA
HETATM    4  H   UNL     1       6.511  30.342  61.014  1.00  0.00     0.169 HD
ENDROOT
BRANCH   1   5
HETATM    5  C   UNL     1       7.690  30.666  58.784  1.00  0.00     0.036 A 
HETATM    6  C   UNL     1       6.481  30.404  58.131  1.00  0.00     0.044 A 
HETATM    7  C   UNL     1       6.430  29.498  57.064  1.00  0.00     0.071 A 
HETATM    8  C   UNL     1       7.591  28.832  56.644  1.00  0.00     0.123 A 
HETATM    9 CL   UNL     1       4.904  29.297  56.281  1.00  0.00    -0.081 Cl
HETATM   10  C   UNL     1       8.814  29.173  57.243  1.00  0.00     0.104 A 
HETATM   11  C   UNL     1       8.862  30.060  58.323  1.00  0.00     0.056 A 
BRANCH   8  12
HETATM   12  O   UNL     1       7.608  27.900  55.639  1.00  0.00    -0.346 OA
BRANCH  12  13
HETATM   13  C   UNL     1       7.454  26.552  56.103  1.00  0.00     0.179 C 
BRANCH  13  14
HETATM   14  C   UNL     1       6.084  25.983  55.702  1.00  0.00     0.002 C 
HETATM   15  C   UNL     1       5.294  25.509  56.922  1.00  0.00     0.011 C 
HETATM   16  C   UNL     1       6.215  24.852  54.683  1.00  0.00     0.011 C 
ENDBRANCH  13  14
ENDBRANCH  12  13
ENDBRANCH   8  12
BRANCH  10  17
HETATM   17  O   UNL     1      10.026  28.639  56.881  1.00  0.00    -0.353 OA
HETATM   18  C   UNL     1      11.075  29.610  56.875  1.00  0.00     0.210 C 
ENDBRANCH  10  17
ENDBRANCH   1   5
BRANCH   2  19
HETATM   19  C   UNL     1       6.867  31.942  62.267  1.00  0.00     0.035 A 
HETATM   20  C   UNL     1       5.633  32.311  62.809  1.00  0.00     0.039 A 
HETATM   21  C   UNL     1       5.606  33.012  64.006  1.00  0.00    -0.022 A 
HETATM   22  C   UNL     1       6.783  33.355  64.674  1.00  0.00    -0.025 A 
HETATM   23  C   UNL     1       4.412  33.463  64.775  1.00  0.00     0.274 C 
HETATM   24  C   UNL     1       6.468  34.070  65.944  1.00  0.00     0.273 C 
HETATM   25  C   UNL     1       8.017  33.000  64.158  1.00  0.00     0.012 A 
HETATM   26  N   UNL     1       4.981  34.390  65.843  1.00  0.00    -0.067 N 
HETATM   27  H   UNL     1       4.922  35.336  65.447  1.00  0.00     0.280 HD
HETATM   28  C   UNL     1       4.249  34.367  67.135  1.00  0.00     0.270 C 
HETATM   29  C   UNL     1       8.051  32.293  62.948  1.00  0.00     0.030 A 
ENDBRANCH   2  19
TORSDOF 6
ENDMDL
MODEL 3
REMARK VINA RESULT:      -8.7      1.895      2.829
REMARK  6 active torsions:
REMARK  status: ('A' for Active; 'I' for Inactive)
REMARK    1  A    between atoms: C_2  and  C_3 
REMARK    2  A    between atoms: C_3  and  O_4 
REMARK    3  A    between atoms: O_4  and  C_5 
REMARK    4  A    between atoms: C_9  and  C_10 
REMARK       I    between atoms: C_10  and  N_11 
REMARK    5  A    between atoms: N_11  and  C_12 
REMARK    6  A    between atoms: C_25  and  O_26 
ROOT
HETATM    1  C   UNL     1       8.321  28.752  57.623  1.00  0.00     0.256 C 
HETATM    2  N   UNL     1       7.406  27.713  57.549  1.00  0.00    -0.323 N 
HETATM    3  O   UNL     1       9.406  28.796  57.053  1.00  0.00    -0.267 OA
HETATM    4  H   UNL     1       6.591  27.771  58.146  1.00  0.00     0.169 HD
ENDROOT
BRANCH   1   5
HETATM    5  C   UNL     1       7.944  29.894  58.506  1.00  0.00     0.036 A 
HETATM    6  C   UNL     1       8.778  30.196  59.589  1.00  0.00     0.044 A 
HETATM    7  C   UNL     1       8.465  31.251  60.454  1.00  0.00     0.071 A 
HETATM    8  C   UNL     1       7.304  32.012  60.253  1.00  0.00     0.123 A 
HETATM    9 CL   UNL     1       9.594  31.587  61.718  1.00  0.00    -0.081 Cl
HETATM   10  C   UNL     1       6.526  31.760  59.112  1.00  0.00     0.104 A 
HETATM   11  C   UNL     1       6.825  30.692  58.260  1.00  0.00     0.056 A 
BRANCH   8  12
HETATM   12  O   UNL     1       6.911  33.028  61.085  1.00  0.00    -0.346 OA
BRANCH  12  13
HETATM   13  C   UNL     1       6.140  32.584  62.211  1.00  0.00     0.179 C 
BRANCH  13  14
HETATM   14  C   UNL     1       6.367  33.495  63.428  1.00  0.00     0.002 C 
HETATM   15  C   UNL     1       7.663  33.144  64.158  1.00  0.00     0.011 C 
HETATM   16  C   UNL     1       5.185  33.451  64.397  1.00  0.00     0.011 C 
ENDBRANCH  13  14
ENDBRANCH  12  13
ENDBRANCH   8  12
BRANCH  10  17
HETATM   17  O   UNL     1       5.403  32.472  58.772  1.00  0.00    -0.353 OA
HETATM   18  C   UNL     1       4.194  31.764  59.058  1.00  0.00     0.210 C 
ENDBRANCH  10  17
ENDBRANCH   1   5
BRANCH   2  19
HETATM   19  C   UNL     1       7.519  26.536  56.778  1.00  0.00     0.035 A 
HETATM   20  C   UNL     1       7.929  25.307  57.301  1.00  0.00     0.039 A 
HETATM   21  C   UNL     1       8.001  24.207  56.457  1.00  0.00    -0.022 A 
HETATM   22  C   UNL     1       7.674  24.306  55.104  1.00  0.00    -0.025 A 
HETATM   23  C   UNL     1       8.370  22.807  56.810  1.00  0.00     0.274 C 
HETATM   24  C   UNL     1       7.805  22.978  54.441  1.00  0.00     0.273 C 
HETATM   25  C   UNL     1       7.264  25.512  54.564  1.00  0.00     0.012 A 
HETATM   26  N   UNL     1       8.529  22.111  55.463  1.00  0.00    -0.067 N 
HETATM   27  H   UNL     1       9.528  22.178  55.234  1.00  0.00     0.280 HD
HETATM   28  C   UNL     1       8.134  20.679  55.458  1.00  0.00     0.270 C 
HETATM   29  C   UNL     1       7.191  26.627  55.410  1.00  0.00     0.030 A 
ENDBRANCH   2  19
TORSDOF 6
ENDMDL
MODEL 4
REMARK VINA RESULT:      -8.5      6.044      9.095
REMARK  6 active torsions:
REMARK  status: ('A' for Active; 'I' for Inactive)
REMARK    1  A    between atoms: C_2  and  C_3 
REMARK    2  A    between atoms: C_3  and  O_4 
REMARK    3  A    between atoms: O_4  and  C_5 
REMARK    4  A    between atoms: C_9  and  C_10 
REMARK       I    between atoms: C_10  and  N_11 
REMARK    5  A    between atoms: N_11  and  C_12 
REMARK    6  A    between atoms: C_25  and  O_26 
ROOT
HETATM    1  C   UNL     1       5.496  26.058  52.517  1.00  0.00     0.256 C 
HETATM    2  N   UNL     1       5.709  25.998  51.149  1.00  0.00    -0.323 N 
HETATM    3  O   UNL     1       4.619  26.703  53.080  1.00  0.00    -0.267 OA
HETATM    4  H   UNL     1       6.529  25.497  50.829  1.00  0.00     0.169 HD
ENDROOT
BRANCH   1   5
HETATM    5  C   UNL     1       6.451  25.284  53.362  1.00  0.00     0.036 A 
HETATM    6  C   UNL     1       6.901  24.046  52.889  1.00  0.00     0.044 A 
HETATM    7  C   UNL     1       7.789  23.275  53.646  1.00  0.00     0.071 A 
HETATM    8  C   UNL     1       8.232  23.729  54.898  1.00  0.00     0.123 A 
HETATM    9 CL   UNL     1       8.337  21.795  52.943  1.00  0.00    -0.081 Cl
HETATM   10  C   UNL     1       7.850  25.012  55.320  1.00  0.00     0.104 A 
HETATM   11  C   UNL     1       6.945  25.773  54.574  1.00  0.00     0.056 A 
BRANCH   8  12
HETATM   12  O   UNL     1       9.066  23.007  55.714  1.00  0.00    -0.346 OA
BRANCH  12  13
HETATM   13  C   UNL     1       8.389  22.372  56.808  1.00  0.00     0.179 C 
BRANCH  13  14
HETATM   14  C   UNL     1       8.441  20.842  56.673  1.00  0.00     0.002 C 
HETATM   15  C   UNL     1       9.705  20.384  55.946  1.00  0.00     0.011 C 
HETATM   16  C   UNL     1       7.199  20.292  55.972  1.00  0.00     0.011 C 
ENDBRANCH  13  14
ENDBRANCH  12  13
ENDBRANCH   8  12
BRANCH  10  17
HETATM   17  O   UNL     1       8.264  25.594  56.492  1.00  0.00    -0.353 OA
HETATM   18  C   UNL     1       7.177  25.899  57.369  1.00  0.00     0.210 C 
ENDBRANCH  10  17
ENDBRANCH   1   5
BRANCH   2  19
HETATM   19  C   UNL     1       4.943  26.623  50.142  1.00  0.00     0.035 A 
HETATM   20  C   UNL     1       3.918  25.982  49.440  1.00  0.00     0.039 A 
HETATM   21  C   UNL     1       3.221  26.690  48.471  1.00  0.00    -0.022 A 
HETATM   22  C   UNL     1       3.524  28.022  48.185  1.00  0.00    -0.025 A 
HETATM   23  C   UNL     1       2.076  26.219  47.642  1.00  0.00     0.274 C 
HETATM   24  C   UNL     1       2.606  28.547  47.134  1.00  0.00     0.273 C 
HETATM   25  C   UNL     1       4.532  28.679  48.867  1.00  0.00     0.012 A 
HETATM   26  N   UNL     1       1.897  27.311  46.594  1.00  0.00    -0.067 N 
HETATM   27  H   UNL     1       2.444  27.005  45.781  1.00  0.00     0.280 HD
HETATM   28  C   UNL     1       0.491  27.534  46.168  1.00  0.00     0.270 C 
HETATM   29  C   UNL     1       5.242  27.970  49.846  1.00  0.00     0.030 A 
ENDBRANCH   2  19
TORSDOF 6
ENDMDL
MODEL 5
REMARK VINA RESULT:      -8.2      3.657      9.973
REMARK  6 active torsions:
REMARK  status: ('A' for Active; 'I' for Inactive)
REMARK    1  A    between atoms: C_2  and  C_3 
REMARK    2  A    between atoms: C_3  and  O_4 
REMARK    3  A    between atoms: O_4  and  C_5 
REMARK    4  A    between atoms: C_9  and  C_10 
REMARK       I    between atoms: C_10  and  N_11 
REMARK    5  A    between atoms: N_11  and  C_12 
REMARK    6  A    between atoms: C_25  and  O_26 
ROOT
HETATM    1  C   UNL     1       7.856  31.850  59.847  1.00  0.00     0.256 C 
HETATM    2  N   UNL     1       7.037  31.453  60.893  1.00  0.00    -0.323 N 
HETATM    3  O   UNL     1       8.554  32.857  59.823  1.00  0.00    -0.267 OA
HETATM    4  H   UNL     1       6.446  30.646  60.738  1.00  0.00     0.169 HD
ENDROOT
BRANCH   1   5
HETATM    5  C   UNL     1       7.847  30.972  58.640  1.00  0.00     0.036 A 
HETATM    6  C   UNL     1       9.073  30.512  58.147  1.00  0.00     0.044 A 
HETATM    7  C   UNL     1       9.122  29.695  57.012  1.00  0.00     0.071 A 
HETATM    8  C   UNL     1       7.940  29.335  56.347  1.00  0.00     0.123 A 
HETATM    9 CL   UNL     1      10.677  29.124  56.525  1.00  0.00    -0.081 Cl
HETATM   10  C   UNL     1       6.711  29.724  56.904  1.00  0.00     0.104 A 
HETATM   11  C   UNL     1       6.663  30.559  58.024  1.00  0.00     0.056 A 
BRANCH   8  12
HETATM   12  O   UNL     1       7.915  28.577  55.205  1.00  0.00    -0.346 OA
BRANCH  12  13
HETATM   13  C   UNL     1       7.662  27.185  55.446  1.00  0.00     0.179 C 
BRANCH  13  14
HETATM   14  C   UNL     1       7.034  26.518  54.212  1.00  0.00     0.002 C 
HETATM   15  C   UNL     1       5.514  26.421  54.339  1.00  0.00     0.011 C 
HETATM   16  C   UNL     1       7.632  25.136  53.949  1.00  0.00     0.011 C 
ENDBRANCH  13  14
ENDBRANCH  12  13
ENDBRANCH   8  12
BRANCH  10  17
HETATM   17  O   UNL     1       5.487  29.385  56.383  1.00  0.00    -0.353 OA
HETATM   18  C   UNL     1       4.967  30.387  55.505  1.00  0.00     0.210 C 
ENDBRANCH  10  17
ENDBRANCH   1   5
BRANCH   2  19
HETATM   19  C   UNL     1       6.880  32.097  62.139  1.00  0.00     0.035 A 
HETATM   20  C   UNL     1       5.644  32.509  62.645  1.00  0.00     0.039 A 
HETATM   21  C   UNL     1       5.598  33.130  63.886  1.00  0.00    -0.022 A 
HETATM   22  C   UNL     1       6.757  33.350  64.632  1.00  0.00    -0.025 A 
HETATM   23  C   UNL     1       4.396  33.607  64.625  1.00  0.00     0.274 C 
HETATM   24  C   UNL     1       6.421  33.998  65.931  1.00  0.00     0.273 C 
HETATM   25  C   UNL     1       7.992  32.949  64.153  1.00  0.00     0.012 A 
HETATM   26  N   UNL     1       4.965  34.422  65.781  1.00  0.00    -0.067 N 
HETATM   27  H   UNL     1       4.986  35.393  65.449  1.00  0.00     0.280 HD
HETATM   28  C   UNL     1       4.165  34.361  67.031  1.00  0.00     0.270 C 
HETATM   29  C   UNL     1       8.045  32.323  62.900  1.00  0.00     0.030 A 
ENDBRANCH   2  19
TORSDOF 6
ENDMDL
MODEL 6
REMARK VINA RESULT:      -8.2      6.699      9.317
REMARK  6 active torsions:
REMARK  status: ('A' for Active; 'I' for Inactive)
REMARK    1  A    between atoms: C_2  and  C_3 
REMARK    2  A    between atoms: C_3  and  O_4 
REMARK    3  A    between atoms: O_4  and  C_5 
REMARK    4  A    between atoms: C_9  and  C_10 
REMARK       I    between atoms: C_10  and  N_11 
REMARK    5  A    between atoms: N_11  and  C_12 
REMARK    6  A    between atoms: C_25  and  O_26 
ROOT
HETATM    1  C   UNL     1       5.370  26.405  51.841  1.00  0.00     0.256 C 
HETATM    2  N   UNL     1       6.515  25.627  51.898  1.00  0.00    -0.323 N 
HETATM    3  O   UNL     1       4.557  26.556  52.746  1.00  0.00    -0.267 OA
HETATM    4  H   UNL     1       7.047  25.522  51.042  1.00  0.00     0.169 HD
ENDROOT
BRANCH   1   5
HETATM    5  C   UNL     1       5.106  27.087  50.540  1.00  0.00     0.036 A 
HETATM    6  C   UNL     1       5.363  28.459  50.448  1.00  0.00     0.044 A 
HETATM    7  C   UNL     1       5.124  29.149  49.254  1.00  0.00     0.071 A 
HETATM    8  C   UNL     1       4.611  28.474  48.136  1.00  0.00     0.123 A 
HETATM    9 CL   UNL     1       5.539  30.825  49.222  1.00  0.00    -0.081 Cl
HETATM   10  C   UNL     1       4.446  27.082  48.210  1.00  0.00     0.104 A 
HETATM   11  C   UNL     1       4.663  26.396  49.409  1.00  0.00     0.056 A 
BRANCH   8  12
HETATM   12  O   UNL     1       4.310  29.093  46.950  1.00  0.00    -0.346 OA
BRANCH  12  13
HETATM   13  C   UNL     1       3.089  29.846  46.989  1.00  0.00     0.179 C 
BRANCH  13  14
HETATM   14  C   UNL     1       1.969  29.044  47.670  1.00  0.00     0.002 C 
HETATM   15  C   UNL     1       1.015  28.430  46.646  1.00  0.00     0.011 C 
HETATM   16  C   UNL     1       1.192  29.896  48.674  1.00  0.00     0.011 C 
ENDBRANCH  13  14
ENDBRANCH  12  13
ENDBRANCH   8  12
BRANCH  10  17
HETATM   17  O   UNL     1       4.010  26.300  47.169  1.00  0.00    -0.353 OA
HETATM   18  C   UNL     1       3.127  25.260  47.594  1.00  0.00     0.210 C 
ENDBRANCH  10  17
ENDBRANCH   1   5
BRANCH   2  19
HETATM   19  C   UNL     1       6.992  24.899  53.008  1.00  0.00     0.035 A 
HETATM   20  C   UNL     1       7.180  23.514  53.001  1.00  0.00     0.039 A 
HETATM   21  C   UNL     1       7.660  22.894  54.147  1.00  0.00    -0.022 A 
HETATM   22  C   UNL     1       7.955  23.624  55.299  1.00  0.00    -0.025 A 
HETATM   23  C   UNL     1       7.970  21.450  54.343  1.00  0.00     0.274 C 
HETATM   24  C   UNL     1       8.482  22.722  56.363  1.00  0.00     0.273 C 
HETATM   25  C   UNL     1       7.779  24.996  55.330  1.00  0.00     0.012 A 
HETATM   26  N   UNL     1       8.204  21.316  55.843  1.00  0.00    -0.067 N 
HETATM   27  H   UNL     1       7.298  21.043  56.240  1.00  0.00     0.280 HD
HETATM   28  C   UNL     1       9.219  20.300  56.221  1.00  0.00     0.270 C 
HETATM   29  C   UNL     1       7.293  25.628  54.177  1.00  0.00     0.030 A 
ENDBRANCH   2  19
TORSDOF 6
ENDMDL
MODEL 7
REMARK VINA RESULT:      -8.0      2.054      3.108
REMARK  6 active torsions:
REMARK  status: ('A' for Active; 'I' for Inactive)
REMARK    1  A    between atoms: C_2  and  C_3 
REMARK    2  A    between atoms: C_3  and  O_4 
REMARK    3  A    between atoms: O_4  and  C_5 
REMARK    4  A    between atoms: C_9  and  C_10 
REMARK       I    between atoms: C_10  and  N_11 
REMARK    5  A    between atoms: N_11  and  C_12 
REMARK    6  A    between atoms: C_25  and  O_26 
ROOT
HETATM    1  C   UNL     1       6.158  28.098  56.118  1.00  0.00     0.256 C 
HETATM    2  N   UNL     1       7.335  27.401  55.893  1.00  0.00    -0.323 N 
HETATM    3  O   UNL     1       5.065  27.840  55.626  1.00  0.00    -0.267 OA
HETATM    4  H   UNL     1       8.183  27.782  56.294  1.00  0.00     0.169 HD
ENDROOT
BRANCH   1   5
HETATM    5  C   UNL     1       6.261  29.282  57.020  1.00  0.00     0.036 A 
HETATM    6  C   UNL     1       5.095  30.002  57.304  1.00  0.00     0.044 A 
HETATM    7  C   UNL     1       5.138  31.126  58.136  1.00  0.00     0.071 A 
HETATM    8  C   UNL     1       6.355  31.554  58.687  1.00  0.00     0.123 A 
HETATM    9 CL   UNL     1       3.634  31.903  58.479  1.00  0.00    -0.081 Cl
HETATM   10  C   UNL     1       7.501  30.771  58.472  1.00  0.00     0.104 A 
HETATM   11  C   UNL     1       7.463  29.661  57.623  1.00  0.00     0.056 A 
BRANCH   8  12
HETATM   12  O   UNL     1       6.480  32.671  59.472  1.00  0.00    -0.346 OA
BRANCH  12  13
HETATM   13  C   UNL     1       6.165  32.441  60.853  1.00  0.00     0.179 C 
BRANCH  13  14
HETATM   14  C   UNL     1       7.062  33.287  61.771  1.00  0.00     0.002 C 
HETATM   15  C   UNL     1       7.910  32.410  62.691  1.00  0.00     0.011 C 
HETATM   16  C   UNL     1       6.248  34.286  62.593  1.00  0.00     0.011 C 
ENDBRANCH  13  14
ENDBRANCH  12  13
ENDBRANCH   8  12
BRANCH  10  17
HETATM   17  O   UNL     1       8.735  31.049  59.005  1.00  0.00    -0.353 OA
HETATM   18  C   UNL     1       9.807  30.674  58.136  1.00  0.00     0.210 C 
ENDBRANCH  10  17
ENDBRANCH   1   5
BRANCH   2  19
HETATM   19  C   UNL     1       7.499  26.247  55.098  1.00  0.00     0.035 A 
HETATM   20  C   UNL     1       7.707  24.969  55.626  1.00  0.00     0.039 A 
HETATM   21  C   UNL     1       7.852  23.897  54.756  1.00  0.00    -0.022 A 
HETATM   22  C   UNL     1       7.796  24.071  53.372  1.00  0.00    -0.025 A 
HETATM   23  C   UNL     1       8.038  22.460  55.100  1.00  0.00     0.274 C 
HETATM   24  C   UNL     1       7.946  22.760  52.679  1.00  0.00     0.273 C 
HETATM   25  C   UNL     1       7.589  25.326  52.826  1.00  0.00     0.012 A 
HETATM   26  N   UNL     1       8.395  21.799  53.773  1.00  0.00    -0.067 N 
HETATM   27  H   UNL     1       9.421  21.790  53.737  1.00  0.00     0.280 HD
HETATM   28  C   UNL     1       7.898  20.407  53.623  1.00  0.00     0.270 C 
HETATM   29  C   UNL     1       7.444  26.413  53.699  1.00  0.00     0.030 A 
ENDBRANCH   2  19
TORSDOF 6
ENDMDL
MODEL 8
REMARK VINA RESULT:      -7.7      1.962      2.350
REMARK  6 active torsions:
REMARK  status: ('A' for Active; 'I' for Inactive)
REMARK    1  A    between atoms: C_2  and  C_3 
REMARK    2  A    between atoms: C_3  and  O_4 
REMARK    3  A    between atoms: O_4  and  C_5 
REMARK    4  A    between atoms: C_9  and  C_10 
REMARK       I    between atoms: C_10  and  N_11 
REMARK    5  A    between atoms: N_11  and  C_12 
REMARK    6  A    between atoms: C_25  and  O_26 
ROOT
HETATM    1  C   UNL     1       8.152  28.272  57.408  1.00  0.00     0.256 C 
HETATM    2  N   UNL     1       7.302  27.179  57.362  1.00  0.00    -0.323 N 
HETATM    3  O   UNL     1       9.327  28.285  57.057  1.00  0.00    -0.267 OA
HETATM    4  H   UNL     1       6.382  27.289  57.771  1.00  0.00     0.169 HD
ENDROOT
BRANCH   1   5
HETATM    5  C   UNL     1       7.572  29.528  57.968  1.00  0.00     0.036 A 
HETATM    6  C   UNL     1       8.375  30.312  58.805  1.00  0.00     0.044 A 
HETATM    7  C   UNL     1       7.877  31.494  59.365  1.00  0.00     0.071 A 
HETATM    8  C   UNL     1       6.560  31.902  59.104  1.00  0.00     0.123 A 
HETATM    9 CL   UNL     1       8.969  32.425  60.326  1.00  0.00    -0.081 Cl
HETATM   10  C   UNL     1       5.796  31.159  58.190  1.00  0.00     0.104 A 
HETATM   11  C   UNL     1       6.285  29.966  57.648  1.00  0.00     0.056 A 
BRANCH   8  12
HETATM   12  O   UNL     1       5.992  33.022  59.653  1.00  0.00    -0.346 OA
BRANCH  12  13
HETATM   13  C   UNL     1       6.022  33.037  61.088  1.00  0.00     0.179 C 
BRANCH  13  14
HETATM   14  C   UNL     1       4.808  32.296  61.672  1.00  0.00     0.002 C 
HETATM   15  C   UNL     1       3.594  33.216  61.791  1.00  0.00     0.011 C 
HETATM   16  C   UNL     1       5.128  31.664  63.026  1.00  0.00     0.011 C 
ENDBRANCH  13  14
ENDBRANCH  12  13
ENDBRANCH   8  12
BRANCH  10  17
HETATM   17  O   UNL     1       4.520  31.487  57.806  1.00  0.00    -0.353 OA
HETATM   18  C   UNL     1       4.301  31.296  56.406  1.00  0.00     0.210 C 
ENDBRANCH  10  17
ENDBRANCH   1   5
BRANCH   2  19
HETATM   19  C   UNL     1       7.601  25.891  56.866  1.00  0.00     0.035 A 
HETATM   20  C   UNL     1       7.134  25.407  55.641  1.00  0.00     0.039 A 
HETATM   21  C   UNL     1       7.491  24.126  55.244  1.00  0.00    -0.022 A 
HETATM   22  C   UNL     1       8.303  23.317  56.041  1.00  0.00    -0.025 A 
HETATM   23  C   UNL     1       7.143  23.434  53.971  1.00  0.00     0.274 C 
HETATM   24  C   UNL     1       8.557  22.013  55.365  1.00  0.00     0.273 C 
HETATM   25  C   UNL     1       8.779  23.775  57.257  1.00  0.00     0.012 A 
HETATM   26  N   UNL     1       7.577  21.990  54.199  1.00  0.00    -0.067 N 
HETATM   27  H   UNL     1       6.741  21.502  54.542  1.00  0.00     0.280 HD
HETATM   28  C   UNL     1       8.071  21.295  52.983  1.00  0.00     0.270 C 
HETATM   29  C   UNL     1       8.420  25.067  57.665  1.00  0.00     0.030 A 
ENDBRANCH   2  19
TORSDOF 6
ENDMDL
MODEL 9
REMARK VINA RESULT:      -7.7      4.077      6.183
REMARK  6 active torsions:
REMARK  status: ('A' for Active; 'I' for Inactive)
REMARK    1  A    between atoms: C_2  and  C_3 
REMARK    2  A    between atoms: C_3  and  O_4 
REMARK    3  A    between atoms: O_4  and  C_5 
REMARK    4  A    between atoms: C_9  and  C_10 
REMARK       I    between atoms: C_10  and  N_11 
REMARK    5  A    between atoms: N_11  and  C_12 
REMARK    6  A    between atoms: C_25  and  O_26 
ROOT
HETATM    1  C   UNL     1       6.148  32.230  58.987  1.00  0.00     0.256 C 
HETATM    2  N   UNL     1       6.708  30.962  58.952  1.00  0.00    -0.323 N 
HETATM    3  O   UNL     1       5.802  32.889  58.014  1.00  0.00    -0.267 OA
HETATM    4  H   UNL     1       7.031  30.574  59.829  1.00  0.00     0.169 HD
ENDROOT
BRANCH   1   5
HETATM    5  C   UNL     1       5.992  32.838  60.340  1.00  0.00     0.036 A 
HETATM    6  C   UNL     1       6.970  32.568  61.305  1.00  0.00     0.044 A 
HETATM    7  C   UNL     1       6.866  33.105  62.593  1.00  0.00     0.071 A 
HETATM    8  C   UNL     1       5.772  33.913  62.938  1.00  0.00     0.123 A 
HETATM    9 CL   UNL     1       8.159  32.769  63.687  1.00  0.00    -0.081 Cl
HETATM   10  C   UNL     1       4.847  34.254  61.937  1.00  0.00     0.104 A 
HETATM   11  C   UNL     1       4.938  33.699  60.657  1.00  0.00     0.056 A 
BRANCH   8  12
HETATM   12  O   UNL     1       5.581  34.435  64.191  1.00  0.00    -0.346 OA
BRANCH  12  13
HETATM   13  C   UNL     1       4.940  33.528  65.100  1.00  0.00     0.179 C 
BRANCH  13  14
HETATM   14  C   UNL     1       4.054  34.285  66.100  1.00  0.00     0.002 C 
HETATM   15  C   UNL     1       3.922  35.762  65.728  1.00  0.00     0.011 C 
HETATM   16  C   UNL     1       4.567  34.144  67.533  1.00  0.00     0.011 C 
ENDBRANCH  13  14
ENDBRANCH  12  13
ENDBRANCH   8  12
BRANCH  10  17
HETATM   17  O   UNL     1       3.771  35.083  62.132  1.00  0.00    -0.353 OA
HETATM   18  C   UNL     1       2.550  34.363  62.321  1.00  0.00     0.210 C 
ENDBRANCH  10  17
ENDBRANCH   1   5
BRANCH   2  19
HETATM   19  C   UNL     1       6.946  30.171  57.808  1.00  0.00     0.035 A 
HETATM   20  C   UNL     1       5.929  29.646  57.005  1.00  0.00     0.039 A 
HETATM   21  C   UNL     1       6.271  28.884  55.898  1.00  0.00    -0.022 A 
HETATM   22  C   UNL     1       7.605  28.631  55.573  1.00  0.00    -0.025 A 
HETATM   23  C   UNL     1       5.358  28.269  54.893  1.00  0.00     0.274 C 
HETATM   24  C   UNL     1       7.689  27.820  54.325  1.00  0.00     0.273 C 
HETATM   25  C   UNL     1       8.629  29.141  56.350  1.00  0.00     0.012 A 
HETATM   26  N   UNL     1       6.260  27.352  54.077  1.00  0.00    -0.067 N 
HETATM   27  H   UNL     1       6.186  26.427  54.518  1.00  0.00     0.280 HD
HETATM   28  C   UNL     1       5.883  27.229  52.645  1.00  0.00     0.270 C 
HETATM   29  C   UNL     1       8.291  29.910  57.472  1.00  0.00     0.030 A 
ENDBRANCH   2  19
TORSDOF 6
ENDMDL
MODEL 10
REMARK VINA RESULT:      -7.7      6.897      9.263
REMARK  6 active torsions:
REMARK  status: ('A' for Active; 'I' for Inactive)
REMARK    1  A    between atoms: C_2  and  C_3 
REMARK    2  A    between atoms: C_3  and  O_4 
REMARK    3  A    between atoms: O_4  and  C_5 
REMARK    4  A    between atoms: C_9  and  C_10 
REMARK       I    between atoms: C_10  and  N_11 
REMARK    5  A    between atoms: N_11  and  C_12 
REMARK    6  A    between atoms: C_25  and  O_26 
ROOT
HETATM    1  C   UNL     1       6.094  26.570  52.173  1.00  0.00     0.256 C 
HETATM    2  N   UNL     1       5.830  25.235  52.436  1.00  0.00    -0.323 N 
HETATM    3  O   UNL     1       6.842  27.295  52.818  1.00  0.00    -0.267 OA
HETATM    4  H   UNL     1       5.119  24.783  51.873  1.00  0.00     0.169 HD
ENDROOT
BRANCH   1   5
HETATM    5  C   UNL     1       5.367  27.163  51.013  1.00  0.00     0.036 A 
HETATM    6  C   UNL     1       4.753  26.296  50.102  1.00  0.00     0.044 A 
HETATM    7  C   UNL     1       4.067  26.800  48.991  1.00  0.00     0.071 A 
HETATM    8  C   UNL     1       3.996  28.183  48.770  1.00  0.00     0.123 A 
HETATM    9 CL   UNL     1       3.286  25.650  47.966  1.00  0.00    -0.081 Cl
HETATM   10  C   UNL     1       4.533  29.046  49.739  1.00  0.00     0.104 A 
HETATM   11  C   UNL     1       5.238  28.543  50.836  1.00  0.00     0.056 A 
BRANCH   8  12
HETATM   12  O   UNL     1       3.381  28.746  47.681  1.00  0.00    -0.346 OA
BRANCH  12  13
HETATM   13  C   UNL     1       1.992  29.036  47.892  1.00  0.00     0.179 C 
BRANCH  13  14
HETATM   14  C   UNL     1       1.175  28.774  46.618  1.00  0.00     0.002 C 
HETATM   15  C   UNL     1       0.207  29.920  46.325  1.00  0.00     0.011 C 
HETATM   16  C   UNL     1       0.418  27.448  46.693  1.00  0.00     0.011 C 
ENDBRANCH  13  14
ENDBRANCH  12  13
ENDBRANCH   8  12
BRANCH  10  17
HETATM   17  O   UNL     1       4.475  30.416  49.669  1.00  0.00    -0.353 OA
HETATM   18  C   UNL     1       5.760  31.013  49.479  1.00  0.00     0.210 C 
ENDBRANCH  10  17
ENDBRANCH   1   5
BRANCH   2  19
HETATM   19  C   UNL     1       6.396  24.443  53.458  1.00  0.00     0.035 A 
HETATM   20  C   UNL     1       7.076  23.246  53.222  1.00  0.00     0.039 A 
HETATM   21  C   UNL     1       7.600  22.545  54.299  1.00  0.00    -0.022 A 
HETATM   22  C   UNL     1       7.460  23.011  55.607  1.00  0.00    -0.025 A 
HETATM   23  C   UNL     1       8.389  21.281  54.271  1.00  0.00     0.274 C 
HETATM   24  C   UNL     1       8.141  22.090  56.561  1.00  0.00     0.273 C 
HETATM   25  C   UNL     1       6.792  24.195  55.867  1.00  0.00     0.012 A 
HETATM   26  N   UNL     1       8.464  20.853  55.731  1.00  0.00    -0.067 N 
HETATM   27  H   UNL     1       7.678  20.207  55.870  1.00  0.00     0.280 HD
HETATM   28  C   UNL     1       9.724  20.161  56.108  1.00  0.00     0.270 C 
HETATM   29  C   UNL     1       6.259  24.907  54.783  1.00  0.00     0.030 A 
ENDBRANCH   2  19
TORSDOF 6
ENDMDL
